data_image0
_chemical_formula_structural       C4NC2NHOC4NC2NHOC4NC2NHOC2H2CH2C2H2CH2C2H2CH2CNCNCNC18H12CNCNCNC18H12CNCNCNC18H12CNCNCNC18H12C2H2CH3C2H2CH3C2H2CH3C4NC2NHOHC4NC2NHOHC4NC2NHOH
_chemical_formula_sum              "C138 N24 H84 O6"
_cell_length_a       44.9598
_cell_length_b       44.9597
_cell_length_c       15.008
_cell_angle_alpha    90
_cell_angle_beta     90
_cell_angle_gamma    120

_space_group_name_H-M_alt    "P 1"
_space_group_IT_number       1

loop_
  _space_group_symop_operation_xyz
  'x, y, z'

loop_
  _atom_site_type_symbol
  _atom_site_label
  _atom_site_symmetry_multiplicity
  _atom_site_fract_x
  _atom_site_fract_y
  _atom_site_fract_z
  _atom_site_occupancy
  C   C1        1.0  0.24676  0.13076  0.31715  1.0000
  C   C2        1.0  0.22958  0.11064  0.24143  1.0000
  C   C3        1.0  0.19308  0.09195  0.23797  1.0000
  C   C4        1.0  0.17345  0.09332  0.31012  1.0000
  N   N1        1.0  0.17792  0.07330  0.16317  1.0000
  C   C5        1.0  0.19574  0.07169  0.09228  1.0000
  C   C6        1.0  0.23181  0.09059  0.09484  1.0000
  N   N2        1.0  0.24716  0.10896  0.16946  1.0000
  H   H1        1.0  0.18301  0.05720  0.03801  1.0000
  O   O1        1.0  0.25112  0.08943  0.02614  1.0000
  C   C7        1.0  0.85653  0.11587  0.31717  1.0000
  C   C8        1.0  0.87665  0.11882  0.24143  1.0000
  C   C9        1.0  0.89535  0.10103  0.23795  1.0000
  C   C10       1.0  0.89402  0.08005  0.31010  1.0000
  N   N3        1.0  0.91399  0.10452  0.16313  1.0000
  C   C11       1.0  0.91558  0.12394  0.09224  1.0000
  C   C12       1.0  0.89665  0.14108  0.09480  1.0000
  N   N4        1.0  0.87830  0.13806  0.16946  1.0000
  H   H2        1.0  0.93007  0.12572  0.03796  1.0000
  O   O2        1.0  0.89781  0.16156  0.02613  1.0000
  C   C13       1.0  0.87149  0.74061  0.31694  1.0000
  C   C14       1.0  0.86855  0.75782  0.24127  1.0000
  C   C15       1.0  0.88634  0.79432  0.23792  1.0000
  C   C16       1.0  0.90731  0.81392  0.31012  1.0000
  N   N5        1.0  0.88285  0.80950  0.16318  1.0000
  C   C17       1.0  0.86343  0.79171  0.09224  1.0000
  C   C18       1.0  0.84629  0.75564  0.09468  1.0000
  N   N6        1.0  0.84931  0.74027  0.16925  1.0000
  H   H3        1.0  0.86166  0.80445  0.03803  1.0000
  O   O3        1.0  0.82582  0.73635  0.02595  1.0000
  C   C19       1.0  0.54507  0.14444  0.26408  1.0000
  C   C20       1.0  0.57712  0.14624  0.25840  1.0000
  H   H4        1.0  0.59221  0.15810  0.20407  1.0000
  H   H5        1.0  0.53818  0.15519  0.21373  1.0000
  C   C21       1.0  0.59850  0.12122  0.01865  1.0000
  H   H6        1.0  0.60674  0.11110  0.07343  1.0000
  H   H7        1.0  0.58533  0.13391  0.04684  1.0000
  C   C22       1.0  0.84268  0.40042  0.26410  1.0000
  C   C23       1.0  0.84088  0.43066  0.25843  1.0000
  H   H8        1.0  0.82906  0.43390  0.20401  1.0000
  H   H9        1.0  0.83192  0.38279  0.21374  1.0000
  C   C24       1.0  0.86608  0.47713  0.01860  1.0000
  H   H10       1.0  0.87624  0.49552  0.07330  1.0000
  H   H11       1.0  0.85344  0.45129  0.04689  1.0000
  C   C25       1.0  0.58700  0.44217  0.26423  1.0000
  C   C26       1.0  0.55676  0.41013  0.25830  1.0000
  H   H12       1.0  0.55356  0.39513  0.20379  1.0000
  H   H13       1.0  0.60462  0.44920  0.21381  1.0000
  C   C27       1.0  0.51004  0.38862  0.01847  1.0000
  H   H14       1.0  0.49159  0.38035  0.07306  1.0000
  H   H15       1.0  0.53585  0.40187  0.04692  1.0000
  C   C28       1.0  0.97523  0.96038  0.31211  1.0000
  N   N7        1.0  0.01006  0.97989  0.31207  1.0000
  C   C29       1.0  0.02699  0.01480  0.31204  1.0000
  N   N8        1.0  0.00748  0.03012  0.31198  1.0000
  C   C30       1.0  0.97257  0.01214  0.31203  1.0000
  N   N9        1.0  0.95725  0.97731  0.31205  1.0000
  C   C31       1.0  0.06355  0.03445  0.31179  1.0000
  C   C32       1.0  0.08367  0.01839  0.30340  1.0000
  C   C33       1.0  0.11975  0.03773  0.30257  1.0000
  C   C34       1.0  0.13698  0.07387  0.31044  1.0000
  C   C35       1.0  0.11720  0.09011  0.31980  1.0000
  C   C36       1.0  0.08110  0.07072  0.31993  1.0000
  C   C37       1.0  0.95832  0.92382  0.31191  1.0000
  C   C38       1.0  0.97705  0.90627  0.32004  1.0000
  C   C39       1.0  0.96034  0.87018  0.31992  1.0000
  C   C40       1.0  0.92432  0.85038  0.31054  1.0000
  C   C41       1.0  0.90542  0.86762  0.30271  1.0000
  C   C42       1.0  0.92214  0.90369  0.30355  1.0000
  C   C43       1.0  0.95291  0.02904  0.31175  1.0000
  C   C44       1.0  0.91664  0.01032  0.31996  1.0000
  C   C45       1.0  0.89725  0.02702  0.31983  1.0000
  C   C46       1.0  0.91348  0.06304  0.31040  1.0000
  C   C47       1.0  0.94961  0.08194  0.30246  1.0000
  C   C48       1.0  0.96896  0.06522  0.30331  1.0000
  H   H16       1.0  0.97478  0.85846  0.32543  1.0000
  H   H17       1.0  0.00319  0.91954  0.32657  1.0000
  H   H18       1.0  0.87922  0.85402  0.29720  1.0000
  H   H19       1.0  0.90737  0.91501  0.29756  1.0000
  H   H20       1.0  0.90377  0.98417  0.32654  1.0000
  H   H21       1.0  0.87110  0.01258  0.32542  1.0000
  H   H22       1.0  0.99505  0.07999  0.29726  1.0000
  H   H23       1.0  0.96220  0.10814  0.29692  1.0000
  H   H24       1.0  0.06784  0.08360  0.32649  1.0000
  H   H25       1.0  0.12892  0.11626  0.32537  1.0000
  H   H26       1.0  0.13334  0.02513  0.29706  1.0000
  H   H27       1.0  0.07234  0.99230  0.29740  1.0000
  C   C49       1.0  0.44397  0.19645  0.36090  1.0000
  N   N10       1.0  0.40934  0.18108  0.35327  1.0000
  C   C50       1.0  0.39277  0.19941  0.34700  1.0000
  N   N11       1.0  0.41236  0.23437  0.34658  1.0000
  C   C51       1.0  0.44721  0.25107  0.35278  1.0000
  N   N12       1.0  0.46203  0.23125  0.35996  1.0000
  C   C52       1.0  0.35629  0.18242  0.34004  1.0000
  C   C53       1.0  0.33662  0.14631  0.32894  1.0000
  C   C54       1.0  0.30068  0.12942  0.32130  1.0000
  C   C55       1.0  0.28310  0.14807  0.32492  1.0000
  C   C56       1.0  0.30236  0.18399  0.33743  1.0000
  C   C57       1.0  0.33839  0.20088  0.34425  1.0000
  C   C58       1.0  0.46161  0.17772  0.36545  1.0000
  C   C59       1.0  0.44958  0.14618  0.31982  1.0000
  C   C60       1.0  0.46981  0.13032  0.31482  1.0000
  C   C61       1.0  0.50184  0.14489  0.35869  1.0000
  C   C62       1.0  0.51323  0.17561  0.40736  1.0000
  C   C63       1.0  0.49351  0.19185  0.41028  1.0000
  C   C64       1.0  0.46810  0.28757  0.34840  1.0000
  C   C65       1.0  0.50436  0.30312  0.34478  1.0000
  C   C66       1.0  0.52547  0.33884  0.33819  1.0000
  C   C67       1.0  0.51118  0.36053  0.33496  1.0000
  C   C68       1.0  0.47515  0.34554  0.34017  1.0000
  C   C69       1.0  0.45394  0.30954  0.34595  1.0000
  H   H28       1.0  0.46156  0.10874  0.27667  1.0000
  H   H29       1.0  0.42711  0.13569  0.28456  1.0000
  H   H30       1.0  0.53694  0.18754  0.43699  1.0000
  H   H31       1.0  0.50328  0.21472  0.44354  1.0000
  H   H32       1.0  0.51614  0.28869  0.34634  1.0000
  H   H33       1.0  0.55154  0.34888  0.33649  1.0000
  H   H34       1.0  0.42793  0.29958  0.34876  1.0000
  H   H35       1.0  0.46414  0.36070  0.33881  1.0000
  H   H36       1.0  0.35133  0.22694  0.35277  1.0000
  H   H37       1.0  0.29035  0.19821  0.34019  1.0000
  H   H38       1.0  0.28741  0.10329  0.31371  1.0000
  H   H39       1.0  0.34818  0.13170  0.32552  1.0000
  C   C70       1.0  0.79071  0.24728  0.36116  1.0000
  N   N13       1.0  0.80610  0.22803  0.35345  1.0000
  C   C71       1.0  0.78778  0.19313  0.34718  1.0000
  N   N14       1.0  0.75283  0.17774  0.34684  1.0000
  C   C72       1.0  0.73610  0.19586  0.35316  1.0000
  N   N15       1.0  0.75591  0.23051  0.36031  1.0000
  C   C73       1.0  0.80480  0.17368  0.34015  1.0000
  C   C74       1.0  0.84091  0.19013  0.32899  1.0000
  C   C75       1.0  0.85782  0.17110  0.32132  1.0000
  C   C76       1.0  0.83920  0.13487  0.32495  1.0000
  C   C77       1.0  0.80328  0.11820  0.33747  1.0000
  C   C78       1.0  0.78637  0.13731  0.34434  1.0000
  C   C79       1.0  0.80942  0.28365  0.36568  1.0000
  C   C80       1.0  0.84098  0.30317  0.32012  1.0000
  C   C81       1.0  0.85679  0.33925  0.31494  1.0000
  C   C82       1.0  0.84216  0.35668  0.35868  1.0000
  C   C83       1.0  0.81149  0.33737  0.40754  1.0000
  C   C84       1.0  0.79528  0.30141  0.41048  1.0000
  C   C85       1.0  0.69961  0.18024  0.34882  1.0000
  C   C86       1.0  0.68401  0.20091  0.34570  1.0000
  C   C87       1.0  0.64829  0.18627  0.33908  1.0000
  C   C88       1.0  0.62664  0.15029  0.33527  1.0000
  C   C89       1.0  0.64166  0.12927  0.34005  1.0000
  C   C90       1.0  0.67766  0.14409  0.34590  1.0000
  H   H40       1.0  0.87833  0.35257  0.27665  1.0000
  H   H41       1.0  0.85142  0.29118  0.28467  1.0000
  H   H42       1.0  0.79956  0.34914  0.43717  1.0000
  H   H43       1.0  0.77243  0.28831  0.44384  1.0000
  H   H44       1.0  0.69841  0.22712  0.34767  1.0000
  H   H45       1.0  0.63821  0.20227  0.33774  1.0000
  H   H46       1.0  0.68766  0.12807  0.34835  1.0000
  H   H47       1.0  0.62654  0.10311  0.33835  1.0000
  H   H48       1.0  0.76031  0.12417  0.35291  1.0000
  H   H49       1.0  0.78908  0.09196  0.34026  1.0000
  H   H50       1.0  0.88395  0.18399  0.31373  1.0000
  H   H51       1.0  0.85550  0.21631  0.32560  1.0000
  C   C91       1.0  0.74001  0.54341  0.36098  1.0000
  N   N16       1.0  0.75927  0.57803  0.35317  1.0000
  C   C92       1.0  0.79417  0.59460  0.34682  1.0000
  N   N17       1.0  0.80953  0.57501  0.34650  1.0000
  C   C93       1.0  0.79139  0.54017  0.35289  1.0000
  N   N18       1.0  0.75675  0.52535  0.36015  1.0000
  C   C94       1.0  0.81364  0.63107  0.33973  1.0000
  C   C95       1.0  0.79720  0.65074  0.32859  1.0000
  C   C96       1.0  0.81625  0.68668  0.32094  1.0000
  C   C97       1.0  0.85247  0.70427  0.32460  1.0000
  C   C98       1.0  0.86913  0.68501  0.33713  1.0000
  C   C99       1.0  0.85001  0.64899  0.34395  1.0000
  C   C100      1.0  0.70365  0.52577  0.36561  1.0000
  C   C101      1.0  0.68412  0.53768  0.31952  1.0000
  C   C102      1.0  0.64804  0.51742  0.31455  1.0000
  C   C103      1.0  0.63061  0.48549  0.35890  1.0000
  C   C104      1.0  0.64994  0.47423  0.40807  1.0000
  C   C105      1.0  0.68590  0.49399  0.41094  1.0000
  C   C106      1.0  0.80700  0.51928  0.34861  1.0000
  C   C107      1.0  0.78631  0.48301  0.34547  1.0000
  C   C108      1.0  0.80093  0.46191  0.33888  1.0000
  C   C109      1.0  0.83691  0.47622  0.33516  1.0000
  C   C110      1.0  0.85795  0.51226  0.33998  1.0000
  C   C111      1.0  0.84314  0.53346  0.34576  1.0000
  H   H52       1.0  0.63470  0.52556  0.27603  1.0000
  H   H53       1.0  0.69610  0.56007  0.28390  1.0000
  H   H54       1.0  0.63819  0.45059  0.43802  1.0000
  H   H55       1.0  0.69902  0.48431  0.44452  1.0000
  H   H56       1.0  0.76010  0.47122  0.34734  1.0000
  H   H57       1.0  0.78490  0.43583  0.33749  1.0000
  H   H58       1.0  0.85918  0.55947  0.34822  1.0000
  H   H59       1.0  0.88411  0.52328  0.33829  1.0000
  H   H60       1.0  0.86313  0.63605  0.35252  1.0000
  H   H61       1.0  0.89536  0.69703  0.33993  1.0000
  H   H62       1.0  0.80337  0.69994  0.31336  1.0000
  H   H63       1.0  0.77102  0.63916  0.32517  1.0000
  C   C112      1.0  0.19089  0.11423  0.38419  1.0000
  C   C113      1.0  0.22695  0.13265  0.38765  1.0000
  H   H64       1.0  0.23863  0.14674  0.44355  1.0000
  H   H65       1.0  0.17744  0.11547  0.43775  1.0000
  C   C114      1.0  0.26144  0.11728  0.63082  1.0000
  H   H66       1.0  0.27645  0.11430  0.57815  1.0000
  H   H67       1.0  0.27753  0.14212  0.66293  1.0000
  H   H68       1.0  0.23919  0.11689  0.60017  1.0000
  C   C115      1.0  0.87312  0.07658  0.38421  1.0000
  C   C116      1.0  0.85467  0.09419  0.38767  1.0000
  H   H69       1.0  0.84058  0.09176  0.44358  1.0000
  H   H70       1.0  0.87188  0.06188  0.43774  1.0000
  C   C117      1.0  0.86996  0.14405  0.63082  1.0000
  H   H71       1.0  0.87294  0.16204  0.57819  1.0000
  H   H72       1.0  0.84512  0.13529  0.66295  1.0000
  H   H73       1.0  0.87034  0.12219  0.60014  1.0000
  C   C118      1.0  0.91079  0.79646  0.38414  1.0000
  C   C119      1.0  0.89318  0.76039  0.38748  1.0000
  H   H74       1.0  0.89557  0.74870  0.44335  1.0000
  H   H75       1.0  0.92546  0.80988  0.43773  1.0000
  C   C120      1.0  0.84336  0.72610  0.63050  1.0000
  H   H76       1.0  0.82536  0.71110  0.57783  1.0000
  H   H77       1.0  0.85215  0.71002  0.66247  1.0000
  H   H78       1.0  0.86519  0.74838  0.59987  1.0000
  C   C121      1.0  0.59059  0.13692  0.33148  1.0000
  C   C122      1.0  0.57011  0.12339  0.40884  1.0000
  C   C123      1.0  0.53777  0.12184  0.41483  1.0000
  C   C124      1.0  0.52562  0.13345  0.34343  1.0000
  N   N19       1.0  0.51995  0.11084  0.49265  1.0000
  C   C125      1.0  0.53129  0.10086  0.56400  1.0000
  C   C126      1.0  0.56351  0.10294  0.55902  1.0000
  N   N20       1.0  0.58157  0.11413  0.48188  1.0000
  H   H79       1.0  0.51686  0.09268  0.62073  1.0000
  O   O4        1.0  0.57604  0.09303  0.62881  1.0000
  H   H80       1.0  0.62137  0.14002  0.64922  1.0000
  C   C127      1.0  0.85024  0.45352  0.33140  1.0000
  C   C128      1.0  0.86378  0.44653  0.40868  1.0000
  C   C129      1.0  0.86527  0.41571  0.41472  1.0000
  C   C130      1.0  0.85364  0.39190  0.34342  1.0000
  N   N21       1.0  0.87627  0.40890  0.49253  1.0000
  C   C131      1.0  0.88630  0.43023  0.56386  1.0000
  C   C132      1.0  0.88428  0.46040  0.55884  1.0000
  N   N22       1.0  0.87308  0.46726  0.48170  1.0000
  H   H81       1.0  0.89450  0.42399  0.62056  1.0000
  O   O5        1.0  0.89423  0.48286  0.62859  1.0000
  H   H82       1.0  0.84723  0.48115  0.64927  1.0000
  C   C133      1.0  0.53391  0.39657  0.33122  1.0000
  C   C134      1.0  0.54080  0.41703  0.40862  1.0000
  C   C135      1.0  0.57157  0.44937  0.41479  1.0000
  C   C136      1.0  0.59542  0.46163  0.34358  1.0000
  N   N23       1.0  0.57830  0.46716  0.49263  1.0000
  C   C137      1.0  0.55693  0.45578  0.56388  1.0000
  C   C138      1.0  0.52681  0.42356  0.55874  1.0000
  N   N24       1.0  0.52002  0.40554  0.48156  1.0000
  H   H83       1.0  0.56310  0.47022  0.62059  1.0000
  O   O6        1.0  0.50429  0.41101  0.62835  1.0000
  H   H84       1.0  0.50610  0.36577  0.64918  1.0000
