data_image0
_chemical_formula_structural       C2NH2CHCHCHC3HC3HC4NH4C6N2H6C6N2H6C5H3C6H4C4H3C6H4C6H4C6H4C3HN2H2C3HNC3NH3C3HNC3NH3C2H2C2HC2H2C4H2CHC4H2C2H2C4H2C2H2C4H2C2H2C4H2
_chemical_formula_sum              "C108 N12 H78"
_cell_length_a       31.4904
_cell_length_b       31.4904
_cell_length_c       14.8423
_cell_angle_alpha    90
_cell_angle_beta     90
_cell_angle_gamma    120

_space_group_name_H-M_alt    "P 1"
_space_group_IT_number       1

loop_
  _space_group_symop_operation_xyz
  'x, y, z'

loop_
  _atom_site_type_symbol
  _atom_site_label
  _atom_site_symmetry_multiplicity
  _atom_site_fract_x
  _atom_site_fract_y
  _atom_site_fract_z
  _atom_site_occupancy
  C   C1        1.0  0.03488  0.51993  0.33197  1.0000
  C   C2        1.0  0.06262  0.57102  0.30808  1.0000
  N   N1        1.0  0.04115  0.59295  0.26201  1.0000
  H   H1        1.0  0.05977  0.62662  0.24100  1.0000
  H   H2        1.0  0.00922  0.57354  0.23409  1.0000
  C   C3        1.0  0.06224  0.49779  0.36172  1.0000
  H   H3        1.0  0.04420  0.46159  0.37985  1.0000
  C   C4        1.0  0.11419  0.59881  0.32672  1.0000
  H   H4        1.0  0.12854  0.47682  0.22749  1.0000
  C   C5        1.0  0.11399  0.52262  0.36312  1.0000
  H   H5        1.0  0.12764  0.66214  0.45737  1.0000
  C   C6        1.0  0.14698  0.47722  0.28467  1.0000
  C   C7        1.0  0.14086  0.65139  0.32151  1.0000
  C   C8        1.0  0.17164  0.67535  0.24712  1.0000
  H   H6        1.0  0.16951  0.65567  0.19070  1.0000
  C   C9        1.0  0.14065  0.57437  0.35015  1.0000
  C   C10       1.0  0.13853  0.49469  0.36656  1.0000
  C   C11       1.0  0.16656  0.49667  0.44245  1.0000
  H   H7        1.0  0.16335  0.51179  0.50134  1.0000
  C   C12       1.0  0.14799  0.67885  0.40105  1.0000
  C   C13       1.0  0.98101  0.49062  0.33200  1.0000
  C   C14       1.0  0.90167  0.41177  0.32681  1.0000
  C   C15       1.0  0.95324  0.43953  0.30815  1.0000
  N   N2        1.0  0.97477  0.41756  0.26230  1.0000
  H   H8        1.0  0.00654  0.43709  0.23398  1.0000
  H   H9        1.0  0.95590  0.38400  0.24081  1.0000
  H   H10       1.0  0.21032  0.63500  0.35311  1.0000
  H   H11       1.0  0.80555  0.37561  0.35343  1.0000
  C   C16       1.0  0.52262  0.49303  0.33206  1.0000
  C   C17       1.0  0.60149  0.49259  0.32688  1.0000
  C   C18       1.0  0.57371  0.51638  0.30823  1.0000
  C   C19       1.0  0.49331  0.51760  0.33211  1.0000
  C   C20       1.0  0.44223  0.49428  0.30815  1.0000
  C   C21       1.0  0.41446  0.51809  0.32678  1.0000
  N   N3        1.0  0.59565  0.55980  0.26222  1.0000
  N   N4        1.0  0.42032  0.45086  0.26212  1.0000
  H   H12       1.0  0.57630  0.57240  0.23437  1.0000
  H   H13       1.0  0.62935  0.57485  0.24129  1.0000
  H   H14       1.0  0.38668  0.43601  0.24090  1.0000
  H   H15       1.0  0.43971  0.43837  0.23411  1.0000
  H   H16       1.0  0.37831  0.57807  0.35321  1.0000
  H   H17       1.0  0.63768  0.43265  0.35342  1.0000
  C   C22       1.0  0.52028  0.03225  0.33206  1.0000
  C   C23       1.0  0.52076  0.11158  0.32678  1.0000
  C   C24       1.0  0.49696  0.06001  0.30815  1.0000
  C   C25       1.0  0.49571  0.97837  0.33211  1.0000
  C   C26       1.0  0.51904  0.95060  0.30823  1.0000
  C   C27       1.0  0.49522  0.89903  0.32688  1.0000
  N   N5        1.0  0.45351  0.03852  0.26222  1.0000
  N   N6        1.0  0.56253  0.97211  0.26240  1.0000
  H   H18       1.0  0.44121  0.00669  0.23403  1.0000
  H   H19       1.0  0.43861  0.05722  0.24088  1.0000
  H   H20       1.0  0.57723  0.95327  0.24082  1.0000
  H   H21       1.0  0.57471  0.00387  0.23401  1.0000
  H   H22       1.0  0.43525  0.80291  0.35347  1.0000
  H   H23       1.0  0.58076  0.20771  0.35312  1.0000
  C   C28       1.0  0.36187  0.49219  0.32165  1.0000
  C   C29       1.0  0.33796  0.49903  0.24721  1.0000
  C   C30       1.0  0.28955  0.49011  0.25539  1.0000
  C   C31       1.0  0.26247  0.47283  0.33691  1.0000
  C   C32       1.0  0.18479  0.46581  0.27715  1.0000
  H   H24       1.0  0.19079  0.45562  0.21517  1.0000
  H   H25       1.0  0.35766  0.51659  0.19080  1.0000
  H   H26       1.0  0.27619  0.50106  0.20301  1.0000
  C   C33       1.0  0.52113  0.87234  0.32190  1.0000
  C   C34       1.0  0.51424  0.84156  0.24749  1.0000
  C   C35       1.0  0.52324  0.80212  0.25555  1.0000
  C   C36       1.0  0.54052  0.79231  0.33707  1.0000
  C   C37       1.0  0.54752  0.72163  0.27740  1.0000
  C   C38       1.0  0.53615  0.67242  0.28496  1.0000
  H   H27       1.0  0.55759  0.73776  0.21534  1.0000
  H   H28       1.0  0.53635  0.65434  0.22771  1.0000
  H   H29       1.0  0.49673  0.84369  0.19098  1.0000
  H   H30       1.0  0.51225  0.77778  0.20321  1.0000
  C   C39       1.0  0.21114  0.72375  0.25533  1.0000
  C   C40       1.0  0.22094  0.75081  0.33687  1.0000
  C   C41       1.0  0.29167  0.82847  0.27719  1.0000
  C   C42       1.0  0.34088  0.86626  0.28482  1.0000
  H   H31       1.0  0.27551  0.82248  0.21517  1.0000
  H   H32       1.0  0.35893  0.88468  0.22764  1.0000
  H   H33       1.0  0.23544  0.73711  0.20295  1.0000
  C   C43       1.0  0.65409  0.51852  0.32185  1.0000
  C   C44       1.0  0.67797  0.51164  0.24741  1.0000
  C   C45       1.0  0.72642  0.52065  0.25543  1.0000
  C   C46       1.0  0.75351  0.53792  0.33694  1.0000
  C   C47       1.0  0.83118  0.54492  0.27723  1.0000
  C   C48       1.0  0.86899  0.53351  0.28477  1.0000
  H   H34       1.0  0.82512  0.55500  0.21518  1.0000
  H   H35       1.0  0.88726  0.53371  0.22750  1.0000
  H   H36       1.0  0.65832  0.49413  0.19091  1.0000
  H   H37       1.0  0.73975  0.50966  0.20307  1.0000
  C   C49       1.0  0.49487  0.13827  0.32160  1.0000
  C   C50       1.0  0.50167  0.16904  0.24721  1.0000
  C   C51       1.0  0.49276  0.20853  0.25539  1.0000
  C   C52       1.0  0.47550  0.21833  0.33693  1.0000
  C   C53       1.0  0.46848  0.28900  0.27718  1.0000
  C   C54       1.0  0.47990  0.33822  0.28471  1.0000
  H   H38       1.0  0.45829  0.27280  0.21520  1.0000
  H   H39       1.0  0.47950  0.35625  0.22753  1.0000
  H   H40       1.0  0.51923  0.16691  0.19077  1.0000
  H   H41       1.0  0.50369  0.23283  0.20299  1.0000
  C   C55       1.0  0.87498  0.35917  0.32184  1.0000
  C   C56       1.0  0.84420  0.33527  0.24743  1.0000
  C   C57       1.0  0.80477  0.28682  0.25551  1.0000
  C   C58       1.0  0.79498  0.25974  0.33702  1.0000
  C   C59       1.0  0.72431  0.18205  0.27738  1.0000
  C   C60       1.0  0.67510  0.14421  0.28494  1.0000
  H   H42       1.0  0.74044  0.18811  0.21532  1.0000
  H   H43       1.0  0.65702  0.12592  0.22769  1.0000
  H   H44       1.0  0.84632  0.35491  0.19093  1.0000
  H   H45       1.0  0.78044  0.27348  0.20317  1.0000
  C   C61       1.0  0.95367  0.51280  0.36165  1.0000
  C   C62       1.0  0.90192  0.48799  0.36310  1.0000
  C   C63       1.0  0.87523  0.43623  0.35026  1.0000
  H   H46       1.0  0.97172  0.54899  0.37985  1.0000
  N   N7        1.0  0.82506  0.41091  0.35871  1.0000
  N   N8        1.0  0.19082  0.59972  0.35850  1.0000
  H   H47       1.0  0.20973  0.58389  0.37097  1.0000
  H   H48       1.0  0.80617  0.42675  0.37119  1.0000
  C   C64       1.0  0.50046  0.44353  0.36178  1.0000
  C   C65       1.0  0.52528  0.41659  0.36318  1.0000
  C   C66       1.0  0.57704  0.44169  0.35031  1.0000
  H   H49       1.0  0.46425  0.42537  0.37988  1.0000
  N   N9        1.0  0.60238  0.41686  0.35872  1.0000
  C   C67       1.0  0.43892  0.56898  0.35026  1.0000
  C   C68       1.0  0.49067  0.59404  0.36322  1.0000
  C   C69       1.0  0.51547  0.56709  0.36189  1.0000
  N   N10       1.0  0.41360  0.59384  0.35862  1.0000
  H   H50       1.0  0.55166  0.58523  0.38009  1.0000
  H   H51       1.0  0.42945  0.62857  0.37111  1.0000
  H   H52       1.0  0.58656  0.38212  0.37116  1.0000
  C   C70       1.0  0.56978  0.05958  0.36180  1.0000
  C   C71       1.0  0.59673  0.11134  0.36320  1.0000
  C   C72       1.0  0.57166  0.13802  0.35022  1.0000
  H   H53       1.0  0.58793  0.04153  0.37998  1.0000
  N   N11       1.0  0.59652  0.18819  0.35856  1.0000
  C   C73       1.0  0.44432  0.87260  0.35032  1.0000
  C   C74       1.0  0.41925  0.89929  0.36319  1.0000
  C   C75       1.0  0.44619  0.95103  0.36173  1.0000
  N   N12       1.0  0.41948  0.82243  0.35878  1.0000
  H   H54       1.0  0.42806  0.96910  0.37991  1.0000
  H   H55       1.0  0.38473  0.80353  0.37122  1.0000
  H   H56       1.0  0.63126  0.20708  0.37101  1.0000
  C   C76       1.0  0.28556  0.46176  0.40798  1.0000
  C   C77       1.0  0.33442  0.47184  0.40116  1.0000
  H   H57       1.0  0.26808  0.44911  0.46838  1.0000
  H   H58       1.0  0.35112  0.46819  0.45749  1.0000
  C   C78       1.0  0.21689  0.47290  0.35001  1.0000
  C   C79       1.0  0.20528  0.48656  0.43383  1.0000
  H   H59       1.0  0.22811  0.49449  0.48796  1.0000
  C   C80       1.0  0.55156  0.82646  0.40816  1.0000
  C   C81       1.0  0.54156  0.86529  0.40133  1.0000
  H   H60       1.0  0.56416  0.82159  0.46857  1.0000
  H   H61       1.0  0.54510  0.88554  0.45775  1.0000
  C   C82       1.0  0.54037  0.74662  0.35022  1.0000
  C   C83       1.0  0.51862  0.64651  0.36686  1.0000
  C   C84       1.0  0.51667  0.67257  0.44277  1.0000
  C   C85       1.0  0.52672  0.72137  0.43404  1.0000
  H   H62       1.0  0.50143  0.65416  0.50153  1.0000
  H   H63       1.0  0.51876  0.73625  0.48819  1.0000
  C   C86       1.0  0.18677  0.72771  0.40791  1.0000
  H   H64       1.0  0.19158  0.74516  0.46833  1.0000
  C   C87       1.0  0.26659  0.79638  0.35002  1.0000
  C   C88       1.0  0.36680  0.87479  0.36676  1.0000
  C   C89       1.0  0.34065  0.84670  0.44253  1.0000
  C   C90       1.0  0.29182  0.80798  0.43387  1.0000
  H   H65       1.0  0.35894  0.84989  0.50146  1.0000
  H   H66       1.0  0.27690  0.78516  0.48800  1.0000
  C   C91       1.0  0.73042  0.54896  0.40806  1.0000
  C   C92       1.0  0.68158  0.53895  0.40127  1.0000
  H   H67       1.0  0.74789  0.56155  0.46847  1.0000
  H   H68       1.0  0.66488  0.54247  0.45771  1.0000
  C   C93       1.0  0.79905  0.53777  0.35006  1.0000
  C   C94       1.0  0.87740  0.51593  0.36659  1.0000
  C   C95       1.0  0.84940  0.51403  0.44250  1.0000
  C   C96       1.0  0.81066  0.52411  0.43385  1.0000
  H   H69       1.0  0.85257  0.49881  0.50127  1.0000
  H   H70       1.0  0.78785  0.51617  0.48802  1.0000
  C   C97       1.0  0.46446  0.18418  0.40800  1.0000
  C   C98       1.0  0.47456  0.14541  0.40114  1.0000
  H   H71       1.0  0.45182  0.18900  0.46841  1.0000
  H   H72       1.0  0.47092  0.12506  0.45747  1.0000
  C   C99       1.0  0.47556  0.26398  0.35003  1.0000
  C   C100      1.0  0.49735  0.36412  0.36661  1.0000
  C   C101      1.0  0.49931  0.33807  0.44250  1.0000
  C   C102      1.0  0.48921  0.28924  0.43387  1.0000
  H   H73       1.0  0.51443  0.35639  0.50140  1.0000
  H   H74       1.0  0.49713  0.27433  0.48800  1.0000
  C   C103      1.0  0.82913  0.28285  0.40811  1.0000
  C   C104      1.0  0.86795  0.33169  0.40127  1.0000
  H   H75       1.0  0.82427  0.26539  0.46853  1.0000
  H   H76       1.0  0.88820  0.34841  0.45769  1.0000
  C   C105      1.0  0.74930  0.21420  0.35018  1.0000
  C   C106      1.0  0.64920  0.13584  0.36684  1.0000
  C   C107      1.0  0.67524  0.16385  0.44273  1.0000
  C   C108      1.0  0.72405  0.20261  0.43400  1.0000
  H   H77       1.0  0.65683  0.16070  0.50148  1.0000
  H   H78       1.0  0.73892  0.22545  0.48813  1.0000
