data_image0
_chemical_formula_structural       CNC2NC4NC18H14C2NC16H12C3NC2NC5NC4NC18H14CNC16H12C11H11CNCNC4NC16H13C2NH2NH2C2NH2NH2C2NH2NH2C2NH2NH2C2NH2NH2C2NH2NH2C2NH2NH2C2NH2NH2C2NH2NH2C2NH2NH2C2NH2NH2C2NH2NH2C7NC12H12C2NC3NC3NC18H14C12H12C3NC3NC3NC18H14C3NC3NC2NC5NC20H15C8NC14H13C4NH2NH2C4NH2NH2C4NH2NH2C4NH2NH2C4NH2NH2C4NH2NH2C4NH2NH2C4NH2NH2C4NH2NH2C4NH2NH2C4NH2NH2C4NH2NH2
_chemical_formula_sum              "C336 N72 H252"
_cell_length_a       57.2584
_cell_length_b       57.2586
_cell_length_c       15.0054
_cell_angle_alpha    90.0018
_cell_angle_beta     89.9654
_cell_angle_gamma    120

_space_group_name_H-M_alt    "P 1"
_space_group_IT_number       1

loop_
  _space_group_symop_operation_xyz
  'x, y, z'

loop_
  _atom_site_type_symbol
  _atom_site_label
  _atom_site_symmetry_multiplicity
  _atom_site_fract_x
  _atom_site_fract_y
  _atom_site_fract_z
  _atom_site_occupancy
  C   C1        1.0  0.28583  0.52912  0.33053  1.0000
  N   N1        1.0  0.27693  0.48732  0.33347  1.0000
  C   C2        1.0  0.30430  0.50246  0.33468  1.0000
  C   C3        1.0  0.32437  0.49458  0.33470  1.0000
  N   N2        1.0  0.29364  0.44452  0.33538  1.0000
  C   C4        1.0  0.29542  0.42181  0.33684  1.0000
  C   C5        1.0  0.32299  0.43066  0.34062  1.0000
  C   C6        1.0  0.33691  0.45835  0.33564  1.0000
  C   C7        1.0  0.27423  0.39439  0.33463  1.0000
  N   N3        1.0  0.23404  0.40143  0.33363  1.0000
  C   C8        1.0  0.20669  0.38627  0.33390  1.0000
  C   C9        1.0  0.22516  0.35960  0.33155  1.0000
  C   C10       1.0  0.21554  0.46711  0.33147  1.0000
  C   C11       1.0  0.23670  0.49450  0.33236  1.0000
  C   C12       1.0  0.22950  0.51528  0.33508  1.0000
  C   C13       1.0  0.21387  0.51799  0.26712  1.0000
  C   C14       1.0  0.20704  0.53842  0.27077  1.0000
  C   C15       1.0  0.21857  0.55919  0.33549  1.0000
  C   C16       1.0  0.14697  0.35390  0.26804  1.0000
  C   C17       1.0  0.11952  0.33400  0.27167  1.0000
  C   C18       1.0  0.28168  0.37383  0.33208  1.0000
  C   C19       1.0  0.29995  0.33535  0.33219  1.0000
  C   C20       1.0  0.30840  0.35564  0.26588  1.0000
  C   C21       1.0  0.29811  0.37333  0.26256  1.0000
  C   C22       1.0  0.35234  0.51539  0.33228  1.0000
  C   C23       1.0  0.36236  0.53443  0.26210  1.0000
  C   C24       1.0  0.38858  0.55682  0.26550  1.0000
  C   C25       1.0  0.40718  0.55929  0.33237  1.0000
  H   H1        1.0  0.39399  0.57134  0.21758  1.0000
  H   H2        1.0  0.34992  0.53333  0.21132  1.0000
  H   H3        1.0  0.28474  0.54636  0.32718  1.0000
  H   H4        1.0  0.26727  0.46797  0.33354  1.0000
  H   H5        1.0  0.24371  0.42078  0.33354  1.0000
  H   H6        1.0  0.35745  0.46966  0.33443  1.0000
  H   H7        1.0  0.33216  0.41932  0.34427  1.0000
  H   H8        1.0  0.30440  0.38727  0.21228  1.0000
  H   H9        1.0  0.32217  0.35773  0.21849  1.0000
  H   H10       1.0  0.22630  0.34240  0.32913  1.0000
  H   H11       1.0  0.15844  0.35347  0.21641  1.0000
  H   H12       1.0  0.11204  0.31948  0.22326  1.0000
  H   H13       1.0  0.19489  0.53898  0.22185  1.0000
  H   H14       1.0  0.20685  0.50468  0.21501  1.0000
  C   C26       1.0  0.53740  0.75661  0.33059  1.0000
  C   C27       1.0  0.56405  0.80175  0.33512  1.0000
  N   N4        1.0  0.62198  0.84903  0.33586  1.0000
  C   C28       1.0  0.64469  0.87352  0.33731  1.0000
  C   C29       1.0  0.63584  0.89225  0.34120  1.0000
  C   C30       1.0  0.60815  0.87847  0.33634  1.0000
  C   C31       1.0  0.67211  0.87976  0.33496  1.0000
  C   C32       1.0  0.68025  0.82035  0.33412  1.0000
  C   C33       1.0  0.70691  0.86549  0.33151  1.0000
  C   C34       1.0  0.59942  0.74835  0.33190  1.0000
  C   C35       1.0  0.54858  0.69580  0.26751  1.0000
  C   C36       1.0  0.52814  0.66853  0.27117  1.0000
  C   C37       1.0  0.71266  0.79301  0.26848  1.0000
  C   C38       1.0  0.73255  0.78544  0.27211  1.0000
  C   C39       1.0  0.69267  0.90777  0.33241  1.0000
  C   C40       1.0  0.71086  0.95267  0.26621  1.0000
  C   C41       1.0  0.69318  0.92469  0.26286  1.0000
  C   C42       1.0  0.53210  0.82783  0.26261  1.0000
  C   C43       1.0  0.50973  0.83170  0.26585  1.0000
  H   H15       1.0  0.49525  0.82262  0.21781  1.0000
  H   H16       1.0  0.53327  0.81655  0.21172  1.0000
  H   H17       1.0  0.52017  0.73829  0.32739  1.0000
  H   H18       1.0  0.59684  0.88770  0.33508  1.0000
  H   H19       1.0  0.64718  0.91276  0.34479  1.0000
  H   H20       1.0  0.67923  0.91704  0.21267  1.0000
  H   H21       1.0  0.70878  0.96435  0.21881  1.0000
  H   H22       1.0  0.72412  0.88385  0.32947  1.0000
  H   H23       1.0  0.71309  0.80488  0.21680  1.0000
  H   H24       1.0  0.74707  0.79247  0.22367  1.0000
  H   H25       1.0  0.52759  0.65583  0.22227  1.0000
  H   H26       1.0  0.56189  0.70207  0.21540  1.0000
  C   C44       1.0  0.28595  0.75675  0.33570  1.0000
  C   C45       1.0  0.30990  0.78072  0.32973  1.0000
  C   C46       1.0  0.30436  0.80188  0.33176  1.0000
  N   N5        1.0  0.27699  0.78960  0.33305  1.0000
  C   C47       1.0  0.26476  0.76223  0.33422  1.0000
  C   C48       1.0  0.23681  0.74216  0.33442  1.0000
  N   N6        1.0  0.21748  0.77289  0.33502  1.0000
  C   C49       1.0  0.19299  0.77111  0.33654  1.0000
  C   C50       1.0  0.17426  0.74353  0.34052  1.0000
  C   C51       1.0  0.18804  0.72962  0.33565  1.0000
  C   C52       1.0  0.18675  0.79229  0.33414  1.0000
  C   C53       1.0  0.20663  0.82025  0.33271  1.0000
  N   N7        1.0  0.23398  0.83248  0.33303  1.0000
  C   C54       1.0  0.24617  0.85983  0.33325  1.0000
  C   C55       1.0  0.22501  0.86537  0.33504  1.0000
  C   C56       1.0  0.20103  0.84136  0.33054  1.0000
  C   C57       1.0  0.27412  0.87975  0.33216  1.0000
  N   N8        1.0  0.29360  0.84908  0.33119  1.0000
  C   C58       1.0  0.31817  0.85100  0.33123  1.0000
  C   C59       1.0  0.32440  0.82984  0.33203  1.0000
  C   C60       1.0  0.35237  0.83703  0.33488  1.0000
  C   C61       1.0  0.37076  0.85271  0.26704  1.0000
  C   C62       1.0  0.39803  0.85953  0.27081  1.0000
  C   C63       1.0  0.40721  0.84795  0.33558  1.0000
  C   C64       1.0  0.28152  0.90774  0.33514  1.0000
  C   C65       1.0  0.27356  0.91960  0.26772  1.0000
  C   C66       1.0  0.28107  0.94704  0.27153  1.0000
  C   C67       1.0  0.29982  0.96449  0.33574  1.0000
  C   C68       1.0  0.15875  0.78485  0.33158  1.0000
  C   C69       1.0  0.10200  0.76656  0.33174  1.0000
  C   C70       1.0  0.11385  0.75810  0.26552  1.0000
  C   C71       1.0  0.14183  0.76840  0.26214  1.0000
  C   C72       1.0  0.22965  0.71419  0.33203  1.0000
  C   C73       1.0  0.23865  0.70418  0.26176  1.0000
  C   C74       1.0  0.23484  0.67797  0.26518  1.0000
  C   C75       1.0  0.21871  0.65935  0.33209  1.0000
  H   H27       1.0  0.24394  0.67256  0.21720  1.0000
  H   H28       1.0  0.25000  0.71664  0.21098  1.0000
  H   H29       1.0  0.32822  0.78181  0.32663  1.0000
  H   H30       1.0  0.26730  0.79926  0.33341  1.0000
  H   H31       1.0  0.24367  0.82282  0.33325  1.0000
  H   H32       1.0  0.17881  0.70908  0.33444  1.0000
  H   H33       1.0  0.15375  0.73437  0.34417  1.0000
  H   H34       1.0  0.14948  0.76208  0.21193  1.0000
  H   H35       1.0  0.10217  0.74431  0.21821  1.0000
  H   H36       1.0  0.18268  0.84022  0.32831  1.0000
  H   H37       1.0  0.26174  0.90818  0.21596  1.0000
  H   H38       1.0  0.27411  0.95456  0.22298  1.0000
  H   H39       1.0  0.41077  0.87172  0.22199  1.0000
  H   H40       1.0  0.36453  0.85978  0.21493  1.0000
  C   C76       1.0  0.78444  0.54186  0.33536  1.0000
  N   N9        1.0  0.79512  0.59979  0.33621  1.0000
  C   C77       1.0  0.79334  0.62251  0.33763  1.0000
  C   C78       1.0  0.76576  0.61367  0.34148  1.0000
  C   C79       1.0  0.75184  0.58597  0.33666  1.0000
  C   C80       1.0  0.81452  0.64993  0.33525  1.0000
  C   C81       1.0  0.88206  0.65803  0.33428  1.0000
  C   C82       1.0  0.86361  0.68471  0.33195  1.0000
  C   C83       1.0  0.87321  0.57720  0.33193  1.0000
  C   C84       1.0  0.87489  0.52633  0.26758  1.0000
  C   C85       1.0  0.88168  0.50586  0.27118  1.0000
  C   C86       1.0  0.94178  0.69042  0.26830  1.0000
  C   C87       1.0  0.96923  0.71035  0.27191  1.0000
  C   C88       1.0  0.80709  0.67049  0.33263  1.0000
  C   C89       1.0  0.78039  0.68866  0.26636  1.0000
  C   C90       1.0  0.79073  0.67101  0.26296  1.0000
  C   C91       1.0  0.72641  0.50992  0.26287  1.0000
  C   C92       1.0  0.70019  0.48753  0.26624  1.0000
  H   H41       1.0  0.69480  0.47303  0.21826  1.0000
  H   H42       1.0  0.73887  0.51104  0.21206  1.0000
  H   H43       1.0  0.80400  0.49796  0.32771  1.0000
  H   H44       1.0  0.73131  0.57467  0.33511  1.0000
  H   H45       1.0  0.75660  0.62502  0.34483  1.0000
  H   H46       1.0  0.78439  0.65702  0.21288  1.0000
  H   H47       1.0  0.76662  0.68655  0.21899  1.0000
  H   H48       1.0  0.86246  0.70193  0.32986  1.0000
  H   H49       1.0  0.93032  0.69084  0.21672  1.0000
  H   H50       1.0  0.97670  0.72484  0.22338  1.0000
  H   H51       1.0  0.89389  0.50535  0.22236  1.0000
  H   H52       1.0  0.88194  0.53964  0.21549  1.0000
  C   C93       1.0  0.44404  0.17077  0.33780  1.0000
  C   C94       1.0  0.45289  0.15204  0.34158  1.0000
  C   C95       1.0  0.48058  0.16582  0.33666  1.0000
  C   C96       1.0  0.54023  0.34850  0.26812  1.0000
  C   C97       1.0  0.56066  0.37577  0.27175  1.0000
  C   C98       1.0  0.37615  0.25130  0.26867  1.0000
  C   C99       1.0  0.35625  0.25886  0.27216  1.0000
  C   C100      1.0  0.37792  0.09168  0.26626  1.0000
  C   C101      1.0  0.39561  0.11967  0.26314  1.0000
  C   C102      1.0  0.55666  0.21647  0.26309  1.0000
  C   C103      1.0  0.57905  0.21264  0.26642  1.0000
  H   H53       1.0  0.59356  0.22176  0.21846  1.0000
  H   H54       1.0  0.55555  0.22782  0.21234  1.0000
  H   H55       1.0  0.56859  0.30599  0.32829  1.0000
  H   H56       1.0  0.49189  0.15659  0.33545  1.0000
  H   H57       1.0  0.40957  0.12736  0.21294  1.0000
  H   H58       1.0  0.38004  0.08004  0.21880  1.0000
  H   H59       1.0  0.36462  0.16048  0.33005  1.0000
  H   H60       1.0  0.37575  0.23941  0.21709  1.0000
  H   H61       1.0  0.34175  0.25181  0.22371  1.0000
  H   H62       1.0  0.56122  0.38848  0.22281  1.0000
  H   H63       1.0  0.52694  0.34223  0.21600  1.0000
  C   C104      1.0  0.77884  0.26358  0.33051  1.0000
  N   N10       1.0  0.81175  0.25470  0.33378  1.0000
  C   C105      1.0  0.82398  0.28207  0.33498  1.0000
  N   N11       1.0  0.87125  0.27142  0.33566  1.0000
  C   C106      1.0  0.89575  0.27320  0.33710  1.0000
  C   C107      1.0  0.91447  0.30078  0.34100  1.0000
  C   C108      1.0  0.90069  0.31469  0.33615  1.0000
  C   C109      1.0  0.90199  0.25203  0.33474  1.0000
  N   N12       1.0  0.85477  0.21183  0.33360  1.0000
  C   C110      1.0  0.84258  0.18448  0.33390  1.0000
  C   C111      1.0  0.88772  0.20295  0.33126  1.0000
  C   C112      1.0  0.77058  0.19330  0.33186  1.0000
  C   C113      1.0  0.76435  0.21446  0.33270  1.0000
  C   C114      1.0  0.71800  0.19160  0.26771  1.0000
  C   C115      1.0  0.69074  0.18477  0.27151  1.0000
  C   C116      1.0  0.68154  0.19635  0.33624  1.0000
  C   C117      1.0  0.81524  0.12474  0.26825  1.0000
  C   C118      1.0  0.80768  0.09728  0.27189  1.0000
  C   C119      1.0  0.93000  0.25948  0.33219  1.0000
  C   C120      1.0  0.98675  0.27777  0.33225  1.0000
  C   C121      1.0  0.97491  0.28621  0.26600  1.0000
  C   C122      1.0  0.94693  0.27590  0.26264  1.0000
  C   C123      1.0  0.85909  0.33012  0.33269  1.0000
  C   C124      1.0  0.85007  0.34013  0.26252  1.0000
  C   C125      1.0  0.85393  0.36636  0.26582  1.0000
  H   H64       1.0  0.84486  0.37178  0.21781  1.0000
  H   H65       1.0  0.83879  0.32770  0.21162  1.0000
  H   H66       1.0  0.76052  0.26249  0.32735  1.0000
  H   H67       1.0  0.82144  0.24504  0.33404  1.0000
  H   H68       1.0  0.90992  0.33523  0.33490  1.0000
  H   H69       1.0  0.93499  0.30995  0.34459  1.0000
  H   H70       1.0  0.93928  0.28222  0.21246  1.0000
  H   H71       1.0  0.98659  0.29998  0.21860  1.0000
  H   H72       1.0  0.90608  0.20411  0.32921  1.0000
  H   H73       1.0  0.82711  0.13619  0.21656  1.0000
  H   H74       1.0  0.81471  0.08980  0.22344  1.0000
  H   H75       1.0  0.67802  0.17261  0.22265  1.0000
  H   H76       1.0  0.72426  0.18456  0.21557  1.0000
  C   C126      1.0  0.21707  0.59651  0.25216  1.0000
  C   C127      1.0  0.21084  0.61770  0.25363  1.0000
  N   N13       1.0  0.22652  0.59170  0.17464  1.0000
  H   H77       1.0  0.23532  0.58100  0.17412  1.0000
  H   H78       1.0  0.23066  0.60351  0.12335  1.0000
  N   N14       1.0  0.20126  0.62355  0.17851  1.0000
  H   H79       1.0  0.19394  0.63561  0.18085  1.0000
  H   H80       1.0  0.19581  0.61170  0.12693  1.0000
  C   C128      1.0  0.47003  0.62050  0.25249  1.0000
  C   C129      1.0  0.44885  0.59308  0.25392  1.0000
  N   N15       1.0  0.47488  0.63478  0.17498  1.0000
  H   H81       1.0  0.48560  0.65428  0.17448  1.0000
  H   H82       1.0  0.46311  0.62711  0.12366  1.0000
  N   N16       1.0  0.44300  0.57769  0.17868  1.0000
  H   H83       1.0  0.43105  0.55829  0.18155  1.0000
  H   H84       1.0  0.45492  0.58405  0.12727  1.0000
  C   C130      1.0  0.44611  0.84952  0.25249  1.0000
  C   C131      1.0  0.47353  0.85577  0.25409  1.0000
  N   N17       1.0  0.43191  0.84010  0.17489  1.0000
  H   H85       1.0  0.41241  0.83130  0.17426  1.0000
  H   H86       1.0  0.43963  0.83601  0.12363  1.0000
  N   N18       1.0  0.48900  0.86530  0.17893  1.0000
  H   H87       1.0  0.50840  0.87284  0.18206  1.0000
  H   H88       1.0  0.48264  0.87102  0.12795  1.0000
  C   C132      1.0  0.87170  0.44779  0.25271  1.0000
  C   C133      1.0  0.87798  0.42664  0.25425  1.0000
  N   N19       1.0  0.86237  0.45268  0.17506  1.0000
  H   H89       1.0  0.85335  0.46317  0.17516  1.0000
  H   H90       1.0  0.85810  0.44067  0.12429  1.0000
  N   N20       1.0  0.88761  0.42080  0.17918  1.0000
  H   H91       1.0  0.89493  0.40874  0.18157  1.0000
  H   H92       1.0  0.89308  0.43265  0.12758  1.0000
  C   C134      1.0  0.61875  0.42385  0.25317  1.0000
  C   C135      1.0  0.63992  0.45126  0.25463  1.0000
  N   N21       1.0  0.61395  0.40960  0.17566  1.0000
  H   H93       1.0  0.60325  0.39009  0.17514  1.0000
  H   H94       1.0  0.62577  0.41728  0.12437  1.0000
  N   N22       1.0  0.64579  0.46670  0.17949  1.0000
  H   H95       1.0  0.65785  0.48609  0.18183  1.0000
  H   H96       1.0  0.63396  0.46032  0.12790  1.0000
  C   C136      1.0  0.64271  0.19485  0.25307  1.0000
  C   C137      1.0  0.61529  0.18861  0.25463  1.0000
  N   N23       1.0  0.65695  0.20428  0.17551  1.0000
  H   H97       1.0  0.67646  0.21307  0.17492  1.0000
  H   H98       1.0  0.64927  0.20839  0.12423  1.0000
  N   N24       1.0  0.59987  0.17908  0.17945  1.0000
  H   H99       1.0  0.58047  0.17162  0.18240  1.0000
  H   H100      1.0  0.60621  0.17353  0.12800  1.0000
  C   C138      1.0  0.05821  0.31176  0.25232  1.0000
  C   C139      1.0  0.03016  0.29234  0.25383  1.0000
  N   N25       1.0  0.06924  0.32543  0.17477  1.0000
  H   H101      1.0  0.08670  0.34175  0.17416  1.0000
  H   H102      1.0  0.05801  0.32336  0.12344  1.0000
  N   N26       1.0  0.01776  0.27804  0.17855  1.0000
  H   H103      1.0  0.99966  0.26257  0.18157  1.0000
  H   H104      1.0  0.02839  0.27841  0.12749  1.0000
  C   C140      1.0  0.75476  0.74635  0.25274  1.0000
  C   C141      1.0  0.77420  0.73775  0.25424  1.0000
  N   N27       1.0  0.74116  0.74381  0.17510  1.0000
  H   H105      1.0  0.72471  0.74470  0.17518  1.0000
  H   H106      1.0  0.74314  0.73441  0.12429  1.0000
  N   N28       1.0  0.78858  0.73975  0.17907  1.0000
  H   H107      1.0  0.80391  0.73687  0.18138  1.0000
  H   H108      1.0  0.78807  0.74971  0.12735  1.0000
  C   C142      1.0  0.32020  0.00835  0.25230  1.0000
  C   C143      1.0  0.32884  0.03640  0.25387  1.0000
  N   N29       1.0  0.32287  0.99735  0.17474  1.0000
  H   H109      1.0  0.32172  0.97989  0.17412  1.0000
  H   H110      1.0  0.33208  0.00861  0.12347  1.0000
  N   N30       1.0  0.32690  0.04881  0.17871  1.0000
  H   H111      1.0  0.32978  0.06702  0.18107  1.0000
  H   H112      1.0  0.31696  0.03836  0.12696  1.0000
  C   C144      1.0  0.03052  0.73251  0.25217  1.0000
  C   C145      1.0  0.05857  0.75192  0.25351  1.0000
  N   N31       1.0  0.01947  0.71884  0.17470  1.0000
  H   H113      1.0  0.00201  0.70253  0.17420  1.0000
  H   H114      1.0  0.03069  0.72087  0.12331  1.0000
  N   N32       1.0  0.07094  0.76621  0.17815  1.0000
  H   H115      1.0  0.08909  0.78163  0.18092  1.0000
  H   H116      1.0  0.06045  0.76577  0.12665  1.0000
  C   C146      1.0  0.33400  0.29792  0.25253  1.0000
  C   C147      1.0  0.31457  0.30653  0.25392  1.0000
  N   N33       1.0  0.34770  0.30056  0.17504  1.0000
  H   H117      1.0  0.36402  0.29943  0.17450  1.0000
  H   H118      1.0  0.34565  0.30972  0.12366  1.0000
  N   N34       1.0  0.30030  0.30464  0.17859  1.0000
  H   H119      1.0  0.28483  0.30726  0.18152  1.0000
  H   H120      1.0  0.30069  0.29438  0.12756  1.0000
  C   C148      1.0  0.76859  0.03598  0.25255  1.0000
  C   C149      1.0  0.75998  0.00793  0.25409  1.0000
  N   N35       1.0  0.76606  0.04704  0.17490  1.0000
  H   H121      1.0  0.76695  0.06438  0.17497  1.0000
  H   H122      1.0  0.75666  0.03567  0.12411  1.0000
  N   N36       1.0  0.76197  0.99555  0.17893  1.0000
  H   H123      1.0  0.75909  0.97734  0.18127  1.0000
  H   H124      1.0  0.77195  0.00603  0.12721  1.0000
  C   C150      1.0  0.30979  0.52914  0.33630  1.0000
  C   C151      1.0  0.26466  0.50242  0.33227  1.0000
  C   C152      1.0  0.31818  0.46720  0.33548  1.0000
  C   C153      1.0  0.24628  0.38631  0.33341  1.0000
  C   C154      1.0  0.20115  0.35958  0.33596  1.0000
  C   C155      1.0  0.18679  0.39432  0.33257  1.0000
  C   C156      1.0  0.19298  0.42172  0.33013  1.0000
  N   N37       1.0  0.21746  0.44446  0.33157  1.0000
  C   C157      1.0  0.18795  0.45822  0.33137  1.0000
  C   C158      1.0  0.17422  0.43053  0.32622  1.0000
  C   C159      1.0  0.23473  0.55668  0.40219  1.0000
  C   C160      1.0  0.23857  0.53430  0.40530  1.0000
  C   C161      1.0  0.15879  0.37373  0.33544  1.0000
  C   C162      1.0  0.10203  0.33529  0.33585  1.0000
  C   C163      1.0  0.11393  0.35560  0.40199  1.0000
  C   C164      1.0  0.14192  0.37327  0.40512  1.0000
  C   C165      1.0  0.27366  0.35404  0.39969  1.0000
  C   C166      1.0  0.28117  0.33410  0.39626  1.0000
  C   C167      1.0  0.37060  0.51806  0.40044  1.0000
  C   C168      1.0  0.39788  0.53849  0.39706  1.0000
  H   H125      1.0  0.41053  0.53902  0.44610  1.0000
  H   H126      1.0  0.36428  0.50473  0.45250  1.0000
  H   H127      1.0  0.32809  0.54640  0.33960  1.0000
  H   H128      1.0  0.26175  0.35364  0.45122  1.0000
  H   H129      1.0  0.27413  0.31964  0.44486  1.0000
  H   H130      1.0  0.18281  0.34235  0.33794  1.0000
  H   H131      1.0  0.17869  0.46949  0.33263  1.0000
  H   H132      1.0  0.15371  0.41915  0.32284  1.0000
  H   H133      1.0  0.14961  0.38727  0.45519  1.0000
  H   H134      1.0  0.10229  0.35774  0.44941  1.0000
  H   H135      1.0  0.24990  0.53315  0.45601  1.0000
  H   H136      1.0  0.24386  0.57118  0.45014  1.0000
  C   C169      1.0  0.53737  0.78055  0.33674  1.0000
  C   C170      1.0  0.56410  0.76215  0.33256  1.0000
  N   N38       1.0  0.57920  0.78953  0.33389  1.0000
  C   C171      1.0  0.57193  0.82970  0.33524  1.0000
  C   C172      1.0  0.59930  0.85089  0.33608  1.0000
  C   C173      1.0  0.68020  0.85989  0.33358  1.0000
  N   N39       1.0  0.66509  0.83254  0.33382  1.0000
  C   C174      1.0  0.70694  0.84151  0.33606  1.0000
  C   C175      1.0  0.67222  0.79241  0.33296  1.0000
  C   C176      1.0  0.64481  0.77119  0.33063  1.0000
  N   N40       1.0  0.62207  0.77292  0.33197  1.0000
  C   C177      1.0  0.60832  0.72966  0.33175  1.0000
  C   C178      1.0  0.63601  0.74362  0.32693  1.0000
  C   C179      1.0  0.57203  0.74212  0.33270  1.0000
  C   C180      1.0  0.55125  0.71414  0.33543  1.0000
  C   C181      1.0  0.50733  0.65931  0.33585  1.0000
  C   C182      1.0  0.50981  0.67799  0.40249  1.0000
  C   C183      1.0  0.53223  0.70419  0.40571  1.0000
  C   C184      1.0  0.69280  0.78501  0.33588  1.0000
  C   C185      1.0  0.73125  0.76669  0.33634  1.0000
  C   C186      1.0  0.71092  0.75829  0.40251  1.0000
  C   C187      1.0  0.69325  0.76860  0.40557  1.0000
  C   C188      1.0  0.71245  0.91954  0.39999  1.0000
  C   C189      1.0  0.73236  0.94700  0.39660  1.0000
  C   C190      1.0  0.73114  0.96452  0.33246  1.0000
  C   C191      1.0  0.55111  0.83686  0.33280  1.0000
  C   C192      1.0  0.54840  0.85243  0.40099  1.0000
  C   C193      1.0  0.50722  0.84781  0.33273  1.0000
  C   C194      1.0  0.52796  0.85926  0.39756  1.0000
  H   H137      1.0  0.52743  0.87140  0.44659  1.0000
  H   H138      1.0  0.56171  0.85943  0.45307  1.0000
  H   H139      1.0  0.52011  0.78159  0.33984  1.0000
  H   H140      1.0  0.59855  0.79922  0.33412  1.0000
  H   H141      1.0  0.64573  0.82285  0.33391  1.0000
  H   H142      1.0  0.71283  0.90804  0.45152  1.0000
  H   H143      1.0  0.74685  0.95444  0.44509  1.0000
  H   H144      1.0  0.72417  0.84041  0.33830  1.0000
  H   H145      1.0  0.59704  0.70913  0.33317  1.0000
  H   H146      1.0  0.64739  0.73449  0.32335  1.0000
  H   H147      1.0  0.67926  0.76232  0.45572  1.0000
  H   H148      1.0  0.70877  0.74452  0.44996  1.0000
  H   H149      1.0  0.53331  0.71671  0.45624  1.0000
  H   H150      1.0  0.49528  0.67264  0.45036  1.0000
  C   C195      1.0  0.21561  0.74835  0.33530  1.0000
  C   C196      1.0  0.29533  0.87355  0.32991  1.0000
  C   C197      1.0  0.33686  0.87858  0.33117  1.0000
  C   C198      1.0  0.32290  0.89232  0.32637  1.0000
  C   C199      1.0  0.38849  0.83176  0.40216  1.0000
  C   C200      1.0  0.36227  0.82792  0.40515  1.0000
  C   C201      1.0  0.30819  0.95254  0.40189  1.0000
  C   C202      1.0  0.29783  0.92455  0.40501  1.0000
  C   C203      1.0  0.14697  0.79289  0.39910  1.0000
  C   C204      1.0  0.11952  0.78537  0.39569  1.0000
  C   C205      1.0  0.21407  0.69592  0.40026  1.0000
  C   C206      1.0  0.20727  0.66866  0.39695  1.0000
  H   H151      1.0  0.19510  0.65598  0.44594  1.0000
  H   H152      1.0  0.20707  0.70224  0.45236  1.0000
  H   H153      1.0  0.28491  0.73845  0.33901  1.0000
  H   H154      1.0  0.15846  0.80479  0.45062  1.0000
  H   H155      1.0  0.11207  0.79239  0.44427  1.0000
  H   H156      1.0  0.22612  0.88371  0.33717  1.0000
  H   H157      1.0  0.35740  0.88785  0.33277  1.0000
  H   H158      1.0  0.33204  0.91284  0.32290  1.0000
  H   H159      1.0  0.30415  0.91685  0.45500  1.0000
  H   H160      1.0  0.32195  0.96416  0.44933  1.0000
  H   H161      1.0  0.34972  0.81653  0.45571  1.0000
  H   H162      1.0  0.39381  0.82258  0.45010  1.0000
  C   C207      1.0  0.77895  0.51518  0.33697  1.0000
  C   C208      1.0  0.80292  0.51520  0.33095  1.0000
  C   C209      1.0  0.82408  0.54189  0.33278  1.0000
  N   N41       1.0  0.81181  0.55700  0.33410  1.0000
  C   C210      1.0  0.76438  0.54974  0.33550  1.0000
  C   C211      1.0  0.77057  0.57712  0.33638  1.0000
  C   C212      1.0  0.84248  0.65800  0.33390  1.0000
  N   N42       1.0  0.85471  0.64288  0.33404  1.0000
  C   C213      1.0  0.88761  0.68473  0.33634  1.0000
  C   C214      1.0  0.90197  0.65000  0.33295  1.0000
  C   C215      1.0  0.89577  0.62259  0.33053  1.0000
  N   N43       1.0  0.87130  0.59985  0.33198  1.0000
  C   C216      1.0  0.90079  0.58609  0.33168  1.0000
  C   C217      1.0  0.91453  0.61378  0.32668  1.0000
  C   C218      1.0  0.85205  0.54981  0.33283  1.0000
  C   C219      1.0  0.85924  0.52902  0.33555  1.0000
  C   C220      1.0  0.87016  0.48511  0.33600  1.0000
  C   C221      1.0  0.85398  0.48762  0.40270  1.0000
  C   C222      1.0  0.85015  0.51000  0.40582  1.0000
  C   C223      1.0  0.92996  0.67058  0.33574  1.0000
  C   C224      1.0  0.98671  0.70903  0.33595  1.0000
  C   C225      1.0  0.97481  0.68871  0.40212  1.0000
  C   C226      1.0  0.94683  0.67105  0.40537  1.0000
  C   C227      1.0  0.81507  0.69027  0.40021  1.0000
  C   C228      1.0  0.80757  0.71022  0.39668  1.0000
  C   C229      1.0  0.78881  0.70895  0.33259  1.0000
  C   C230      1.0  0.73641  0.52894  0.33309  1.0000
  C   C231      1.0  0.71812  0.52624  0.40128  1.0000
  C   C232      1.0  0.68156  0.48504  0.33311  1.0000
  C   C233      1.0  0.69086  0.50578  0.39794  1.0000
  H   H163      1.0  0.67817  0.50527  0.44689  1.0000
  H   H164      1.0  0.72442  0.53957  0.45332  1.0000
  H   H165      1.0  0.76065  0.49792  0.34025  1.0000
  H   H166      1.0  0.82148  0.57635  0.33424  1.0000
  H   H167      1.0  0.84504  0.62353  0.33398  1.0000
  H   H168      1.0  0.82694  0.69066  0.45180  1.0000
  H   H169      1.0  0.81456  0.72467  0.44529  1.0000
  H   H170      1.0  0.90595  0.70196  0.33853  1.0000
  H   H171      1.0  0.91005  0.57481  0.33328  1.0000
  H   H172      1.0  0.93505  0.62515  0.32338  1.0000
  H   H173      1.0  0.93914  0.65705  0.45546  1.0000
  H   H174      1.0  0.98646  0.68657  0.44946  1.0000
  H   H175      1.0  0.83878  0.51115  0.45647  1.0000
  H   H176      1.0  0.84482  0.47311  0.45066  1.0000
  C   C234      1.0  0.55137  0.26373  0.33742  1.0000
  C   C235      1.0  0.55135  0.28768  0.33165  1.0000
  C   C236      1.0  0.52465  0.28214  0.33335  1.0000
  N   N44       1.0  0.50955  0.25477  0.33457  1.0000
  C   C237      1.0  0.52469  0.24253  0.33579  1.0000
  C   C238      1.0  0.51681  0.21458  0.33578  1.0000
  C   C239      1.0  0.48943  0.19339  0.33654  1.0000
  N   N45       1.0  0.46675  0.19527  0.33642  1.0000
  C   C240      1.0  0.41662  0.16454  0.33552  1.0000
  C   C241      1.0  0.40854  0.18441  0.33432  1.0000
  N   N46       1.0  0.42366  0.21177  0.33455  1.0000
  C   C242      1.0  0.40850  0.22396  0.33479  1.0000
  C   C243      1.0  0.38181  0.20281  0.33686  1.0000
  C   C244      1.0  0.38183  0.17883  0.33247  1.0000
  C   C245      1.0  0.41655  0.25191  0.33341  1.0000
  C   C246      1.0  0.44395  0.27312  0.33101  1.0000
  N   N47       1.0  0.46669  0.27138  0.33254  1.0000
  C   C247      1.0  0.48934  0.29595  0.33246  1.0000
  C   C248      1.0  0.48045  0.31464  0.33229  1.0000
  C   C249      1.0  0.45276  0.30069  0.32707  1.0000
  C   C250      1.0  0.51673  0.30218  0.33341  1.0000
  C   C251      1.0  0.53751  0.33016  0.33611  1.0000
  C   C252      1.0  0.58142  0.38500  0.33649  1.0000
  C   C253      1.0  0.57890  0.36633  0.40321  1.0000
  C   C254      1.0  0.55652  0.34011  0.40633  1.0000
  C   C255      1.0  0.39596  0.25932  0.33614  1.0000
  C   C256      1.0  0.35751  0.27763  0.33626  1.0000
  C   C257      1.0  0.37780  0.28604  0.40247  1.0000
  C   C258      1.0  0.39547  0.27572  0.40575  1.0000
  C   C259      1.0  0.39606  0.13653  0.33278  1.0000
  C   C260      1.0  0.37624  0.12470  0.40029  1.0000
  C   C261      1.0  0.35631  0.09725  0.39665  1.0000
  C   C262      1.0  0.35759  0.07978  0.33243  1.0000
  C   C263      1.0  0.53762  0.20742  0.33331  1.0000
  C   C264      1.0  0.54029  0.19181  0.40143  1.0000
  C   C265      1.0  0.58152  0.19649  0.33323  1.0000
  C   C266      1.0  0.56073  0.18498  0.39797  1.0000
  H   H177      1.0  0.56125  0.17284  0.44698  1.0000
  H   H178      1.0  0.52696  0.18479  0.45350  1.0000
  H   H179      1.0  0.56863  0.26268  0.34072  1.0000
  H   H180      1.0  0.49020  0.24508  0.33462  1.0000
  H   H181      1.0  0.44301  0.22146  0.33440  1.0000
  H   H182      1.0  0.44154  0.13153  0.34516  1.0000
  H   H183      1.0  0.37582  0.13616  0.45190  1.0000
  H   H184      1.0  0.34182  0.08978  0.44520  1.0000
  H   H185      1.0  0.36458  0.20393  0.33882  1.0000
  H   H186      1.0  0.49172  0.33518  0.33354  1.0000
  H   H187      1.0  0.44139  0.30983  0.32362  1.0000
  H   H188      1.0  0.40944  0.28203  0.45586  1.0000
  H   H189      1.0  0.37992  0.29982  0.44984  1.0000
  H   H190      1.0  0.55537  0.32762  0.45707  1.0000
  H   H191      1.0  0.59339  0.37169  0.45117  1.0000
  C   C267      1.0  0.80277  0.28755  0.33662  1.0000
  C   C268      1.0  0.78438  0.24242  0.33250  1.0000
  C   C269      1.0  0.85193  0.30214  0.33508  1.0000
  C   C270      1.0  0.87312  0.29596  0.33590  1.0000
  C   C271      1.0  0.88212  0.22407  0.33335  1.0000
  C   C272      1.0  0.86374  0.17894  0.33580  1.0000
  C   C273      1.0  0.81464  0.16457  0.33277  1.0000
  C   C274      1.0  0.79342  0.17076  0.33049  1.0000
  N   N48       1.0  0.79515  0.19523  0.33185  1.0000
  C   C275      1.0  0.75189  0.16572  0.33174  1.0000
  C   C276      1.0  0.76585  0.15199  0.32685  1.0000
  C   C277      1.0  0.73636  0.20726  0.33556  1.0000
  C   C278      1.0  0.70024  0.21255  0.40279  1.0000
  C   C279      1.0  0.72644  0.21634  0.40589  1.0000
  C   C280      1.0  0.80724  0.13657  0.33568  1.0000
  C   C281      1.0  0.78892  0.07981  0.33613  1.0000
  C   C282      1.0  0.78052  0.09173  0.40231  1.0000
  C   C283      1.0  0.79084  0.11972  0.40539  1.0000
  C   C284      1.0  0.94177  0.25146  0.39976  1.0000
  C   C285      1.0  0.96922  0.25901  0.39638  1.0000
  C   C286      1.0  0.87465  0.34838  0.40089  1.0000
  C   C287      1.0  0.87004  0.38496  0.33273  1.0000
  C   C288      1.0  0.88148  0.37565  0.39752  1.0000
  H   H192      1.0  0.89361  0.38830  0.44658  1.0000
  H   H193      1.0  0.88164  0.34205  0.45296  1.0000
  H   H194      1.0  0.80381  0.30585  0.33971  1.0000
  H   H195      1.0  0.84507  0.22149  0.33372  1.0000
  H   H196      1.0  0.93025  0.23955  0.45129  1.0000
  H   H197      1.0  0.97665  0.25194  0.44486  1.0000
  H   H198      1.0  0.86263  0.16061  0.33804  1.0000
  H   H199      1.0  0.73135  0.15645  0.33321  1.0000
  H   H200      1.0  0.75672  0.13148  0.32327  1.0000
  H   H201      1.0  0.78455  0.12741  0.45555  1.0000
  H   H202      1.0  0.76675  0.08010  0.44978  1.0000
  H   H203      1.0  0.73897  0.22777  0.45636  1.0000
  H   H204      1.0  0.69490  0.22173  0.45070  1.0000
  C   C289      1.0  0.21506  0.63248  0.33444  1.0000
  C   C290      1.0  0.21716  0.62051  0.41550  1.0000
  C   C291      1.0  0.21084  0.59306  0.41411  1.0000
  C   C292      1.0  0.21497  0.58244  0.33322  1.0000
  N   N49       1.0  0.20137  0.57769  0.48948  1.0000
  H   H205      1.0  0.19575  0.58410  0.54056  1.0000
  H   H206      1.0  0.19376  0.55827  0.48638  1.0000
  N   N50       1.0  0.22663  0.63476  0.49299  1.0000
  H   H207      1.0  0.23561  0.65428  0.49284  1.0000
  H   H208      1.0  0.23082  0.62711  0.54417  1.0000
  C   C293      1.0  0.43405  0.58251  0.33475  1.0000
  C   C294      1.0  0.44599  0.59658  0.41581  1.0000
  C   C295      1.0  0.47342  0.61773  0.41444  1.0000
  C   C296      1.0  0.48407  0.63247  0.33356  1.0000
  N   N51       1.0  0.48879  0.62358  0.48970  1.0000
  H   H209      1.0  0.48236  0.61179  0.54141  1.0000
  H   H210      1.0  0.50818  0.63561  0.48734  1.0000
  N   N52       1.0  0.43168  0.59177  0.49323  1.0000
  H   H211      1.0  0.41217  0.58108  0.49365  1.0000
  H   H212      1.0  0.43933  0.60358  0.54452  1.0000
  C   C297      1.0  0.48402  0.85150  0.33498  1.0000
  C   C298      1.0  0.46988  0.84936  0.41594  1.0000
  C   C299      1.0  0.44874  0.85566  0.41444  1.0000
  C   C300      1.0  0.43406  0.85156  0.33347  1.0000
  N   N53       1.0  0.44277  0.86508  0.48978  1.0000
  H   H213      1.0  0.45476  0.87068  0.54092  1.0000
  H   H214      1.0  0.43096  0.87268  0.48662  1.0000
  N   N54       1.0  0.47460  0.83982  0.49340  1.0000
  H   H215      1.0  0.48529  0.83100  0.49390  1.0000
  H   H216      1.0  0.46276  0.83567  0.54462  1.0000
  C   C301      1.0  0.87370  0.41183  0.33507  1.0000
  C   C302      1.0  0.87154  0.42379  0.41608  1.0000
  C   C303      1.0  0.87785  0.45123  0.41468  1.0000
  C   C304      1.0  0.87376  0.46185  0.33376  1.0000
  N   N55       1.0  0.88727  0.46659  0.49005  1.0000
  H   H217      1.0  0.89287  0.46017  0.54115  1.0000
  H   H218      1.0  0.89489  0.48600  0.48694  1.0000
  N   N56       1.0  0.86200  0.40949  0.49350  1.0000
  H   H219      1.0  0.85318  0.38999  0.49394  1.0000
  H   H220      1.0  0.85784  0.41716  0.54476  1.0000
  C   C305      1.0  0.65469  0.46182  0.33546  1.0000
  C   C306      1.0  0.64271  0.44773  0.41650  1.0000
  C   C307      1.0  0.61526  0.42659  0.41510  1.0000
  C   C308      1.0  0.60467  0.41186  0.33422  1.0000
  N   N57       1.0  0.59987  0.42067  0.49045  1.0000
  H   H221      1.0  0.60628  0.43270  0.54154  1.0000
  H   H222      1.0  0.58046  0.40886  0.48735  1.0000
  N   N58       1.0  0.65695  0.45250  0.49402  1.0000
  H   H223      1.0  0.67647  0.46306  0.49388  1.0000
  H   H224      1.0  0.64929  0.44067  0.54520  1.0000
  C   C309      1.0  0.60473  0.19283  0.33551  1.0000
  C   C310      1.0  0.61882  0.19495  0.41651  1.0000
  C   C311      1.0  0.63997  0.18867  0.41502  1.0000
  C   C312      1.0  0.65470  0.19278  0.33408  1.0000
  N   N59       1.0  0.64585  0.17915  0.49025  1.0000
  H   H225      1.0  0.63407  0.17377  0.54201  1.0000
  H   H226      1.0  0.65788  0.17179  0.48782  1.0000
  N   N60       1.0  0.61403  0.20444  0.49397  1.0000
  H   H227      1.0  0.60332  0.21324  0.49447  1.0000
  H   H228      1.0  0.62584  0.20858  0.54521  1.0000
  C   C313      1.0  0.01558  0.28874  0.33475  1.0000
  C   C314      1.0  0.03056  0.29801  0.41586  1.0000
  C   C315      1.0  0.05860  0.30659  0.41440  1.0000
  C   C316      1.0  0.07319  0.31749  0.33345  1.0000
  N   N61       1.0  0.07097  0.30470  0.48977  1.0000
  H   H229      1.0  0.06037  0.29451  0.54096  1.0000
  H   H230      1.0  0.08906  0.30727  0.48666  1.0000
  N   N62       1.0  0.01953  0.30069  0.49336  1.0000
  H   H231      1.0  0.00209  0.29957  0.49393  1.0000
  H   H232      1.0  0.03076  0.30986  0.54468  1.0000
  C   C317      1.0  0.77778  0.72676  0.33512  1.0000
  C   C318      1.0  0.76848  0.73245  0.41626  1.0000
  C   C319      1.0  0.75990  0.75191  0.41484  1.0000
  C   C320      1.0  0.74902  0.75561  0.33390  1.0000
  N   N63       1.0  0.76177  0.76616  0.49024  1.0000
  H   H233      1.0  0.77194  0.76574  0.54142  1.0000
  H   H234      1.0  0.75921  0.78168  0.48717  1.0000
  N   N64       1.0  0.76579  0.71874  0.49371  1.0000
  H   H235      1.0  0.76692  0.70241  0.49423  1.0000
  H   H236      1.0  0.75660  0.72077  0.54505  1.0000
  C   C321      1.0  0.33976  0.05095  0.33482  1.0000
  C   C322      1.0  0.33401  0.03592  0.41592  1.0000
  C   C323      1.0  0.31454  0.00789  0.41438  1.0000
  C   C324      1.0  0.31089  0.99333  0.33339  1.0000
  N   N65       1.0  0.30024  0.99548  0.48970  1.0000
  H   H237      1.0  0.30064  0.00606  0.54092  1.0000
  H   H238      1.0  0.28472  0.97740  0.48654  1.0000
  N   N66       1.0  0.34765  0.04690  0.49352  1.0000
  H   H239      1.0  0.36407  0.06428  0.49355  1.0000
  H   H240      1.0  0.34562  0.03565  0.54471  1.0000
  C   C325      1.0  0.07316  0.75556  0.33437  1.0000
  C   C326      1.0  0.05819  0.74631  0.41558  1.0000
  C   C327      1.0  0.03015  0.73772  0.41424  1.0000
  C   C328      1.0  0.01555  0.72681  0.33337  1.0000
  N   N67       1.0  0.01781  0.73969  0.48955  1.0000
  H   H241      1.0  0.02827  0.74960  0.54132  1.0000
  H   H242      1.0  0.99962  0.73686  0.48724  1.0000
  N   N68       1.0  0.06924  0.74367  0.49303  1.0000
  H   H243      1.0  0.08670  0.74480  0.49351  1.0000
  H   H244      1.0  0.05802  0.73449  0.54442  1.0000
  C   C329      1.0  0.31094  0.31751  0.33478  1.0000
  C   C330      1.0  0.32019  0.31180  0.41596  1.0000
  C   C331      1.0  0.32877  0.29234  0.41462  1.0000
  C   C332      1.0  0.33971  0.28867  0.33372  1.0000
  N   N69       1.0  0.32686  0.27809  0.49004  1.0000
  H   H245      1.0  0.31666  0.27850  0.54118  1.0000
  H   H246      1.0  0.32944  0.26257  0.48700  1.0000
  N   N70       1.0  0.32285  0.32551  0.49340  1.0000
  H   H247      1.0  0.32174  0.34185  0.49388  1.0000
  H   H248      1.0  0.33202  0.32346  0.54476  1.0000
  C   C333      1.0  0.74898  0.99335  0.33497  1.0000
  C   C334      1.0  0.75468  0.00834  0.41610  1.0000
  C   C335      1.0  0.77415  0.03637  0.41465  1.0000
  C   C336      1.0  0.77785  0.05097  0.33370  1.0000
  N   N71       1.0  0.78840  0.04874  0.49003  1.0000
  H   H249      1.0  0.78797  0.03814  0.54121  1.0000
  H   H250      1.0  0.80392  0.06682  0.48693  1.0000
  N   N72       1.0  0.74095  0.99731  0.49358  1.0000
  H   H251      1.0  0.72462  0.97987  0.49412  1.0000
  H   H252      1.0  0.74300  0.00854  0.54490  1.0000
