data_image0
_chemical_formula_structural       C3NC3NC5NC4NC35H25C21H18C16H16C2HC3HNH2NH2C2HC2HNH2NH2C2HC3HNH2NH2C2HC3HNH2NH2C2HC2HNH2NH2C2HC3HNH2NH2C18H17C3NC3NC2NC5NC34H24C3NC3NC5NC5NC36H26C7H2N2O4C8H2N2O4C7H2N2O4C7H2N2O4C8H2N2O4C7H2N2O4
_chemical_formula_sum              "C276 N36 H174 O24"
_cell_length_a       67.2101
_cell_length_b       67.2102
_cell_length_c       14.9386
_cell_angle_alpha    89.8028
_cell_angle_beta     90.1972
_cell_angle_gamma    120

_space_group_name_H-M_alt    "P 1"
_space_group_IT_number       1

loop_
  _space_group_symop_operation_xyz
  'x, y, z'

loop_
  _atom_site_type_symbol
  _atom_site_label
  _atom_site_symmetry_multiplicity
  _atom_site_fract_x
  _atom_site_fract_y
  _atom_site_fract_z
  _atom_site_occupancy
  C   C1        1.0  0.01924  0.48893  0.33547  1.0000
  C   C2        1.0  0.04297  0.50081  0.33424  1.0000
  C   C3        1.0  0.05051  0.52432  0.33475  1.0000
  N   N1        1.0  0.03110  0.52578  0.33549  1.0000
  C   C4        1.0  0.01169  0.50490  0.33581  1.0000
  C   C5        1.0  0.98827  0.49928  0.33675  1.0000
  C   C6        1.0  0.98074  0.51563  0.33634  1.0000
  N   N2        1.0  0.99371  0.53882  0.33533  1.0000
  C   C7        1.0  0.98071  0.54901  0.33493  1.0000
  C   C8        1.0  0.95789  0.53116  0.33596  1.0000
  C   C9        1.0  0.95791  0.51063  0.33640  1.0000
  C   C10       1.0  0.98822  0.57289  0.33420  1.0000
  C   C11       1.0  0.01164  0.59070  0.33466  1.0000
  N   N3        1.0  0.03105  0.58923  0.33541  1.0000
  C   C12       1.0  0.05046  0.61012  0.33569  1.0000
  C   C13       1.0  0.04291  0.62608  0.33528  1.0000
  C   C14       1.0  0.01918  0.61421  0.33407  1.0000
  C   C15       1.0  0.07388  0.61574  0.33665  1.0000
  N   N4        1.0  0.06844  0.57621  0.33535  1.0000
  C   C16       1.0  0.08144  0.56602  0.33493  1.0000
  C   C17       1.0  0.10426  0.58387  0.33590  1.0000
  C   C18       1.0  0.10424  0.60439  0.33633  1.0000
  C   C19       1.0  0.07393  0.54214  0.33423  1.0000
  C   C20       1.0  0.09126  0.53575  0.33282  1.0000
  C   C21       1.0  0.10287  0.53699  0.25252  1.0000
  C   C22       1.0  0.12111  0.53237  0.25231  1.0000
  C   C23       1.0  0.12820  0.52618  0.33198  1.0000
  C   C24       1.0  0.14755  0.52272  0.33255  1.0000
  C   C25       1.0  0.18769  0.53577  0.29254  1.0000
  C   C26       1.0  0.16829  0.53854  0.28957  1.0000
  C   C27       1.0  0.09117  0.63947  0.33820  1.0000
  C   C28       1.0  0.09812  0.65253  0.25845  1.0000
  C   C29       1.0  0.11600  0.67559  0.25956  1.0000
  C   C30       1.0  0.12763  0.68622  0.34005  1.0000
  C   C31       1.0  0.14660  0.70926  0.34029  1.0000
  C   C32       1.0  0.14570  0.72710  0.29296  1.0000
  C   C33       1.0  0.16462  0.74964  0.29185  1.0000
  C   C34       1.0  0.18522  0.75501  0.33703  1.0000
  C   C35       1.0  0.97090  0.57930  0.33290  1.0000
  C   C36       1.0  0.93427  0.58932  0.33205  1.0000
  C   C37       1.0  0.94107  0.58296  0.25248  1.0000
  C   C38       1.0  0.95917  0.57812  0.25269  1.0000
  C   C39       1.0  0.91514  0.59312  0.33256  1.0000
  C   C40       1.0  0.89422  0.57747  0.29004  1.0000
  C   C41       1.0  0.87505  0.58062  0.29285  1.0000
  C   C42       1.0  0.87614  0.59959  0.33799  1.0000
  C   C43       1.0  0.97097  0.47556  0.33839  1.0000
  C   C44       1.0  0.96378  0.46261  0.25858  1.0000
  C   C45       1.0  0.94575  0.43961  0.25970  1.0000
  C   C46       1.0  0.93420  0.42895  0.34023  1.0000
  C   C47       1.0  0.91502  0.40602  0.34044  1.0000
  C   C48       1.0  0.87594  0.36055  0.33697  1.0000
  C   C49       1.0  0.89637  0.36570  0.29141  1.0000
  C   C50       1.0  0.91552  0.38811  0.29261  1.0000
  H   H1        1.0  0.89739  0.35317  0.25638  1.0000
  H   H2        1.0  0.93001  0.39116  0.25887  1.0000
  H   H3        1.0  0.94055  0.43099  0.20016  1.0000
  H   H4        1.0  0.97132  0.46999  0.19881  1.0000
  H   H5        1.0  0.00934  0.47142  0.33566  1.0000
  H   H6        1.0  0.05288  0.49320  0.33345  1.0000
  H   H7        1.0  0.03109  0.54007  0.33602  1.0000
  H   H8        1.0  0.03106  0.57495  0.33602  1.0000
  H   H9        1.0  0.94344  0.49478  0.33679  1.0000
  H   H10       1.0  0.94341  0.53251  0.33640  1.0000
  H   H11       1.0  0.96344  0.57328  0.19418  1.0000
  H   H12       1.0  0.93286  0.58178  0.19321  1.0000
  H   H13       1.0  0.00928  0.62182  0.33325  1.0000
  H   H14       1.0  0.05280  0.64360  0.33549  1.0000
  H   H15       1.0  0.11871  0.62025  0.33664  1.0000
  H   H16       1.0  0.09048  0.64521  0.19874  1.0000
  H   H17       1.0  0.12100  0.68432  0.20008  1.0000
  H   H18       1.0  0.16332  0.76211  0.25717  1.0000
  H   H19       1.0  0.13108  0.72389  0.25949  1.0000
  H   H20       1.0  0.16971  0.55270  0.25763  1.0000
  H   H21       1.0  0.20242  0.54769  0.26122  1.0000
  H   H22       1.0  0.12925  0.53362  0.19298  1.0000
  H   H23       1.0  0.09844  0.54177  0.19397  1.0000
  H   H24       1.0  0.89252  0.56321  0.25844  1.0000
  H   H25       1.0  0.86018  0.56882  0.26183  1.0000
  C   C51       1.0  0.54104  0.51858  0.33767  1.0000
  C   C52       1.0  0.55889  0.51361  0.33867  1.0000
  C   C53       1.0  0.57942  0.53414  0.33910  1.0000
  C   C54       1.0  0.55308  0.65288  0.25520  1.0000
  C   C55       1.0  0.55770  0.67574  0.25496  1.0000
  C   C56       1.0  0.55430  0.73886  0.29511  1.0000
  C   C57       1.0  0.55152  0.71669  0.29219  1.0000
  C   C58       1.0  0.43754  0.53257  0.26092  1.0000
  C   C59       1.0  0.41448  0.52739  0.26188  1.0000
  C   C60       1.0  0.36297  0.50551  0.29501  1.0000
  C   C61       1.0  0.34043  0.50190  0.29370  1.0000
  C   C62       1.0  0.33504  0.51707  0.33867  1.0000
  C   C63       1.0  0.50708  0.44511  0.25515  1.0000
  C   C64       1.0  0.51192  0.46805  0.25538  1.0000
  C   C65       1.0  0.51257  0.40369  0.29270  1.0000
  C   C66       1.0  0.50944  0.38137  0.29550  1.0000
  C   C67       1.0  0.62742  0.58816  0.26109  1.0000
  C   C68       1.0  0.65041  0.59312  0.26206  1.0000
  C   C69       1.0  0.72950  0.60227  0.33866  1.0000
  C   C70       1.0  0.72433  0.61763  0.29329  1.0000
  C   C71       1.0  0.70193  0.61437  0.29473  1.0000
  H   H26       1.0  0.73684  0.63123  0.25820  1.0000
  H   H27       1.0  0.69886  0.62586  0.26108  1.0000
  H   H28       1.0  0.65903  0.59667  0.20249  1.0000
  H   H29       1.0  0.62003  0.58843  0.20138  1.0000
  H   H30       1.0  0.59527  0.53552  0.33946  1.0000
  H   H31       1.0  0.51677  0.47725  0.19689  1.0000
  H   H32       1.0  0.50826  0.43818  0.19588  1.0000
  H   H33       1.0  0.46823  0.47433  0.33598  1.0000
  H   H34       1.0  0.44488  0.53232  0.20128  1.0000
  H   H35       1.0  0.40577  0.52372  0.20238  1.0000
  H   H36       1.0  0.32797  0.48817  0.25902  1.0000
  H   H37       1.0  0.36619  0.49413  0.26172  1.0000
  H   H38       1.0  0.53737  0.70401  0.26022  1.0000
  H   H39       1.0  0.54237  0.74172  0.26378  1.0000
  H   H40       1.0  0.55644  0.68271  0.19563  1.0000
  H   H41       1.0  0.54828  0.64374  0.19668  1.0000
  H   H42       1.0  0.52684  0.41630  0.26108  1.0000
  H   H43       1.0  0.52124  0.37835  0.26448  1.0000
  C   C72       1.0  0.43728  0.98729  0.25618  1.0000
  C   C73       1.0  0.41441  0.96904  0.25546  1.0000
  C   C74       1.0  0.35125  0.90241  0.29398  1.0000
  C   C75       1.0  0.37343  0.92181  0.29159  1.0000
  C   C76       1.0  0.55751  0.99196  0.26324  1.0000
  C   C77       1.0  0.56271  0.97409  0.26431  1.0000
  C   C78       1.0  0.58456  0.94439  0.29758  1.0000
  C   C79       1.0  0.58817  0.92546  0.29631  1.0000
  C   C80       1.0  0.64484  0.14887  0.25559  1.0000
  C   C81       1.0  0.62190  0.13078  0.25632  1.0000
  C   C82       1.0  0.68631  0.19577  0.29193  1.0000
  C   C83       1.0  0.70864  0.21495  0.29424  1.0000
  C   C84       1.0  0.50185  0.12623  0.26340  1.0000
  C   C85       1.0  0.49687  0.14425  0.26448  1.0000
  C   C86       1.0  0.47241  0.19363  0.29595  1.0000
  C   C87       1.0  0.47566  0.17448  0.29735  1.0000
  H   H44       1.0  0.45879  0.19260  0.26096  1.0000
  H   H45       1.0  0.46415  0.15997  0.26377  1.0000
  H   H46       1.0  0.49333  0.14942  0.20493  1.0000
  H   H47       1.0  0.50156  0.11866  0.20367  1.0000
  H   H48       1.0  0.61264  0.12643  0.19797  1.0000
  H   H49       1.0  0.65171  0.15700  0.19611  1.0000
  H   H50       1.0  0.55775  0.99962  0.20357  1.0000
  H   H51       1.0  0.56635  0.96910  0.20482  1.0000
  H   H52       1.0  0.60189  0.92678  0.26159  1.0000
  H   H53       1.0  0.59593  0.95902  0.26420  1.0000
  H   H54       1.0  0.38615  0.92044  0.25974  1.0000
  H   H55       1.0  0.34843  0.88773  0.26239  1.0000
  H   H56       1.0  0.40751  0.96099  0.19595  1.0000
  H   H57       1.0  0.44647  0.99179  0.19780  1.0000
  H   H58       1.0  0.67366  0.19744  0.26051  1.0000
  H   H59       1.0  0.71162  0.22977  0.26299  1.0000
  C   C88       1.0  0.22626  0.49265  0.30469  1.0000
  C   C89       1.0  0.20662  0.49530  0.30512  1.0000
  H   H60       1.0  0.19179  0.48297  0.27541  1.0000
  C   C90       1.0  0.31245  0.51399  0.33610  1.0000
  C   C91       1.0  0.30202  0.51603  0.25594  1.0000
  C   C92       1.0  0.27992  0.51374  0.26099  1.0000
  H   H61       1.0  0.27262  0.51584  0.20398  1.0000
  N   N5        1.0  0.22455  0.47343  0.26709  1.0000
  H   H62       1.0  0.21016  0.46156  0.24131  1.0000
  H   H63       1.0  0.23727  0.47044  0.26792  1.0000
  N   N6        1.0  0.31271  0.52102  0.17493  1.0000
  H   H64       1.0  0.30533  0.52267  0.12141  1.0000
  H   H65       1.0  0.32829  0.52393  0.16797  1.0000
  C   C93       1.0  0.59742  0.82054  0.30732  1.0000
  C   C94       1.0  0.59476  0.79824  0.30774  1.0000
  H   H66       1.0  0.60709  0.79578  0.27800  1.0000
  C   C95       1.0  0.57403  0.87299  0.25861  1.0000
  C   C96       1.0  0.57634  0.85318  0.26365  1.0000
  H   H67       1.0  0.57423  0.84386  0.20664  1.0000
  N   N7        1.0  0.61663  0.83810  0.26973  1.0000
  H   H68       1.0  0.62851  0.83563  0.24394  1.0000
  H   H69       1.0  0.61963  0.85382  0.27056  1.0000
  N   N8        1.0  0.56905  0.87881  0.17760  1.0000
  H   H70       1.0  0.56732  0.86982  0.12415  1.0000
  H   H71       1.0  0.56604  0.89143  0.17075  1.0000
  C   C97       1.0  0.26956  0.86382  0.30466  1.0000
  C   C98       1.0  0.29186  0.88346  0.30558  1.0000
  H   H72       1.0  0.29435  0.89833  0.27608  1.0000
  C   C99       1.0  0.20472  0.77761  0.33476  1.0000
  C   C100      1.0  0.21714  0.78808  0.25480  1.0000
  C   C101      1.0  0.23696  0.81019  0.26019  1.0000
  H   H73       1.0  0.24633  0.81752  0.20332  1.0000
  N   N9        1.0  0.25204  0.86557  0.26687  1.0000
  H   H74       1.0  0.25455  0.87999  0.24126  1.0000
  H   H75       1.0  0.23633  0.85285  0.26734  1.0000
  N   N10       1.0  0.21139  0.77746  0.17367  1.0000
  H   H76       1.0  0.22039  0.78486  0.12029  1.0000
  H   H77       1.0  0.19872  0.76188  0.16650  1.0000
  C   C102      1.0  0.83764  0.62486  0.30377  1.0000
  C   C103      1.0  0.85705  0.62181  0.30426  1.0000
  H   H78       1.0  0.87192  0.63395  0.27422  1.0000
  C   C104      1.0  0.75194  0.60497  0.33594  1.0000
  C   C105      1.0  0.76207  0.60267  0.25579  1.0000
  C   C106      1.0  0.78402  0.60458  0.26073  1.0000
  H   H79       1.0  0.79109  0.60227  0.20375  1.0000
  N   N11       1.0  0.83963  0.64420  0.26569  1.0000
  H   H80       1.0  0.85406  0.65589  0.23959  1.0000
  H   H81       1.0  0.82709  0.64746  0.26644  1.0000
  N   N12       1.0  0.75123  0.59779  0.17493  1.0000
  H   H82       1.0  0.75837  0.59587  0.12150  1.0000
  H   H83       1.0  0.73570  0.59504  0.16818  1.0000
  C   C107      1.0  0.46522  0.29971  0.30637  1.0000
  C   C108      1.0  0.46826  0.32217  0.30686  1.0000
  H   H84       1.0  0.45611  0.32493  0.27685  1.0000
  C   C109      1.0  0.48740  0.24640  0.25836  1.0000
  C   C110      1.0  0.48551  0.26645  0.26330  1.0000
  H   H85       1.0  0.48780  0.27590  0.20632  1.0000
  N   N13       1.0  0.44588  0.28241  0.26830  1.0000
  H   H86       1.0  0.43418  0.28518  0.24222  1.0000
  H   H87       1.0  0.44262  0.26661  0.26906  1.0000
  N   N14       1.0  0.49227  0.24057  0.17749  1.0000
  H   H88       1.0  0.49411  0.24965  0.12399  1.0000
  H   H89       1.0  0.49492  0.22772  0.17064  1.0000
  C   C111      1.0  0.79031  0.25237  0.30378  1.0000
  C   C112      1.0  0.76785  0.23297  0.30474  1.0000
  H   H90       1.0  0.76505  0.21807  0.27490  1.0000
  C   C113      1.0  0.85621  0.33811  0.33458  1.0000
  C   C114      1.0  0.84359  0.32792  0.25464  1.0000
  C   C115      1.0  0.82356  0.30596  0.25992  1.0000
  H   H91       1.0  0.81404  0.29885  0.20308  1.0000
  N   N15       1.0  0.80756  0.25035  0.26551  1.0000
  H   H92       1.0  0.80476  0.23589  0.23959  1.0000
  H   H93       1.0  0.82336  0.26289  0.26593  1.0000
  N   N16       1.0  0.84934  0.33869  0.17364  1.0000
  H   H94       1.0  0.84017  0.33151  0.12034  1.0000
  H   H95       1.0  0.86212  0.35422  0.16665  1.0000
  C   C116      1.0  0.08141  0.59939  0.33633  1.0000
  C   C117      1.0  0.11611  0.52447  0.41180  1.0000
  C   C118      1.0  0.09802  0.52934  0.41244  1.0000
  C   C119      1.0  0.14688  0.50381  0.37761  1.0000
  C   C120      1.0  0.16623  0.50087  0.37982  1.0000
  C   C121      1.0  0.18701  0.51698  0.33824  1.0000
  C   C122      1.0  0.12038  0.67300  0.41977  1.0000
  C   C123      1.0  0.10239  0.65002  0.41904  1.0000
  C   C124      1.0  0.18613  0.73733  0.38515  1.0000
  C   C125      1.0  0.16715  0.71487  0.38674  1.0000
  C   C126      1.0  0.96440  0.58584  0.41244  1.0000
  C   C127      1.0  0.94646  0.59092  0.41179  1.0000
  C   C128      1.0  0.89709  0.61551  0.37914  1.0000
  C   C129      1.0  0.91621  0.61221  0.37706  1.0000
  C   C130      1.0  0.95986  0.46495  0.41930  1.0000
  C   C131      1.0  0.94172  0.44203  0.42003  1.0000
  C   C132      1.0  0.89463  0.40062  0.38722  1.0000
  C   C133      1.0  0.87543  0.37830  0.38559  1.0000
  H   H96       1.0  0.86085  0.37521  0.41878  1.0000
  H   H97       1.0  0.89328  0.41311  0.42112  1.0000
  H   H98       1.0  0.93402  0.43496  0.47989  1.0000
  H   H99       1.0  0.96463  0.47400  0.47803  1.0000
  H   H100      1.0  0.97242  0.58653  0.47171  1.0000
  H   H101      1.0  0.94176  0.59494  0.47118  1.0000
  H   H102      1.0  0.11874  0.58251  0.33630  1.0000
  H   H103      1.0  0.09777  0.64090  0.47774  1.0000
  H   H104      1.0  0.12815  0.68004  0.47959  1.0000
  H   H105      1.0  0.16878  0.70245  0.42028  1.0000
  H   H106      1.0  0.20084  0.74058  0.41811  1.0000
  H   H107      1.0  0.09012  0.52863  0.47181  1.0000
  H   H108      1.0  0.12102  0.52059  0.47127  1.0000
  H   H109      1.0  0.16518  0.48713  0.41386  1.0000
  H   H110      1.0  0.13217  0.49185  0.40887  1.0000
  H   H111      1.0  0.93106  0.62406  0.40796  1.0000
  H   H112      1.0  0.89843  0.62938  0.41276  1.0000
  C   C134      1.0  0.60112  0.61718  0.33811  1.0000
  C   C135      1.0  0.58925  0.62904  0.33691  1.0000
  C   C136      1.0  0.56574  0.61306  0.33747  1.0000
  N   N17       1.0  0.56427  0.59218  0.33822  1.0000
  C   C137      1.0  0.58516  0.59366  0.33849  1.0000
  C   C138      1.0  0.59078  0.57586  0.33943  1.0000
  C   C139      1.0  0.57442  0.55197  0.33907  1.0000
  N   N18       1.0  0.55123  0.54176  0.33806  1.0000
  C   C140      1.0  0.51716  0.50220  0.33693  1.0000
  C   C141      1.0  0.49935  0.50781  0.33739  1.0000
  N   N19       1.0  0.50082  0.52870  0.33814  1.0000
  C   C142      1.0  0.47993  0.52721  0.33839  1.0000
  C   C143      1.0  0.46397  0.50370  0.33798  1.0000
  C   C144      1.0  0.47583  0.49184  0.33679  1.0000
  C   C145      1.0  0.47431  0.54502  0.33931  1.0000
  C   C146      1.0  0.49067  0.56890  0.33901  1.0000
  N   N20       1.0  0.51385  0.57911  0.33808  1.0000
  C   C147      1.0  0.52404  0.60229  0.33766  1.0000
  C   C148      1.0  0.50619  0.60726  0.33859  1.0000
  C   C149      1.0  0.48566  0.58673  0.33899  1.0000
  C   C150      1.0  0.54792  0.61867  0.33695  1.0000
  C   C151      1.0  0.55431  0.64239  0.33553  1.0000
  C   C152      1.0  0.56390  0.68891  0.33462  1.0000
  C   C153      1.0  0.56558  0.67840  0.41447  1.0000
  C   C154      1.0  0.56074  0.65545  0.41513  1.0000
  C   C155      1.0  0.56735  0.71171  0.33517  1.0000
  C   C156      1.0  0.58625  0.72989  0.38021  1.0000
  C   C157      1.0  0.58919  0.75216  0.38241  1.0000
  C   C158      1.0  0.57308  0.75690  0.34081  1.0000
  C   C159      1.0  0.45059  0.53858  0.34073  1.0000
  C   C160      1.0  0.40383  0.52828  0.34229  1.0000
  C   C161      1.0  0.41702  0.53414  0.42207  1.0000
  C   C162      1.0  0.44001  0.53913  0.42149  1.0000
  C   C163      1.0  0.38079  0.52419  0.34238  1.0000
  C   C164      1.0  0.35269  0.53559  0.38682  1.0000
  C   C165      1.0  0.37516  0.53908  0.38858  1.0000
  C   C166      1.0  0.51075  0.47848  0.33560  1.0000
  C   C167      1.0  0.50419  0.46531  0.41512  1.0000
  C   C168      1.0  0.49912  0.44228  0.41446  1.0000
  C   C169      1.0  0.50071  0.43182  0.33471  1.0000
  C   C170      1.0  0.49693  0.40889  0.33521  1.0000
  C   C171      1.0  0.49047  0.36342  0.34062  1.0000
  C   C172      1.0  0.47453  0.36838  0.38172  1.0000
  C   C173      1.0  0.47783  0.39080  0.37969  1.0000
  C   C174      1.0  0.61449  0.58227  0.34095  1.0000
  C   C175      1.0  0.62512  0.58164  0.42179  1.0000
  C   C176      1.0  0.66111  0.59211  0.34253  1.0000
  C   C177      1.0  0.64804  0.58641  0.42238  1.0000
  C   C178      1.0  0.68404  0.59587  0.34258  1.0000
  C   C179      1.0  0.68946  0.58080  0.38920  1.0000
  C   C180      1.0  0.71178  0.58393  0.38733  1.0000
  H   H113      1.0  0.71488  0.57238  0.42040  1.0000
  H   H114      1.0  0.67699  0.56691  0.42313  1.0000
  H   H115      1.0  0.65513  0.58568  0.48219  1.0000
  H   H116      1.0  0.61609  0.57725  0.48054  1.0000
  H   H117      1.0  0.61864  0.62479  0.33827  1.0000
  H   H118      1.0  0.59686  0.64655  0.33610  1.0000
  H   H119      1.0  0.54999  0.57789  0.33880  1.0000
  H   H120      1.0  0.51510  0.54298  0.33873  1.0000
  H   H121      1.0  0.55753  0.49776  0.33909  1.0000
  H   H122      1.0  0.50352  0.47254  0.47442  1.0000
  H   H123      1.0  0.49510  0.43348  0.47385  1.0000
  H   H124      1.0  0.44645  0.49608  0.33818  1.0000
  H   H125      1.0  0.50755  0.62311  0.33897  1.0000
  H   H126      1.0  0.46981  0.58534  0.33926  1.0000
  H   H127      1.0  0.44912  0.54357  0.48023  1.0000
  H   H128      1.0  0.40996  0.53478  0.48184  1.0000
  H   H129      1.0  0.38755  0.55307  0.42222  1.0000
  H   H130      1.0  0.34943  0.54701  0.41966  1.0000
  H   H131      1.0  0.56142  0.64816  0.47452  1.0000
  H   H132      1.0  0.56948  0.68710  0.47391  1.0000
  H   H133      1.0  0.60293  0.76481  0.41646  1.0000
  H   H134      1.0  0.59822  0.72709  0.41151  1.0000
  H   H135      1.0  0.46599  0.39375  0.41062  1.0000
  H   H136      1.0  0.46067  0.35580  0.41541  1.0000
  C   C181      1.0  0.47287  0.07080  0.34023  1.0000
  C   C182      1.0  0.46102  0.04707  0.33885  1.0000
  C   C183      1.0  0.47699  0.03953  0.33932  1.0000
  N   N21       1.0  0.49787  0.05895  0.34022  1.0000
  C   C184      1.0  0.49639  0.07835  0.34061  1.0000
  C   C185      1.0  0.51419  0.10178  0.34160  1.0000
  C   C186      1.0  0.53808  0.10931  0.34110  1.0000
  N   N22       1.0  0.54829  0.09634  0.34003  1.0000
  C   C187      1.0  0.57147  0.10934  0.33940  1.0000
  C   C188      1.0  0.57644  0.13216  0.34032  1.0000
  C   C189      1.0  0.55591  0.13214  0.34096  1.0000
  C   C190      1.0  0.58785  0.10183  0.33859  1.0000
  C   C191      1.0  0.58224  0.07841  0.33926  1.0000
  N   N23       1.0  0.56136  0.05900  0.34017  1.0000
  C   C192      1.0  0.56285  0.03959  0.34053  1.0000
  C   C193      1.0  0.58636  0.04715  0.34012  1.0000
  C   C194      1.0  0.59821  0.07087  0.33872  1.0000
  C   C195      1.0  0.54505  0.01616  0.34148  1.0000
  C   C196      1.0  0.52116  0.00863  0.34104  1.0000
  N   N24       1.0  0.51095  0.02160  0.34006  1.0000
  C   C197      1.0  0.48777  0.00861  0.33945  1.0000
  C   C198      1.0  0.48280  0.98579  0.34029  1.0000
  C   C199      1.0  0.50334  0.98580  0.34088  1.0000
  C   C200      1.0  0.47139  0.01611  0.33863  1.0000
  C   C201      1.0  0.44767  0.99879  0.33677  1.0000
  C   C202      1.0  0.40116  0.96185  0.33489  1.0000
  C   C203      1.0  0.41158  0.97382  0.41502  1.0000
  C   C204      1.0  0.43453  0.99193  0.41615  1.0000
  C   C205      1.0  0.37836  0.94250  0.33491  1.0000
  C   C206      1.0  0.36013  0.94310  0.37980  1.0000
  C   C207      1.0  0.33785  0.92376  0.38144  1.0000
  C   C208      1.0  0.33316  0.90304  0.33947  1.0000
  C   C209      1.0  0.55149  0.99888  0.34300  1.0000
  C   C210      1.0  0.56179  0.96242  0.34475  1.0000
  C   C211      1.0  0.55592  0.96965  0.42449  1.0000
  C   C212      1.0  0.55092  0.98764  0.42380  1.0000
  C   C213      1.0  0.56588  0.94347  0.34493  1.0000
  C   C214      1.0  0.57300  0.90485  0.34135  1.0000
  C   C215      1.0  0.55449  0.90392  0.38956  1.0000
  C   C216      1.0  0.55101  0.92289  0.39126  1.0000
  C   C217      1.0  0.61157  0.11915  0.33680  1.0000
  C   C218      1.0  0.62483  0.12575  0.41609  1.0000
  C   C219      1.0  0.64785  0.14371  0.41495  1.0000
  C   C220      1.0  0.65822  0.15578  0.33490  1.0000
  C   C221      1.0  0.68115  0.17491  0.33487  1.0000
  C   C222      1.0  0.72664  0.21391  0.33920  1.0000
  C   C223      1.0  0.72172  0.19302  0.38072  1.0000
  C   C224      1.0  0.69930  0.17390  0.37920  1.0000
  C   C225      1.0  0.50777  0.11908  0.34321  1.0000
  C   C226      1.0  0.50844  0.13022  0.42407  1.0000
  C   C227      1.0  0.49793  0.15585  0.34495  1.0000
  C   C228      1.0  0.50366  0.14837  0.42475  1.0000
  C   C229      1.0  0.49418  0.17502  0.34507  1.0000
  C   C230      1.0  0.50927  0.19545  0.39163  1.0000
  C   C231      1.0  0.50615  0.21465  0.38975  1.0000
  C   C232      1.0  0.48779  0.21410  0.34122  1.0000
  H   H137      1.0  0.51772  0.22926  0.42279  1.0000
  H   H138      1.0  0.52317  0.19682  0.42544  1.0000
  H   H139      1.0  0.50443  0.15611  0.48456  1.0000
  H   H140      1.0  0.51285  0.12549  0.48278  1.0000
  H   H141      1.0  0.46526  0.08070  0.34047  1.0000
  H   H142      1.0  0.44350  0.03716  0.33799  1.0000
  H   H143      1.0  0.51216  0.05896  0.34070  1.0000
  H   H144      1.0  0.54707  0.05899  0.34069  1.0000
  H   H145      1.0  0.55452  0.14661  0.34130  1.0000
  H   H146      1.0  0.59228  0.14664  0.34060  1.0000
  H   H147      1.0  0.61766  0.11782  0.47557  1.0000
  H   H148      1.0  0.65672  0.14847  0.47416  1.0000
  H   H149      1.0  0.61573  0.08077  0.33777  1.0000
  H   H150      1.0  0.59398  0.03725  0.34028  1.0000
  H   H151      1.0  0.46696  0.97130  0.34052  1.0000
  H   H152      1.0  0.50472  0.97133  0.34113  1.0000
  H   H153      1.0  0.54649  0.99223  0.48251  1.0000
  H   H154      1.0  0.55527  0.96186  0.48428  1.0000
  H   H155      1.0  0.53700  0.92125  0.42481  1.0000
  H   H156      1.0  0.54306  0.88919  0.42236  1.0000
  H   H157      1.0  0.44175  0.99975  0.47571  1.0000
  H   H158      1.0  0.40281  0.96886  0.47430  1.0000
  H   H159      1.0  0.32516  0.92476  0.41536  1.0000
  H   H160      1.0  0.36289  0.95777  0.41131  1.0000
  H   H161      1.0  0.69637  0.15909  0.41039  1.0000
  H   H162      1.0  0.73434  0.19172  0.41427  1.0000
  C   C233      1.0  0.20698  0.51471  0.34325  1.0000
  C   C234      1.0  0.22753  0.53180  0.38410  1.0000
  C   C235      1.0  0.24718  0.52926  0.38391  1.0000
  C   C236      1.0  0.24695  0.51006  0.34442  1.0000
  C   C237      1.0  0.26804  0.50977  0.34290  1.0000
  C   C238      1.0  0.27839  0.50764  0.42238  1.0000
  C   C239      1.0  0.30036  0.50967  0.41779  1.0000
  H   H163      1.0  0.30768  0.50816  0.47584  1.0000
  H   H164      1.0  0.26202  0.54193  0.41240  1.0000
  N   N25       1.0  0.26655  0.50344  0.50473  1.0000
  N   N26       1.0  0.22800  0.55090  0.42604  1.0000
  O   O1        1.0  0.27773  0.51922  0.56014  1.0000
  O   O2        1.0  0.24276  0.56953  0.39118  1.0000
  O   O3        1.0  0.26260  0.48468  0.53863  1.0000
  O   O4        1.0  0.23219  0.55145  0.50832  1.0000
  C   C240      1.0  0.57535  0.77913  0.34582  1.0000
  C   C241      1.0  0.55827  0.78253  0.38667  1.0000
  C   C242      1.0  0.56081  0.80472  0.38654  1.0000
  C   C243      1.0  0.58000  0.82375  0.34706  1.0000
  C   C244      1.0  0.58030  0.84514  0.34557  1.0000
  C   C245      1.0  0.58242  0.85749  0.42505  1.0000
  C   C246      1.0  0.58038  0.87743  0.42048  1.0000
  C   C247      1.0  0.57607  0.88533  0.33878  1.0000
  H   H165      1.0  0.58189  0.88617  0.47853  1.0000
  H   H166      1.0  0.54813  0.80684  0.41500  1.0000
  N   N27       1.0  0.58661  0.84972  0.50741  1.0000
  N   N28       1.0  0.53915  0.76383  0.42857  1.0000
  O   O5        1.0  0.57082  0.84501  0.56279  1.0000
  O   O6        1.0  0.52053  0.76002  0.39370  1.0000
  O   O7        1.0  0.60537  0.86447  0.54134  1.0000
  O   O8        1.0  0.53860  0.76733  0.51086  1.0000
  C   C248      1.0  0.31092  0.88306  0.34394  1.0000
  C   C249      1.0  0.30748  0.86247  0.38453  1.0000
  C   C250      1.0  0.28528  0.84281  0.38387  1.0000
  C   C251      1.0  0.26631  0.84309  0.34415  1.0000
  C   C252      1.0  0.24491  0.82200  0.34224  1.0000
  C   C253      1.0  0.23247  0.81160  0.42152  1.0000
  C   C254      1.0  0.21254  0.78964  0.41660  1.0000
  H   H167      1.0  0.20374  0.78229  0.47451  1.0000
  H   H168      1.0  0.28313  0.82795  0.41219  1.0000
  N   N29       1.0  0.24016  0.82339  0.50402  1.0000
  N   N30       1.0  0.32613  0.86195  0.42669  1.0000
  O   O9        1.0  0.24480  0.81218  0.55945  1.0000
  O   O10       1.0  0.32998  0.84723  0.39171  1.0000
  O   O11       1.0  0.22537  0.82732  0.53773  1.0000
  O   O12       1.0  0.32251  0.85767  0.50888  1.0000
  C   C255      1.0  0.85640  0.60225  0.34286  1.0000
  C   C256      1.0  0.83580  0.58542  0.38416  1.0000
  C   C257      1.0  0.81639  0.58836  0.38395  1.0000
  C   C258      1.0  0.81690  0.60770  0.34397  1.0000
  C   C259      1.0  0.79602  0.60840  0.34252  1.0000
  C   C260      1.0  0.78596  0.61079  0.42198  1.0000
  C   C261      1.0  0.76416  0.60915  0.41750  1.0000
  H   H169      1.0  0.75705  0.61084  0.47553  1.0000
  H   H170      1.0  0.80151  0.57586  0.41275  1.0000
  N   N31       1.0  0.79793  0.61485  0.50420  1.0000
  N   N32       1.0  0.83505  0.56617  0.42657  1.0000
  O   O13       1.0  0.78667  0.59915  0.55999  1.0000
  O   O14       1.0  0.82002  0.54763  0.39221  1.0000
  O   O15       1.0  0.80226  0.63373  0.53767  1.0000
  O   O16       1.0  0.83106  0.56576  0.50888  1.0000
  C   C262      1.0  0.48782  0.34102  0.34548  1.0000
  C   C263      1.0  0.50465  0.33719  0.38677  1.0000
  C   C264      1.0  0.50173  0.31485  0.38652  1.0000
  C   C265      1.0  0.48238  0.29608  0.34657  1.0000
  C   C266      1.0  0.48169  0.27450  0.34509  1.0000
  C   C267      1.0  0.47929  0.26192  0.42455  1.0000
  C   C268      1.0  0.48093  0.24177  0.42007  1.0000
  C   C269      1.0  0.48510  0.23385  0.33851  1.0000
  H   H171      1.0  0.47923  0.23287  0.47810  1.0000
  H   H172      1.0  0.51422  0.31242  0.41535  1.0000
  N   N33       1.0  0.47523  0.26971  0.50677  1.0000
  N   N34       1.0  0.52389  0.35563  0.42921  1.0000
  O   O17       1.0  0.49092  0.27405  0.56257  1.0000
  O   O18       1.0  0.54244  0.35920  0.39486  1.0000
  O   O19       1.0  0.45635  0.25511  0.54021  1.0000
  O   O20       1.0  0.52430  0.35191  0.51152  1.0000
  C   C270      1.0  0.74905  0.23366  0.34355  1.0000
  C   C271      1.0  0.75292  0.25430  0.38457  1.0000
  C   C272      1.0  0.77527  0.27372  0.38389  1.0000
  C   C273      1.0  0.79399  0.27316  0.34372  1.0000
  C   C274      1.0  0.81558  0.29403  0.34187  1.0000
  C   C275      1.0  0.82822  0.30415  0.42112  1.0000
  C   C276      1.0  0.84837  0.32595  0.41630  1.0000
  H   H173      1.0  0.85731  0.33310  0.47420  1.0000
  H   H174      1.0  0.77773  0.28863  0.41251  1.0000
  N   N35       1.0  0.82051  0.29225  0.50351  1.0000
  N   N36       1.0  0.73453  0.25510  0.42719  1.0000
  O   O21       1.0  0.81622  0.30354  0.55929  1.0000
  O   O22       1.0  0.73094  0.27010  0.39269  1.0000
  O   O23       1.0  0.83514  0.28794  0.53684  1.0000
  O   O24       1.0  0.73833  0.25919  0.50941  1.0000
