data_image0
_chemical_formula_structural       CNC2O2HCNC2O2HCNC2O2HNC18H12NC18H12NC3O2HNC3O2HNC3O2HCNC2O2HCNC2O2HCNC2O2HNC18H12NC18H12NC3O2HNC3O2HNC3O2HCNC2O2HCNC2O2HCNC2O2HNC18H12NC18H12NC3O2HNC3O2HNC3O2HCNC2O2HCNC2O2HCNC2O2HNC18H12NC18H12NC3O2HNC3O2HNC3O2H
_chemical_formula_sum              "C216 N32 O48 H120"
_cell_length_a       50.2239
_cell_length_b       50.224
_cell_length_c       14.5853
_cell_angle_alpha    90
_cell_angle_beta     90
_cell_angle_gamma    120

_space_group_name_H-M_alt    "P 1"
_space_group_IT_number       1

loop_
  _space_group_symop_operation_xyz
  'x, y, z'

loop_
  _atom_site_type_symbol
  _atom_site_label
  _atom_site_symmetry_multiplicity
  _atom_site_fract_x
  _atom_site_fract_y
  _atom_site_fract_z
  _atom_site_occupancy
  C   C1        1.0  0.25546  0.28143  0.35613  1.0000
  N   N1        1.0  0.28052  0.25566  0.29072  1.0000
  C   C2        1.0  0.26497  0.27125  0.27796  1.0000
  C   C3        1.0  0.25731  0.27377  0.18859  1.0000
  O   O1        1.0  0.23056  0.25623  0.16728  1.0000
  O   O2        1.0  0.27589  0.28091  0.12505  1.0000
  H   H1        1.0  0.29607  0.29259  0.13140  1.0000
  C   C4        1.0  0.25410  0.48116  0.35608  1.0000
  N   N2        1.0  0.27975  0.03199  0.29064  1.0000
  C   C5        1.0  0.26413  0.50085  0.27791  1.0000
  C   C6        1.0  0.26151  0.49071  0.18849  1.0000
  O   O3        1.0  0.27839  0.48084  0.16588  1.0000
  O   O4        1.0  0.25396  0.50195  0.12526  1.0000
  H   H2        1.0  0.24259  0.51076  0.13225  1.0000
  C   C7        1.0  0.05440  0.28009  0.35615  1.0000
  N   N3        1.0  0.50358  0.25499  0.29072  1.0000
  C   C8        1.0  0.03472  0.27051  0.27798  1.0000
  C   C9        1.0  0.04485  0.27820  0.18861  1.0000
  O   O5        1.0  0.05471  0.30498  0.16645  1.0000
  O   O6        1.0  0.03362  0.25952  0.12512  1.0000
  H   H3        1.0  0.02482  0.23932  0.13178  1.0000
  N   N4        1.0  0.18799  0.34756  0.36490  1.0000
  C   C10       1.0  0.20488  0.33136  0.36277  1.0000
  C   C11       1.0  0.20420  0.38066  0.36276  1.0000
  C   C12       1.0  0.15490  0.33066  0.36279  1.0000
  C   C13       1.0  0.13867  0.31128  0.28842  1.0000
  C   C14       1.0  0.10615  0.29455  0.28647  1.0000
  C   C15       1.0  0.08792  0.29687  0.35721  1.0000
  C   C16       1.0  0.10462  0.31614  0.43219  1.0000
  C   C17       1.0  0.13718  0.33256  0.43507  1.0000
  C   C18       1.0  0.22425  0.33449  0.28836  1.0000
  C   C19       1.0  0.24097  0.31870  0.28640  1.0000
  C   C20       1.0  0.23868  0.29818  0.35719  1.0000
  C   C21       1.0  0.21943  0.29562  0.43219  1.0000
  C   C22       1.0  0.20302  0.31176  0.43507  1.0000
  C   C23       1.0  0.22386  0.39839  0.43493  1.0000
  C   C24       1.0  0.24000  0.43094  0.43203  1.0000
  C   C25       1.0  0.23736  0.44763  0.35715  1.0000
  C   C26       1.0  0.21675  0.42940  0.28655  1.0000
  C   C27       1.0  0.20098  0.39688  0.28849  1.0000
  H   H4        1.0  0.25568  0.32327  0.23281  1.0000
  H   H5        1.0  0.22665  0.34884  0.23533  1.0000
  H   H6        1.0  0.18938  0.30898  0.49044  1.0000
  H   H7        1.0  0.21677  0.28146  0.48604  1.0000
  H   H8        1.0  0.15061  0.30885  0.23543  1.0000
  H   H9        1.0  0.09601  0.27983  0.23292  1.0000
  H   H10       1.0  0.22671  0.38754  0.49019  1.0000
  H   H11       1.0  0.25423  0.44244  0.48575  1.0000
  H   H12       1.0  0.21213  0.43953  0.23305  1.0000
  H   H13       1.0  0.18658  0.38494  0.23556  1.0000
  H   H14       1.0  0.14803  0.34621  0.49040  1.0000
  H   H15       1.0  0.09312  0.31882  0.48600  1.0000
  N   N5        1.0  0.35466  0.18089  0.36356  1.0000
  C   C28       1.0  0.33848  0.19781  0.36565  1.0000
  C   C29       1.0  0.33775  0.14780  0.36563  1.0000
  C   C30       1.0  0.38776  0.19707  0.36562  1.0000
  C   C31       1.0  0.40549  0.21674  0.29346  1.0000
  C   C32       1.0  0.43804  0.23286  0.29631  1.0000
  C   C33       1.0  0.45474  0.23020  0.37115  1.0000
  C   C34       1.0  0.43651  0.20959  0.44174  1.0000
  C   C35       1.0  0.40400  0.19383  0.43984  1.0000
  C   C36       1.0  0.31880  0.19585  0.29350  1.0000
  C   C37       1.0  0.30267  0.21227  0.29636  1.0000
  C   C38       1.0  0.30534  0.23164  0.37116  1.0000
  C   C39       1.0  0.32597  0.23405  0.44174  1.0000
  C   C40       1.0  0.34173  0.21729  0.43984  1.0000
  C   C41       1.0  0.31835  0.13156  0.43998  1.0000
  C   C42       1.0  0.30160  0.09904  0.44189  1.0000
  C   C43       1.0  0.30392  0.08083  0.37113  1.0000
  C   C44       1.0  0.32320  0.09752  0.29616  1.0000
  C   C45       1.0  0.33963  0.13007  0.29333  1.0000
  H   H16       1.0  0.28842  0.20953  0.24267  1.0000
  H   H17       1.0  0.31593  0.18212  0.23829  1.0000
  H   H18       1.0  0.35613  0.21976  0.49277  1.0000
  H   H19       1.0  0.33057  0.24880  0.49523  1.0000
  H   H20       1.0  0.39464  0.21961  0.23824  1.0000
  H   H21       1.0  0.44955  0.24711  0.24263  1.0000
  H   H22       1.0  0.31593  0.14350  0.49299  1.0000
  H   H23       1.0  0.28690  0.08888  0.49548  1.0000
  H   H24       1.0  0.32588  0.08602  0.24235  1.0000
  H   H25       1.0  0.35329  0.14093  0.23801  1.0000
  H   H26       1.0  0.39206  0.17943  0.49277  1.0000
  H   H27       1.0  0.44667  0.20499  0.49524  1.0000
  N   N6        1.0  0.26272  0.27337  0.43771  1.0000
  C   C46       1.0  0.27838  0.25787  0.45049  1.0000
  C   C47       1.0  0.28857  0.24840  0.37229  1.0000
  C   C48       1.0  0.28071  0.24995  0.53977  1.0000
  O   O7        1.0  0.28879  0.26976  0.59886  1.0000
  O   O8        1.0  0.26488  0.22328  0.56782  1.0000
  H   H28       1.0  0.25563  0.20677  0.53235  1.0000
  N   N7        1.0  0.26231  0.49650  0.43765  1.0000
  C   C49       1.0  0.27779  0.02765  0.45042  1.0000
  C   C50       1.0  0.28715  0.04731  0.37222  1.0000
  C   C51       1.0  0.28594  0.03790  0.53968  1.0000
  O   O9        1.0  0.26609  0.02632  0.59870  1.0000
  O   O10       1.0  0.31267  0.04854  0.56691  1.0000
  H   H29       1.0  0.32907  0.05570  0.53101  1.0000
  N   N8        1.0  0.03907  0.27285  0.43773  1.0000
  C   C52       1.0  0.50792  0.25718  0.45050  1.0000
  C   C53       1.0  0.48826  0.24696  0.37228  1.0000
  C   C54       1.0  0.49766  0.25490  0.53976  1.0000
  O   O11       1.0  0.50940  0.24687  0.59896  1.0000
  O   O12       1.0  0.48680  0.27073  0.56765  1.0000
  H   H30       1.0  0.47953  0.27995  0.53210  1.0000
  C   C55       1.0  0.25546  0.78143  0.35613  1.0000
  N   N9        1.0  0.28052  0.75566  0.29072  1.0000
  C   C56       1.0  0.26497  0.77125  0.27796  1.0000
  C   C57       1.0  0.25731  0.77377  0.18859  1.0000
  O   O13       1.0  0.23057  0.75623  0.16728  1.0000
  O   O14       1.0  0.27589  0.78091  0.12505  1.0000
  H   H31       1.0  0.29607  0.79259  0.13140  1.0000
  C   C58       1.0  0.25410  0.98116  0.35608  1.0000
  N   N10       1.0  0.27975  0.53199  0.29064  1.0000
  C   C59       1.0  0.26413  0.00085  0.27791  1.0000
  C   C60       1.0  0.26152  0.99071  0.18849  1.0000
  O   O15       1.0  0.27839  0.98084  0.16588  1.0000
  O   O16       1.0  0.25396  0.00195  0.12526  1.0000
  H   H32       1.0  0.24259  0.01076  0.13225  1.0000
  C   C61       1.0  0.05440  0.78009  0.35615  1.0000
  N   N11       1.0  0.50358  0.75499  0.29072  1.0000
  C   C62       1.0  0.03472  0.77051  0.27798  1.0000
  C   C63       1.0  0.04485  0.77820  0.18861  1.0000
  O   O17       1.0  0.05471  0.80498  0.16645  1.0000
  O   O18       1.0  0.03362  0.75952  0.12512  1.0000
  H   H33       1.0  0.02483  0.73932  0.13178  1.0000
  N   N12       1.0  0.18800  0.84756  0.36490  1.0000
  C   C64       1.0  0.20489  0.83136  0.36277  1.0000
  C   C65       1.0  0.20420  0.88065  0.36276  1.0000
  C   C66       1.0  0.15490  0.83066  0.36279  1.0000
  C   C67       1.0  0.13867  0.81129  0.28842  1.0000
  C   C68       1.0  0.10615  0.79455  0.28647  1.0000
  C   C69       1.0  0.08793  0.79687  0.35721  1.0000
  C   C70       1.0  0.10463  0.81615  0.43219  1.0000
  C   C71       1.0  0.13717  0.83256  0.43507  1.0000
  C   C72       1.0  0.22425  0.83449  0.28836  1.0000
  C   C73       1.0  0.24098  0.81870  0.28640  1.0000
  C   C74       1.0  0.23868  0.79818  0.35719  1.0000
  C   C75       1.0  0.21943  0.79562  0.43219  1.0000
  C   C76       1.0  0.20302  0.81176  0.43507  1.0000
  C   C77       1.0  0.22386  0.89839  0.43493  1.0000
  C   C78       1.0  0.24000  0.93094  0.43203  1.0000
  C   C79       1.0  0.23736  0.94764  0.35715  1.0000
  C   C80       1.0  0.21675  0.92940  0.28655  1.0000
  C   C81       1.0  0.20098  0.89688  0.28849  1.0000
  H   H34       1.0  0.25568  0.82326  0.23281  1.0000
  H   H35       1.0  0.22665  0.84884  0.23533  1.0000
  H   H36       1.0  0.18938  0.80898  0.49044  1.0000
  H   H37       1.0  0.21677  0.78146  0.48604  1.0000
  H   H38       1.0  0.15061  0.80885  0.23543  1.0000
  H   H39       1.0  0.09601  0.77983  0.23292  1.0000
  H   H40       1.0  0.22671  0.88754  0.49019  1.0000
  H   H41       1.0  0.25423  0.94244  0.48575  1.0000
  H   H42       1.0  0.21213  0.93953  0.23305  1.0000
  H   H43       1.0  0.18658  0.88494  0.23556  1.0000
  H   H44       1.0  0.14803  0.84621  0.49040  1.0000
  H   H45       1.0  0.09312  0.81882  0.48600  1.0000
  N   N13       1.0  0.35467  0.68089  0.36356  1.0000
  C   C82       1.0  0.33848  0.69781  0.36565  1.0000
  C   C83       1.0  0.33775  0.64780  0.36563  1.0000
  C   C84       1.0  0.38776  0.69707  0.36562  1.0000
  C   C85       1.0  0.40549  0.71674  0.29346  1.0000
  C   C86       1.0  0.43804  0.73286  0.29631  1.0000
  C   C87       1.0  0.45474  0.73020  0.37115  1.0000
  C   C88       1.0  0.43651  0.70959  0.44174  1.0000
  C   C89       1.0  0.40400  0.69383  0.43984  1.0000
  C   C90       1.0  0.31880  0.69585  0.29350  1.0000
  C   C91       1.0  0.30267  0.71227  0.29636  1.0000
  C   C92       1.0  0.30534  0.73164  0.37116  1.0000
  C   C93       1.0  0.32597  0.73405  0.44174  1.0000
  C   C94       1.0  0.34173  0.71729  0.43984  1.0000
  C   C95       1.0  0.31835  0.63156  0.43998  1.0000
  C   C96       1.0  0.30160  0.59904  0.44189  1.0000
  C   C97       1.0  0.30392  0.58083  0.37113  1.0000
  C   C98       1.0  0.32320  0.59752  0.29616  1.0000
  C   C99       1.0  0.33963  0.63007  0.29333  1.0000
  H   H46       1.0  0.28842  0.70953  0.24267  1.0000
  H   H47       1.0  0.31593  0.68212  0.23829  1.0000
  H   H48       1.0  0.35613  0.71976  0.49277  1.0000
  H   H49       1.0  0.33057  0.74880  0.49523  1.0000
  H   H50       1.0  0.39464  0.71961  0.23824  1.0000
  H   H51       1.0  0.44955  0.74711  0.24263  1.0000
  H   H52       1.0  0.31593  0.64350  0.49299  1.0000
  H   H53       1.0  0.28690  0.58888  0.49548  1.0000
  H   H54       1.0  0.32588  0.58602  0.24235  1.0000
  H   H55       1.0  0.35329  0.64093  0.23801  1.0000
  H   H56       1.0  0.39206  0.67943  0.49277  1.0000
  H   H57       1.0  0.44667  0.70500  0.49524  1.0000
  N   N14       1.0  0.26272  0.77336  0.43771  1.0000
  C   C100      1.0  0.27838  0.75787  0.45049  1.0000
  C   C101      1.0  0.28857  0.74840  0.37229  1.0000
  C   C102      1.0  0.28071  0.74995  0.53977  1.0000
  O   O19       1.0  0.28879  0.76976  0.59886  1.0000
  O   O20       1.0  0.26488  0.72328  0.56782  1.0000
  H   H58       1.0  0.25563  0.70677  0.53235  1.0000
  N   N15       1.0  0.26231  0.99650  0.43765  1.0000
  C   C103      1.0  0.27779  0.52765  0.45042  1.0000
  C   C104      1.0  0.28715  0.54731  0.37222  1.0000
  C   C105      1.0  0.28594  0.53790  0.53968  1.0000
  O   O21       1.0  0.26609  0.52633  0.59870  1.0000
  O   O22       1.0  0.31267  0.54854  0.56691  1.0000
  H   H59       1.0  0.32907  0.55571  0.53101  1.0000
  N   N16       1.0  0.03907  0.77285  0.43773  1.0000
  C   C106      1.0  0.50792  0.75718  0.45050  1.0000
  C   C107      1.0  0.48826  0.74696  0.37228  1.0000
  C   C108      1.0  0.49766  0.75490  0.53976  1.0000
  O   O23       1.0  0.50940  0.74687  0.59896  1.0000
  O   O24       1.0  0.48680  0.77073  0.56765  1.0000
  H   H60       1.0  0.47953  0.77995  0.53210  1.0000
  C   C109      1.0  0.75546  0.28143  0.35613  1.0000
  N   N17       1.0  0.78052  0.25566  0.29072  1.0000
  C   C110      1.0  0.76497  0.27125  0.27796  1.0000
  C   C111      1.0  0.75731  0.27377  0.18859  1.0000
  O   O25       1.0  0.73056  0.25623  0.16728  1.0000
  O   O26       1.0  0.77589  0.28091  0.12505  1.0000
  H   H61       1.0  0.79607  0.29259  0.13140  1.0000
  C   C112      1.0  0.75410  0.48116  0.35608  1.0000
  N   N18       1.0  0.77975  0.03199  0.29064  1.0000
  C   C113      1.0  0.76413  0.50085  0.27791  1.0000
  C   C114      1.0  0.76152  0.49071  0.18849  1.0000
  O   O27       1.0  0.77839  0.48084  0.16588  1.0000
  O   O28       1.0  0.75396  0.50195  0.12526  1.0000
  H   H62       1.0  0.74259  0.51076  0.13225  1.0000
  C   C115      1.0  0.55440  0.28009  0.35615  1.0000
  N   N19       1.0  0.00358  0.25499  0.29072  1.0000
  C   C116      1.0  0.53472  0.27051  0.27798  1.0000
  C   C117      1.0  0.54485  0.27820  0.18861  1.0000
  O   O29       1.0  0.55471  0.30498  0.16645  1.0000
  O   O30       1.0  0.53362  0.25952  0.12512  1.0000
  H   H63       1.0  0.52483  0.23932  0.13178  1.0000
  N   N20       1.0  0.68800  0.34756  0.36490  1.0000
  C   C118      1.0  0.70488  0.33136  0.36277  1.0000
  C   C119      1.0  0.70420  0.38066  0.36276  1.0000
  C   C120      1.0  0.65490  0.33066  0.36279  1.0000
  C   C121      1.0  0.63867  0.31128  0.28842  1.0000
  C   C122      1.0  0.60615  0.29455  0.28647  1.0000
  C   C123      1.0  0.58792  0.29687  0.35721  1.0000
  C   C124      1.0  0.60462  0.31614  0.43219  1.0000
  C   C125      1.0  0.63718  0.33256  0.43507  1.0000
  C   C126      1.0  0.72425  0.33449  0.28836  1.0000
  C   C127      1.0  0.74098  0.31870  0.28640  1.0000
  C   C128      1.0  0.73868  0.29818  0.35719  1.0000
  C   C129      1.0  0.71943  0.29562  0.43219  1.0000
  C   C130      1.0  0.70302  0.31176  0.43507  1.0000
  C   C131      1.0  0.72386  0.39839  0.43493  1.0000
  C   C132      1.0  0.74000  0.43094  0.43203  1.0000
  C   C133      1.0  0.73736  0.44763  0.35715  1.0000
  C   C134      1.0  0.71675  0.42940  0.28655  1.0000
  C   C135      1.0  0.70098  0.39688  0.28849  1.0000
  H   H64       1.0  0.75568  0.32327  0.23281  1.0000
  H   H65       1.0  0.72665  0.34884  0.23533  1.0000
  H   H66       1.0  0.68938  0.30898  0.49044  1.0000
  H   H67       1.0  0.71677  0.28146  0.48604  1.0000
  H   H68       1.0  0.65061  0.30885  0.23543  1.0000
  H   H69       1.0  0.59601  0.27983  0.23292  1.0000
  H   H70       1.0  0.72671  0.38754  0.49019  1.0000
  H   H71       1.0  0.75423  0.44244  0.48575  1.0000
  H   H72       1.0  0.71213  0.43953  0.23305  1.0000
  H   H73       1.0  0.68658  0.38494  0.23556  1.0000
  H   H74       1.0  0.64803  0.34621  0.49040  1.0000
  H   H75       1.0  0.59312  0.31882  0.48600  1.0000
  N   N21       1.0  0.85466  0.18089  0.36356  1.0000
  C   C136      1.0  0.83848  0.19781  0.36565  1.0000
  C   C137      1.0  0.83775  0.14780  0.36563  1.0000
  C   C138      1.0  0.88776  0.19707  0.36562  1.0000
  C   C139      1.0  0.90549  0.21674  0.29346  1.0000
  C   C140      1.0  0.93804  0.23286  0.29631  1.0000
  C   C141      1.0  0.95474  0.23020  0.37115  1.0000
  C   C142      1.0  0.93651  0.20959  0.44174  1.0000
  C   C143      1.0  0.90400  0.19383  0.43984  1.0000
  C   C144      1.0  0.81880  0.19585  0.29350  1.0000
  C   C145      1.0  0.80267  0.21227  0.29636  1.0000
  C   C146      1.0  0.80534  0.23164  0.37116  1.0000
  C   C147      1.0  0.82597  0.23405  0.44174  1.0000
  C   C148      1.0  0.84173  0.21729  0.43984  1.0000
  C   C149      1.0  0.81835  0.13156  0.43998  1.0000
  C   C150      1.0  0.80160  0.09904  0.44189  1.0000
  C   C151      1.0  0.80392  0.08083  0.37113  1.0000
  C   C152      1.0  0.82320  0.09752  0.29616  1.0000
  C   C153      1.0  0.83963  0.13007  0.29333  1.0000
  H   H76       1.0  0.78842  0.20953  0.24267  1.0000
  H   H77       1.0  0.81592  0.18212  0.23829  1.0000
  H   H78       1.0  0.85613  0.21976  0.49277  1.0000
  H   H79       1.0  0.83057  0.24880  0.49523  1.0000
  H   H80       1.0  0.89464  0.21961  0.23824  1.0000
  H   H81       1.0  0.94955  0.24711  0.24263  1.0000
  H   H82       1.0  0.81593  0.14350  0.49299  1.0000
  H   H83       1.0  0.78690  0.08888  0.49548  1.0000
  H   H84       1.0  0.82588  0.08602  0.24235  1.0000
  H   H85       1.0  0.85329  0.14093  0.23801  1.0000
  H   H86       1.0  0.89206  0.17943  0.49277  1.0000
  H   H87       1.0  0.94667  0.20499  0.49524  1.0000
  N   N22       1.0  0.76272  0.27337  0.43771  1.0000
  C   C154      1.0  0.77838  0.25787  0.45049  1.0000
  C   C155      1.0  0.78857  0.24840  0.37229  1.0000
  C   C156      1.0  0.78071  0.24995  0.53977  1.0000
  O   O31       1.0  0.78879  0.26976  0.59886  1.0000
  O   O32       1.0  0.76488  0.22328  0.56782  1.0000
  H   H88       1.0  0.75563  0.20677  0.53235  1.0000
  N   N23       1.0  0.76231  0.49650  0.43765  1.0000
  C   C157      1.0  0.77779  0.02765  0.45042  1.0000
  C   C158      1.0  0.78715  0.04731  0.37222  1.0000
  C   C159      1.0  0.78594  0.03790  0.53968  1.0000
  O   O33       1.0  0.76609  0.02632  0.59870  1.0000
  O   O34       1.0  0.81267  0.04854  0.56691  1.0000
  H   H89       1.0  0.82907  0.05570  0.53101  1.0000
  N   N24       1.0  0.53907  0.27285  0.43773  1.0000
  C   C160      1.0  0.00792  0.25718  0.45050  1.0000
  C   C161      1.0  0.98826  0.24696  0.37228  1.0000
  C   C162      1.0  0.99766  0.25490  0.53976  1.0000
  O   O35       1.0  0.00940  0.24687  0.59896  1.0000
  O   O36       1.0  0.98680  0.27073  0.56765  1.0000
  H   H90       1.0  0.97954  0.27995  0.53210  1.0000
  C   C163      1.0  0.75546  0.78143  0.35613  1.0000
  N   N25       1.0  0.78052  0.75566  0.29072  1.0000
  C   C164      1.0  0.76497  0.77125  0.27796  1.0000
  C   C165      1.0  0.75731  0.77377  0.18859  1.0000
  O   O37       1.0  0.73057  0.75623  0.16728  1.0000
  O   O38       1.0  0.77589  0.78091  0.12505  1.0000
  H   H91       1.0  0.79607  0.79259  0.13140  1.0000
  C   C166      1.0  0.75410  0.98116  0.35608  1.0000
  N   N26       1.0  0.77975  0.53199  0.29064  1.0000
  C   C167      1.0  0.76413  0.00085  0.27791  1.0000
  C   C168      1.0  0.76152  0.99071  0.18849  1.0000
  O   O39       1.0  0.77839  0.98084  0.16588  1.0000
  O   O40       1.0  0.75396  0.00195  0.12526  1.0000
  H   H92       1.0  0.74259  0.01076  0.13225  1.0000
  C   C169      1.0  0.55440  0.78009  0.35615  1.0000
  N   N27       1.0  0.00358  0.75499  0.29072  1.0000
  C   C170      1.0  0.53472  0.77051  0.27798  1.0000
  C   C171      1.0  0.54485  0.77820  0.18861  1.0000
  O   O41       1.0  0.55471  0.80498  0.16645  1.0000
  O   O42       1.0  0.53362  0.75952  0.12512  1.0000
  H   H93       1.0  0.52483  0.73932  0.13178  1.0000
  N   N28       1.0  0.68800  0.84756  0.36490  1.0000
  C   C172      1.0  0.70489  0.83136  0.36277  1.0000
  C   C173      1.0  0.70420  0.88065  0.36276  1.0000
  C   C174      1.0  0.65490  0.83066  0.36279  1.0000
  C   C175      1.0  0.63867  0.81129  0.28842  1.0000
  C   C176      1.0  0.60615  0.79455  0.28647  1.0000
  C   C177      1.0  0.58793  0.79687  0.35721  1.0000
  C   C178      1.0  0.60463  0.81615  0.43219  1.0000
  C   C179      1.0  0.63718  0.83256  0.43507  1.0000
  C   C180      1.0  0.72425  0.83449  0.28836  1.0000
  C   C181      1.0  0.74098  0.81870  0.28640  1.0000
  C   C182      1.0  0.73868  0.79818  0.35719  1.0000
  C   C183      1.0  0.71943  0.79562  0.43219  1.0000
  C   C184      1.0  0.70302  0.81176  0.43507  1.0000
  C   C185      1.0  0.72386  0.89839  0.43493  1.0000
  C   C186      1.0  0.74000  0.93094  0.43203  1.0000
  C   C187      1.0  0.73736  0.94764  0.35715  1.0000
  C   C188      1.0  0.71675  0.92940  0.28655  1.0000
  C   C189      1.0  0.70098  0.89688  0.28849  1.0000
  H   H94       1.0  0.75568  0.82326  0.23281  1.0000
  H   H95       1.0  0.72665  0.84884  0.23533  1.0000
  H   H96       1.0  0.68938  0.80898  0.49044  1.0000
  H   H97       1.0  0.71677  0.78146  0.48604  1.0000
  H   H98       1.0  0.65061  0.80885  0.23543  1.0000
  H   H99       1.0  0.59601  0.77983  0.23292  1.0000
  H   H100      1.0  0.72671  0.88754  0.49019  1.0000
  H   H101      1.0  0.75423  0.94244  0.48575  1.0000
  H   H102      1.0  0.71213  0.93953  0.23305  1.0000
  H   H103      1.0  0.68658  0.88494  0.23556  1.0000
  H   H104      1.0  0.64803  0.84621  0.49040  1.0000
  H   H105      1.0  0.59312  0.81882  0.48600  1.0000
  N   N29       1.0  0.85467  0.68089  0.36356  1.0000
  C   C190      1.0  0.83848  0.69781  0.36565  1.0000
  C   C191      1.0  0.83775  0.64780  0.36563  1.0000
  C   C192      1.0  0.88776  0.69707  0.36562  1.0000
  C   C193      1.0  0.90549  0.71674  0.29346  1.0000
  C   C194      1.0  0.93804  0.73286  0.29631  1.0000
  C   C195      1.0  0.95474  0.73020  0.37115  1.0000
  C   C196      1.0  0.93652  0.70959  0.44174  1.0000
  C   C197      1.0  0.90400  0.69383  0.43984  1.0000
  C   C198      1.0  0.81880  0.69585  0.29350  1.0000
  C   C199      1.0  0.80267  0.71227  0.29636  1.0000
  C   C200      1.0  0.80534  0.73164  0.37116  1.0000
  C   C201      1.0  0.82597  0.73405  0.44174  1.0000
  C   C202      1.0  0.84173  0.71729  0.43984  1.0000
  C   C203      1.0  0.81835  0.63156  0.43998  1.0000
  C   C204      1.0  0.80160  0.59904  0.44189  1.0000
  C   C205      1.0  0.80393  0.58083  0.37113  1.0000
  C   C206      1.0  0.82320  0.59752  0.29616  1.0000
  C   C207      1.0  0.83963  0.63007  0.29333  1.0000
  H   H106      1.0  0.78842  0.70953  0.24267  1.0000
  H   H107      1.0  0.81593  0.68212  0.23829  1.0000
  H   H108      1.0  0.85613  0.71976  0.49277  1.0000
  H   H109      1.0  0.83057  0.74880  0.49523  1.0000
  H   H110      1.0  0.89464  0.71961  0.23824  1.0000
  H   H111      1.0  0.94955  0.74711  0.24263  1.0000
  H   H112      1.0  0.81593  0.64350  0.49299  1.0000
  H   H113      1.0  0.78690  0.58888  0.49548  1.0000
  H   H114      1.0  0.82588  0.58602  0.24235  1.0000
  H   H115      1.0  0.85329  0.64093  0.23801  1.0000
  H   H116      1.0  0.89206  0.67943  0.49277  1.0000
  H   H117      1.0  0.94667  0.70500  0.49524  1.0000
  N   N30       1.0  0.76272  0.77336  0.43771  1.0000
  C   C208      1.0  0.77838  0.75787  0.45049  1.0000
  C   C209      1.0  0.78857  0.74840  0.37229  1.0000
  C   C210      1.0  0.78071  0.74995  0.53977  1.0000
  O   O43       1.0  0.78879  0.76976  0.59886  1.0000
  O   O44       1.0  0.76488  0.72328  0.56782  1.0000
  H   H118      1.0  0.75563  0.70677  0.53235  1.0000
  N   N31       1.0  0.76231  0.99650  0.43765  1.0000
  C   C211      1.0  0.77779  0.52765  0.45042  1.0000
  C   C212      1.0  0.78715  0.54731  0.37222  1.0000
  C   C213      1.0  0.78594  0.53790  0.53968  1.0000
  O   O45       1.0  0.76609  0.52633  0.59870  1.0000
  O   O46       1.0  0.81267  0.54854  0.56691  1.0000
  H   H119      1.0  0.82907  0.55571  0.53101  1.0000
  N   N32       1.0  0.53907  0.77285  0.43773  1.0000
  C   C214      1.0  0.00792  0.75718  0.45050  1.0000
  C   C215      1.0  0.98826  0.74696  0.37228  1.0000
  C   C216      1.0  0.99766  0.75490  0.53976  1.0000
  O   O47       1.0  0.00940  0.74687  0.59896  1.0000
  O   O48       1.0  0.98680  0.77073  0.56765  1.0000
  H   H120      1.0  0.97954  0.77995  0.53210  1.0000
