data_image0
_chemical_formula_structural       C3NC3NC5NC5NC36H26C4H4C3NH3NC3NH3NC16H16CN3CN3
_chemical_formula_sum              "C80 N14 H52"
_cell_length_a       34.3767
_cell_length_b       34.3767
_cell_length_c       14.7001
_cell_angle_alpha    90
_cell_angle_beta     90
_cell_angle_gamma    90.1689

_space_group_name_H-M_alt    "P 1"
_space_group_IT_number       1

loop_
  _space_group_symop_operation_xyz
  'x, y, z'

loop_
  _atom_site_type_symbol
  _atom_site_label
  _atom_site_symmetry_multiplicity
  _atom_site_fract_x
  _atom_site_fract_y
  _atom_site_fract_z
  _atom_site_occupancy
  C   C1        1.0  0.11188  0.08382  0.33713  1.0000
  C   C2        1.0  0.08327  0.11198  0.33712  1.0000
  C   C3        1.0  0.04701  0.09349  0.33813  1.0000
  N   N1        1.0  0.05518  0.05482  0.33826  1.0000
  C   C4        1.0  0.09399  0.04725  0.33725  1.0000
  C   C5        1.0  0.11415  0.01098  0.33663  1.0000
  C   C6        1.0  0.09539  0.97398  0.33658  1.0000
  N   N2        1.0  0.05676  0.96598  0.33737  1.0000
  C   C7        1.0  0.04931  0.92725  0.33619  1.0000
  C   C8        1.0  0.08568  0.90923  0.33484  1.0000
  C   C9        1.0  0.11393  0.93789  0.33467  1.0000
  C   C10       1.0  0.01259  0.90793  0.33639  1.0000
  C   C11       1.0  0.97603  0.92749  0.33724  1.0000
  N   N3        1.0  0.96786  0.96617  0.33771  1.0000
  C   C12       1.0  0.92905  0.97372  0.33754  1.0000
  C   C13       1.0  0.91117  0.93715  0.33757  1.0000
  C   C14       1.0  0.93978  0.90899  0.33696  1.0000
  C   C15       1.0  0.90890  0.00999  0.33760  1.0000
  C   C16       1.0  0.92765  0.04698  0.33782  1.0000
  N   N4        1.0  0.96628  0.05500  0.33845  1.0000
  C   C17       1.0  0.97373  0.09374  0.33773  1.0000
  C   C18       1.0  0.93734  0.11174  0.33694  1.0000
  C   C19       1.0  0.90909  0.08307  0.33648  1.0000
  C   C20       1.0  0.01045  0.11307  0.33792  1.0000
  C   C21       1.0  0.01045  0.15487  0.33540  1.0000
  C   C22       1.0  0.00377  0.17481  0.25288  1.0000
  C   C23       1.0  0.00248  0.21578  0.25034  1.0000
  C   C24       1.0  0.00790  0.23863  0.32981  1.0000
  C   C25       1.0  0.00493  0.28046  0.32676  1.0000
  C   C26       1.0  0.99965  0.36426  0.31270  1.0000
  C   C27       1.0  0.97324  0.33938  0.26677  1.0000
  C   C28       1.0  0.97574  0.29862  0.27382  1.0000
  C   C29       1.0  0.86710  0.00926  0.33500  1.0000
  C   C30       1.0  0.84725  0.00209  0.25252  1.0000
  C   C31       1.0  0.80628  0.00060  0.24973  1.0000
  C   C32       1.0  0.78333  0.00632  0.32886  1.0000
  C   C33       1.0  0.74148  0.00338  0.32553  1.0000
  C   C34       1.0  0.72316  0.97408  0.27286  1.0000
  C   C35       1.0  0.68240  0.97162  0.26551  1.0000
  C   C36       1.0  0.65767  0.99821  0.31086  1.0000
  C   C37       1.0  0.01257  0.86615  0.33396  1.0000
  C   C38       1.0  0.01504  0.78236  0.32884  1.0000
  C   C39       1.0  0.01886  0.80507  0.24865  1.0000
  C   C40       1.0  0.01762  0.84606  0.25097  1.0000
  C   C41       1.0  0.01814  0.74051  0.32643  1.0000
  C   C42       1.0  0.04618  0.72206  0.27065  1.0000
  C   C43       1.0  0.04985  0.68127  0.26792  1.0000
  C   C44       1.0  0.02566  0.65661  0.32073  1.0000
  C   C45       1.0  0.15595  0.01170  0.33422  1.0000
  C   C46       1.0  0.17599  0.01919  0.25213  1.0000
  C   C47       1.0  0.21698  0.02074  0.24985  1.0000
  C   C48       1.0  0.23973  0.01467  0.32915  1.0000
  C   C49       1.0  0.28157  0.01781  0.32691  1.0000
  C   C50       1.0  0.36552  0.02507  0.32085  1.0000
  C   C51       1.0  0.34095  0.05118  0.27347  1.0000
  C   C52       1.0  0.30013  0.04763  0.27635  1.0000
  H   H1        1.0  0.35261  0.07338  0.23566  1.0000
  H   H2        1.0  0.28396  0.06779  0.24193  1.0000
  H   H3        1.0  0.23016  0.02606  0.18867  1.0000
  H   H4        1.0  0.16079  0.02385  0.19326  1.0000
  H   H5        1.0  0.14104  0.08967  0.33663  1.0000
  H   H6        1.0  0.08864  0.14123  0.33637  1.0000
  H   H7        1.0  0.03554  0.03488  0.33854  1.0000
  H   H8        1.0  0.98750  0.98611  0.33747  1.0000
  H   H9        1.0  0.14319  0.93274  0.33319  1.0000
  H   H10       1.0  0.09125  0.88004  0.33379  1.0000
  H   H11       1.0  0.02077  0.86123  0.19148  1.0000
  H   H12       1.0  0.02238  0.79187  0.18684  1.0000
  H   H13       1.0  0.93442  0.87973  0.33641  1.0000
  H   H14       1.0  0.88200  0.93130  0.33779  1.0000
  H   H15       1.0  0.93174  0.14092  0.33643  1.0000
  H   H16       1.0  0.87983  0.08821  0.33535  1.0000
  H   H17       1.0  0.86257  0.99768  0.19372  1.0000
  H   H18       1.0  0.79327  0.99561  0.18819  1.0000
  H   H19       1.0  0.67091  0.95014  0.22524  1.0000
  H   H20       1.0  0.73945  0.95390  0.23884  1.0000
  H   H21       1.0  0.95567  0.28223  0.23939  1.0000
  H   H22       1.0  0.95183  0.35076  0.22628  1.0000
  H   H23       1.0  0.99775  0.22886  0.18882  1.0000
  H   H24       1.0  0.99945  0.15956  0.19390  1.0000
  H   H25       1.0  0.06502  0.73828  0.23224  1.0000
  H   H26       1.0  0.07074  0.66970  0.22628  1.0000
  C   C53       1.0  0.99757  0.40444  0.29747  1.0000
  C   C54       1.0  0.61748  0.99618  0.29539  1.0000
  C   C55       1.0  0.03035  0.61614  0.31482  1.0000
  C   C56       1.0  0.40604  0.02948  0.31426  1.0000
  H   H27       1.0  0.98368  0.41302  0.24158  1.0000
  H   H28       1.0  0.41619  0.05236  0.27983  1.0000
  H   H29       1.0  0.05321  0.60619  0.28024  1.0000
  H   H30       1.0  0.60886  0.98236  0.23940  1.0000
  C   C57       1.0  0.01023  0.47008  0.34178  1.0000
  C   C58       1.0  0.00762  0.49025  0.25813  1.0000
  C   C59       1.0  0.00580  0.53142  0.25549  1.0000
  N   N5        1.0  0.00120  0.54961  0.17412  1.0000
  H   H31       1.0  0.99884  0.53487  0.11784  1.0000
  H   H32       1.0  0.99772  0.57757  0.16998  1.0000
  H   H33       1.0  0.00661  0.47491  0.19857  1.0000
  N   N6        1.0  0.01106  0.43116  0.35074  1.0000
  C   C60       1.0  0.55193  0.00882  0.33995  1.0000
  C   C61       1.0  0.53164  0.00607  0.25645  1.0000
  C   C62       1.0  0.49045  0.00438  0.25410  1.0000
  N   N7        1.0  0.47210  0.99970  0.17290  1.0000
  H   H34       1.0  0.48672  0.99741  0.11647  1.0000
  H   H35       1.0  0.44407  0.99661  0.16891  1.0000
  H   H36       1.0  0.54689  0.00487  0.19682  1.0000
  N   N8        1.0  0.59085  0.00959  0.34877  1.0000
  C   C63       1.0  0.01542  0.21834  0.41192  1.0000
  C   C64       1.0  0.01646  0.17728  0.41486  1.0000
  C   C65       1.0  0.03081  0.30537  0.37463  1.0000
  C   C66       1.0  0.02837  0.34635  0.36752  1.0000
  C   C67       1.0  0.80353  0.01421  0.41097  1.0000
  C   C68       1.0  0.84459  0.01550  0.41416  1.0000
  C   C69       1.0  0.67571  0.02704  0.36541  1.0000
  C   C70       1.0  0.71670  0.02942  0.37281  1.0000
  C   C71       1.0  0.00821  0.84389  0.41420  1.0000
  C   C72       1.0  0.00927  0.80284  0.41151  1.0000
  C   C73       1.0  0.99756  0.67489  0.37669  1.0000
  C   C74       1.0  0.99405  0.71586  0.37973  1.0000
  C   C75       1.0  0.17828  0.00519  0.41353  1.0000
  C   C76       1.0  0.21933  0.00648  0.41084  1.0000
  C   C77       1.0  0.30612  0.99183  0.37498  1.0000
  C   C78       1.0  0.34711  0.99522  0.37172  1.0000
  H   H37       1.0  0.36344  0.97546  0.40694  1.0000
  H   H38       1.0  0.29429  0.96942  0.41162  1.0000
  H   H39       1.0  0.23422  0.00258  0.47038  1.0000
  H   H40       1.0  0.16471  0.99983  0.47425  1.0000
  H   H41       1.0  0.00475  0.85752  0.47558  1.0000
  H   H42       1.0  0.00712  0.78802  0.47166  1.0000
  H   H43       1.0  0.85803  0.02067  0.47512  1.0000
  H   H44       1.0  0.78847  0.01800  0.47032  1.0000
  H   H45       1.0  0.72839  0.05155  0.41060  1.0000
  H   H46       1.0  0.65914  0.04733  0.39832  1.0000
  H   H47       1.0  0.02119  0.16376  0.47589  1.0000
  H   H48       1.0  0.01890  0.23333  0.47151  1.0000
  H   H49       1.0  0.04851  0.36302  0.40094  1.0000
  H   H50       1.0  0.05280  0.29378  0.41277  1.0000
  H   H51       1.0  0.97296  0.72757  0.42039  1.0000
  H   H52       1.0  0.97929  0.65847  0.41613  1.0000
  C   C79       1.0  0.00812  0.55193  0.33937  1.0000
  N   N9        1.0  0.01076  0.53053  0.41696  1.0000
  N   N10       1.0  0.01185  0.49235  0.41808  1.0000
  N   N11       1.0  0.00634  0.59072  0.34718  1.0000
  C   C80       1.0  0.47006  0.00695  0.33808  1.0000
  N   N12       1.0  0.49158  0.00970  0.41551  1.0000
  N   N13       1.0  0.52976  0.01068  0.41637  1.0000
  N   N14       1.0  0.43127  0.00533  0.34620  1.0000
