data_image0
_chemical_formula_structural       HC3HC17H20C16H20C16H20CNC4H2CH3NHCNC4H2CH3NHCNC4H2CH3NHCNC4H2CH3NHCNC4H2CH3NHCNC4H2CH3NHC2NC2NC4NC4NC36H24C4H4C3NC3NC5NC5NC36H26C4H4C3NC3NC5NC5NC36H26C4H4C4HCNHCH3NHC4HCNHCH3NHC4HCNHCH3NHC4HCNHCH3NHC4HCNHCH3NHC4HCNHCH3NH
_chemical_formula_sum              "H222 C288 N36"
_cell_length_a       74.7803
_cell_length_b       74.7804
_cell_length_c       14.9887
_cell_angle_alpha    89.9628
_cell_angle_beta     90.0372
_cell_angle_gamma    120

_space_group_name_H-M_alt    "P 1"
_space_group_IT_number       1

loop_
  _space_group_symop_operation_xyz
  'x, y, z'

loop_
  _atom_site_type_symbol
  _atom_site_label
  _atom_site_symmetry_multiplicity
  _atom_site_fract_x
  _atom_site_fract_y
  _atom_site_fract_z
  _atom_site_occupancy
  H   H1        1.0  0.00527  0.61001  0.34496  1.0000
  C   C1        1.0  0.01130  0.50719  0.34018  1.0000
  C   C2        1.0  0.00850  0.58269  0.33875  1.0000
  C   C3        1.0  0.01459  0.60365  0.34260  1.0000
  H   H2        1.0  0.01025  0.47760  0.34652  1.0000
  C   C4        1.0  0.01872  0.49335  0.34352  1.0000
  C   C5        1.0  0.08990  0.53319  0.25488  1.0000
  C   C6        1.0  0.10598  0.52859  0.25397  1.0000
  C   C7        1.0  0.16627  0.53208  0.27254  1.0000
  C   C8        1.0  0.14890  0.53467  0.27182  1.0000
  C   C9        1.0  0.08570  0.64054  0.26716  1.0000
  C   C10       1.0  0.09998  0.66183  0.27276  1.0000
  C   C11       1.0  0.11928  0.70760  0.31913  1.0000
  C   C12       1.0  0.13349  0.72888  0.32657  1.0000
  C   C13       1.0  0.94869  0.57980  0.25426  1.0000
  C   C14       1.0  0.96463  0.57500  0.25503  1.0000
  C   C15       1.0  0.90607  0.57443  0.27309  1.0000
  C   C16       1.0  0.88893  0.57740  0.27385  1.0000
  C   C17       1.0  0.96857  0.46779  0.26701  1.0000
  C   C18       1.0  0.95410  0.44655  0.27256  1.0000
  C   C19       1.0  0.91963  0.37944  0.32498  1.0000
  C   C20       1.0  0.93412  0.40065  0.31762  1.0000
  H   H3        1.0  0.92242  0.36904  0.29251  1.0000
  H   H4        1.0  0.94725  0.40505  0.28119  1.0000
  H   H5        1.0  0.94941  0.43814  0.21483  1.0000
  H   H6        1.0  0.97425  0.47425  0.20587  1.0000
  H   H7        1.0  0.97085  0.57396  0.19575  1.0000
  H   H8        1.0  0.94387  0.58231  0.19403  1.0000
  H   H9        1.0  0.07987  0.63411  0.20614  1.0000
  H   H10       1.0  0.10439  0.67031  0.21515  1.0000
  H   H11       1.0  0.13034  0.73913  0.29506  1.0000
  H   H12       1.0  0.10600  0.70300  0.28355  1.0000
  H   H13       1.0  0.14874  0.54510  0.22807  1.0000
  H   H14       1.0  0.17800  0.54049  0.22860  1.0000
  H   H15       1.0  0.11075  0.52606  0.19371  1.0000
  H   H16       1.0  0.08354  0.53408  0.19568  1.0000
  H   H17       1.0  0.90595  0.56382  0.22966  1.0000
  H   H18       1.0  0.87708  0.56905  0.23035  1.0000
  H   H19       1.0  0.16003  0.76765  0.36880  1.0000
  H   H20       1.0  0.19828  0.52763  0.29137  1.0000
  H   H21       1.0  0.85739  0.58261  0.29265  1.0000
  H   H22       1.0  0.89277  0.34079  0.36842  1.0000
  C   C21       1.0  0.54996  0.64103  0.25541  1.0000
  C   C22       1.0  0.55456  0.66171  0.25448  1.0000
  C   C23       1.0  0.55108  0.71850  0.27301  1.0000
  C   C24       1.0  0.54848  0.69854  0.27236  1.0000
  C   C25       1.0  0.44261  0.52949  0.26775  1.0000
  C   C26       1.0  0.42133  0.52248  0.27337  1.0000
  C   C27       1.0  0.37556  0.49602  0.31973  1.0000
  C   C28       1.0  0.35428  0.48895  0.32718  1.0000
  C   C29       1.0  0.50336  0.45321  0.25476  1.0000
  C   C30       1.0  0.50817  0.47396  0.25554  1.0000
  C   C31       1.0  0.50870  0.41594  0.27356  1.0000
  C   C32       1.0  0.50573  0.39584  0.27436  1.0000
  C   C33       1.0  0.61537  0.58508  0.26762  1.0000
  C   C34       1.0  0.63661  0.59186  0.27321  1.0000
  C   C35       1.0  0.70372  0.62449  0.32558  1.0000
  C   C36       1.0  0.68251  0.61778  0.31822  1.0000
  H   H23       1.0  0.71412  0.63766  0.29304  1.0000
  H   H24       1.0  0.67811  0.62650  0.28170  1.0000
  H   H25       1.0  0.64502  0.59558  0.21548  1.0000
  H   H26       1.0  0.60891  0.58431  0.20648  1.0000
  H   H27       1.0  0.50921  0.48124  0.19627  1.0000
  H   H28       1.0  0.50084  0.44590  0.19452  1.0000
  H   H29       1.0  0.44903  0.53010  0.20672  1.0000
  H   H30       1.0  0.41284  0.51843  0.21577  1.0000
  H   H31       1.0  0.34402  0.47556  0.29562  1.0000
  H   H32       1.0  0.38015  0.48734  0.28409  1.0000
  H   H33       1.0  0.53806  0.68797  0.22853  1.0000
  H   H34       1.0  0.54266  0.72183  0.22909  1.0000
  H   H35       1.0  0.55710  0.66903  0.19422  1.0000
  H   H36       1.0  0.54907  0.63380  0.19621  1.0000
  H   H37       1.0  0.51933  0.42645  0.23019  1.0000
  H   H38       1.0  0.51408  0.39234  0.23090  1.0000
  H   H39       1.0  0.31551  0.47670  0.36958  1.0000
  H   H40       1.0  0.55550  0.75495  0.29191  1.0000
  H   H41       1.0  0.50051  0.35907  0.29319  1.0000
  H   H42       1.0  0.74237  0.63629  0.36926  1.0000
  C   C37       1.0  0.44213  0.99326  0.25582  1.0000
  C   C38       1.0  0.42145  0.97718  0.25482  1.0000
  C   C39       1.0  0.36466  0.91689  0.27319  1.0000
  C   C40       1.0  0.38462  0.93426  0.27260  1.0000
  C   C41       1.0  0.55364  0.99744  0.26842  1.0000
  C   C42       1.0  0.56065  0.98317  0.27401  1.0000
  C   C43       1.0  0.58714  0.96387  0.32027  1.0000
  C   C44       1.0  0.59421  0.94966  0.32770  1.0000
  C   C45       1.0  0.62990  0.13447  0.25506  1.0000
  C   C46       1.0  0.60915  0.11854  0.25592  1.0000
  C   C47       1.0  0.66717  0.17708  0.27379  1.0000
  C   C48       1.0  0.68727  0.19422  0.27449  1.0000
  C   C49       1.0  0.49806  0.11462  0.26809  1.0000
  C   C50       1.0  0.49129  0.12909  0.27371  1.0000
  C   C51       1.0  0.45867  0.16356  0.32619  1.0000
  C   C52       1.0  0.46538  0.14906  0.31882  1.0000
  H   H43       1.0  0.44550  0.16080  0.29365  1.0000
  H   H44       1.0  0.45665  0.13595  0.28225  1.0000
  H   H45       1.0  0.48757  0.13380  0.21600  1.0000
  H   H46       1.0  0.49883  0.10896  0.20694  1.0000
  H   H47       1.0  0.60185  0.11233  0.19668  1.0000
  H   H48       1.0  0.63719  0.13930  0.19477  1.0000
  H   H49       1.0  0.55301  0.00326  0.20738  1.0000
  H   H50       1.0  0.56469  0.97874  0.21639  1.0000
  H   H51       1.0  0.60760  0.95280  0.29610  1.0000
  H   H52       1.0  0.59581  0.97715  0.28463  1.0000
  H   H53       1.0  0.39521  0.93441  0.22892  1.0000
  H   H54       1.0  0.36134  0.90516  0.22931  1.0000
  H   H55       1.0  0.41415  0.97240  0.19453  1.0000
  H   H56       1.0  0.44938  0.99960  0.19665  1.0000
  H   H57       1.0  0.65664  0.17722  0.23053  1.0000
  H   H58       1.0  0.69075  0.20609  0.23110  1.0000
  H   H59       1.0  0.60647  0.92313  0.37001  1.0000
  H   H60       1.0  0.32819  0.88488  0.29185  1.0000
  H   H61       1.0  0.72404  0.22576  0.29319  1.0000
  H   H62       1.0  0.44688  0.19040  0.36992  1.0000
  C   C53       1.0  0.28400  0.49012  0.26017  1.0000
  N   N1        1.0  0.26507  0.48836  0.26243  1.0000
  C   C54       1.0  0.23883  0.49451  0.31747  1.0000
  C   C55       1.0  0.23367  0.50251  0.24153  1.0000
  C   C56       1.0  0.21459  0.50219  0.24252  1.0000
  C   C57       1.0  0.20099  0.49425  0.31593  1.0000
  H   H63       1.0  0.21064  0.50834  0.19028  1.0000
  H   H64       1.0  0.28808  0.48461  0.20622  1.0000
  C   C58       1.0  0.24791  0.51217  0.16462  1.0000
  H   H65       1.0  0.26286  0.52444  0.18817  1.0000
  H   H66       1.0  0.24207  0.51892  0.11617  1.0000
  H   H67       1.0  0.25003  0.50056  0.12980  1.0000
  N   N2        1.0  0.18272  0.49550  0.32140  1.0000
  H   H68       1.0  0.17442  0.48971  0.26354  1.0000
  C   C59       1.0  0.59301  0.87820  0.26064  1.0000
  N   N3        1.0  0.59477  0.86103  0.26294  1.0000
  C   C60       1.0  0.58859  0.82862  0.31807  1.0000
  C   C61       1.0  0.58059  0.81548  0.24215  1.0000
  C   C62       1.0  0.58092  0.79672  0.24314  1.0000
  C   C63       1.0  0.58885  0.79104  0.31656  1.0000
  H   H69       1.0  0.57479  0.78664  0.19084  1.0000
  H   H70       1.0  0.59855  0.88782  0.20674  1.0000
  C   C64       1.0  0.57096  0.82009  0.16518  1.0000
  H   H71       1.0  0.55869  0.82277  0.18866  1.0000
  H   H72       1.0  0.56421  0.80751  0.11673  1.0000
  H   H73       1.0  0.58259  0.83382  0.13036  1.0000
  N   N4        1.0  0.58763  0.77153  0.32200  1.0000
  H   H74       1.0  0.59343  0.76905  0.26413  1.0000
  C   C65       1.0  0.20497  0.79918  0.25970  1.0000
  N   N5        1.0  0.22214  0.81810  0.26206  1.0000
  C   C66       1.0  0.25453  0.84433  0.31731  1.0000
  C   C67       1.0  0.26770  0.84951  0.24147  1.0000
  C   C68       1.0  0.28646  0.86859  0.24260  1.0000
  C   C69       1.0  0.29211  0.88217  0.31603  1.0000
  H   H75       1.0  0.29657  0.87255  0.19043  1.0000
  H   H76       1.0  0.19538  0.79510  0.20569  1.0000
  C   C70       1.0  0.26313  0.83528  0.16454  1.0000
  H   H77       1.0  0.26046  0.82033  0.18809  1.0000
  H   H78       1.0  0.27572  0.84113  0.11617  1.0000
  H   H79       1.0  0.24940  0.83316  0.12962  1.0000
  N   N6        1.0  0.31163  0.90045  0.32165  1.0000
  H   H80       1.0  0.31414  0.90875  0.26379  1.0000
  C   C71       1.0  0.77329  0.62214  0.25957  1.0000
  N   N7        1.0  0.79206  0.62357  0.26192  1.0000
  C   C72       1.0  0.81792  0.61683  0.31713  1.0000
  C   C73       1.0  0.82288  0.60864  0.24136  1.0000
  C   C74       1.0  0.84179  0.60861  0.24254  1.0000
  C   C75       1.0  0.85541  0.61639  0.31596  1.0000
  H   H81       1.0  0.84560  0.60233  0.19039  1.0000
  H   H82       1.0  0.76937  0.62786  0.20573  1.0000
  C   C76       1.0  0.80861  0.59916  0.16439  1.0000
  H   H83       1.0  0.79357  0.58705  0.18789  1.0000
  H   H84       1.0  0.81427  0.59224  0.11603  1.0000
  H   H85       1.0  0.80672  0.61092  0.12949  1.0000
  N   N8        1.0  0.87349  0.61480  0.32164  1.0000
  H   H86       1.0  0.88179  0.62042  0.26368  1.0000
  C   C77       1.0  0.46100  0.23547  0.26018  1.0000
  N   N9        1.0  0.45957  0.25282  0.26248  1.0000
  C   C78       1.0  0.46628  0.28539  0.31761  1.0000
  C   C79       1.0  0.47447  0.29856  0.24183  1.0000
  C   C80       1.0  0.47449  0.31750  0.24300  1.0000
  C   C81       1.0  0.46671  0.32331  0.31642  1.0000
  H   H87       1.0  0.48080  0.32761  0.19090  1.0000
  H   H88       1.0  0.45532  0.22586  0.20630  1.0000
  C   C82       1.0  0.48396  0.29379  0.16492  1.0000
  H   H89       1.0  0.49609  0.29088  0.18849  1.0000
  H   H90       1.0  0.49088  0.30639  0.11654  1.0000
  H   H91       1.0  0.47222  0.28015  0.13000  1.0000
  N   N10       1.0  0.46832  0.34299  0.32212  1.0000
  H   H92       1.0  0.46271  0.34570  0.26417  1.0000
  C   C83       1.0  0.84764  0.30986  0.25909  1.0000
  N   N11       1.0  0.83029  0.29108  0.26156  1.0000
  C   C84       1.0  0.79773  0.26524  0.31699  1.0000
  C   C85       1.0  0.78452  0.26026  0.24132  1.0000
  C   C86       1.0  0.76559  0.24135  0.24264  1.0000
  C   C87       1.0  0.75981  0.22774  0.31609  1.0000
  H   H93       1.0  0.75547  0.23753  0.19056  1.0000
  H   H94       1.0  0.85724  0.31376  0.20520  1.0000
  C   C88       1.0  0.78927  0.27452  0.16434  1.0000
  H   H95       1.0  0.79220  0.28956  0.18783  1.0000
  H   H96       1.0  0.77666  0.26884  0.11606  1.0000
  H   H97       1.0  0.80289  0.27640  0.12932  1.0000
  N   N12       1.0  0.74014  0.20966  0.32190  1.0000
  H   H98       1.0  0.73742  0.20136  0.26394  1.0000
  C   C89       1.0  0.04002  0.50459  0.34228  1.0000
  C   C90       1.0  0.04610  0.52555  0.33861  1.0000
  N   N13       1.0  0.02833  0.52623  0.33723  1.0000
  C   C91       1.0  0.99007  0.50146  0.34015  1.0000
  C   C92       1.0  0.98257  0.51554  0.33826  1.0000
  N   N14       1.0  0.99370  0.53639  0.33829  1.0000
  C   C93       1.0  0.98149  0.54493  0.33666  1.0000
  C   C94       1.0  0.96118  0.52848  0.33533  1.0000
  C   C95       1.0  0.96185  0.51036  0.33649  1.0000
  C   C96       1.0  0.98769  0.56623  0.33713  1.0000
  N   N15       1.0  0.02628  0.58201  0.33727  1.0000
  C   C97       1.0  0.04330  0.60105  0.34034  1.0000
  C   C98       1.0  0.03588  0.61488  0.34390  1.0000
  C   C99       1.0  0.06453  0.60678  0.34022  1.0000
  C   C100      1.0  0.07203  0.59270  0.33829  1.0000
  N   N16       1.0  0.06090  0.57185  0.33837  1.0000
  C   C101      1.0  0.07311  0.56332  0.33663  1.0000
  C   C102      1.0  0.09342  0.57978  0.33519  1.0000
  C   C103      1.0  0.09275  0.59789  0.33638  1.0000
  C   C104      1.0  0.06692  0.54201  0.33708  1.0000
  C   C105      1.0  0.08281  0.53681  0.33639  1.0000
  C   C106      1.0  0.11538  0.52743  0.33423  1.0000
  C   C107      1.0  0.10791  0.53079  0.41571  1.0000
  C   C108      1.0  0.09187  0.53545  0.41690  1.0000
  C   C109      1.0  0.13247  0.52391  0.33284  1.0000
  C   C110      1.0  0.13397  0.51024  0.39388  1.0000
  C   C111      1.0  0.15136  0.50761  0.39448  1.0000
  C   C112      1.0  0.16782  0.51861  0.33421  1.0000
  C   C113      1.0  0.07940  0.62821  0.34489  1.0000
  C   C114      1.0  0.10843  0.67129  0.35589  1.0000
  C   C115      1.0  0.10206  0.65876  0.43338  1.0000
  C   C116      1.0  0.08767  0.63753  0.42812  1.0000
  C   C117      1.0  0.12295  0.69283  0.36181  1.0000
  C   C118      1.0  0.15190  0.73602  0.37624  1.0000
  C   C119      1.0  0.15574  0.72130  0.41780  1.0000
  C   C120      1.0  0.14143  0.70006  0.41128  1.0000
  C   C121      1.0  0.97181  0.57146  0.33653  1.0000
  C   C122      1.0  0.96298  0.57307  0.41715  1.0000
  C   C123      1.0  0.94708  0.57795  0.41611  1.0000
  C   C124      1.0  0.93954  0.58126  0.33467  1.0000
  C   C125      1.0  0.92265  0.58511  0.33347  1.0000
  C   C126      1.0  0.88778  0.59116  0.33501  1.0000
  C   C127      1.0  0.90440  0.60207  0.39471  1.0000
  C   C128      1.0  0.92155  0.59907  0.39401  1.0000
  C   C129      1.0  0.97519  0.48004  0.34489  1.0000
  C   C130      1.0  0.96708  0.47070  0.42824  1.0000
  C   C131      1.0  0.94578  0.43707  0.35581  1.0000
  C   C132      1.0  0.95251  0.44951  0.43347  1.0000
  C   C133      1.0  0.93097  0.41559  0.36164  1.0000
  C   C134      1.0  0.91269  0.40862  0.41223  1.0000
  C   C135      1.0  0.89810  0.38746  0.41868  1.0000
  C   C136      1.0  0.90145  0.37255  0.37590  1.0000
  H   H99       1.0  0.88499  0.38297  0.45536  1.0000
  H   H100      1.0  0.90964  0.41894  0.44379  1.0000
  H   H101      1.0  0.94712  0.44316  0.49503  1.0000
  H   H102      1.0  0.97177  0.47924  0.48567  1.0000
  H   H103      1.0  0.04934  0.49823  0.34454  1.0000
  H   H104      1.0  0.02785  0.53880  0.33348  1.0000
  H   H105      1.0  0.02675  0.56945  0.33328  1.0000
  H   H106      1.0  0.94916  0.49589  0.33585  1.0000
  H   H107      1.0  0.94793  0.52927  0.33406  1.0000
  H   H108      1.0  0.96789  0.57047  0.47700  1.0000
  H   H109      1.0  0.94060  0.57840  0.47558  1.0000
  H   H110      1.0  0.04434  0.63063  0.34705  1.0000
  H   H111      1.0  0.10667  0.57899  0.33379  1.0000
  H   H112      1.0  0.10544  0.61237  0.33562  1.0000
  H   H113      1.0  0.08319  0.62893  0.48547  1.0000
  H   H114      1.0  0.10755  0.66509  0.49487  1.0000
  H   H115      1.0  0.14483  0.68988  0.44189  1.0000
  H   H116      1.0  0.16900  0.72598  0.45365  1.0000
  H   H117      1.0  0.08705  0.53815  0.47674  1.0000
  H   H118      1.0  0.11457  0.53057  0.47506  1.0000
  H   H119      1.0  0.15209  0.49784  0.44030  1.0000
  H   H120      1.0  0.12238  0.50204  0.43868  1.0000
  H   H121      1.0  0.93328  0.60723  0.43832  1.0000
  H   H122      1.0  0.90395  0.61205  0.44014  1.0000
  C   C137      1.0  0.16732  0.75843  0.38371  1.0000
  C   C138      1.0  0.18676  0.51683  0.33852  1.0000
  C   C139      1.0  0.88574  0.35023  0.38323  1.0000
  C   C140      1.0  0.86908  0.59337  0.33940  1.0000
  H   H123      1.0  0.17284  0.76187  0.45265  1.0000
  H   H124      1.0  0.19336  0.52153  0.40533  1.0000
  H   H125      1.0  0.86255  0.58886  0.40639  1.0000
  H   H126      1.0  0.88016  0.34683  0.45210  1.0000
  C   C141      1.0  0.58980  0.60967  0.34391  1.0000
  C   C142      1.0  0.57857  0.61973  0.34258  1.0000
  C   C143      1.0  0.55760  0.60485  0.33906  1.0000
  N   N17       1.0  0.55693  0.58640  0.33769  1.0000
  C   C144      1.0  0.57597  0.58842  0.34066  1.0000
  C   C145      1.0  0.58169  0.57291  0.34073  1.0000
  C   C146      1.0  0.56761  0.55133  0.33885  1.0000
  N   N18       1.0  0.54677  0.54162  0.33881  1.0000
  C   C147      1.0  0.53823  0.52087  0.33721  1.0000
  C   C148      1.0  0.55468  0.51701  0.33596  1.0000
  C   C149      1.0  0.57280  0.53579  0.33715  1.0000
  C   C150      1.0  0.51693  0.50576  0.33765  1.0000
  C   C151      1.0  0.50046  0.51011  0.33921  1.0000
  N   N19       1.0  0.50114  0.52857  0.33774  1.0000
  C   C152      1.0  0.48210  0.52655  0.34083  1.0000
  C   C153      1.0  0.46827  0.50530  0.34438  1.0000
  C   C154      1.0  0.47951  0.49524  0.34302  1.0000
  C   C155      1.0  0.47637  0.54205  0.34078  1.0000
  C   C156      1.0  0.49045  0.56363  0.33888  1.0000
  N   N20       1.0  0.51130  0.57334  0.33893  1.0000
  C   C157      1.0  0.51983  0.59409  0.33725  1.0000
  C   C158      1.0  0.50338  0.59794  0.33585  1.0000
  C   C159      1.0  0.48526  0.57916  0.33701  1.0000
  C   C160      1.0  0.54114  0.60921  0.33761  1.0000
  C   C161      1.0  0.54634  0.63030  0.33691  1.0000
  C   C162      1.0  0.55572  0.67225  0.33474  1.0000
  C   C163      1.0  0.55235  0.66140  0.41622  1.0000
  C   C164      1.0  0.54770  0.64070  0.41742  1.0000
  C   C165      1.0  0.55925  0.69287  0.33332  1.0000
  C   C166      1.0  0.57291  0.70802  0.39439  1.0000
  C   C167      1.0  0.57554  0.72803  0.39498  1.0000
  C   C168      1.0  0.56454  0.73351  0.33471  1.0000
  C   C169      1.0  0.45494  0.53549  0.34548  1.0000
  C   C170      1.0  0.41187  0.52144  0.35653  1.0000
  C   C171      1.0  0.42439  0.52757  0.43401  1.0000
  C   C172      1.0  0.44563  0.53442  0.42872  1.0000
  C   C173      1.0  0.39032  0.51442  0.36246  1.0000
  C   C174      1.0  0.34714  0.50018  0.37694  1.0000
  C   C175      1.0  0.36186  0.51873  0.41854  1.0000
  C   C176      1.0  0.38310  0.52566  0.41197  1.0000
  C   C177      1.0  0.51171  0.48466  0.33703  1.0000
  C   C178      1.0  0.51008  0.47419  0.41766  1.0000
  C   C179      1.0  0.50522  0.45341  0.41661  1.0000
  C   C180      1.0  0.50189  0.44258  0.33517  1.0000
  C   C181      1.0  0.49803  0.42184  0.33396  1.0000
  C   C182      1.0  0.49196  0.38090  0.33553  1.0000
  C   C183      1.0  0.48106  0.38660  0.39520  1.0000
  C   C184      1.0  0.48407  0.40677  0.39451  1.0000
  C   C185      1.0  0.60312  0.57946  0.34550  1.0000
  C   C186      1.0  0.61246  0.58069  0.42887  1.0000
  C   C187      1.0  0.64609  0.59302  0.35648  1.0000
  C   C188      1.0  0.63365  0.58730  0.43413  1.0000
  C   C189      1.0  0.66757  0.59968  0.36233  1.0000
  C   C190      1.0  0.67453  0.58837  0.41304  1.0000
  C   C191      1.0  0.69570  0.59494  0.41951  1.0000
  C   C192      1.0  0.71061  0.61320  0.37664  1.0000
  H   H127      1.0  0.70018  0.58632  0.45626  1.0000
  H   H128      1.0  0.66421  0.57501  0.44466  1.0000
  H   H129      1.0  0.63999  0.58826  0.49571  1.0000
  H   H130      1.0  0.60391  0.57683  0.48629  1.0000
  H   H131      1.0  0.60555  0.61695  0.34691  1.0000
  H   H132      1.0  0.58493  0.63541  0.34493  1.0000
  H   H133      1.0  0.54435  0.57335  0.33423  1.0000
  H   H134      1.0  0.51371  0.54161  0.33380  1.0000
  H   H135      1.0  0.58727  0.53758  0.33658  1.0000
  H   H136      1.0  0.55389  0.50297  0.33476  1.0000
  H   H137      1.0  0.51268  0.48168  0.47751  1.0000
  H   H138      1.0  0.50474  0.44646  0.47608  1.0000
  H   H139      1.0  0.47315  0.47956  0.34551  1.0000
  H   H140      1.0  0.45253  0.49801  0.34761  1.0000
  H   H141      1.0  0.50416  0.61199  0.33446  1.0000
  H   H142      1.0  0.47079  0.57737  0.33630  1.0000
  H   H143      1.0  0.45423  0.53850  0.48606  1.0000
  H   H144      1.0  0.41807  0.52671  0.49551  1.0000
  H   H145      1.0  0.39329  0.53922  0.44267  1.0000
  H   H146      1.0  0.35719  0.52730  0.45446  1.0000
  H   H147      1.0  0.54501  0.63317  0.47727  1.0000
  H   H148      1.0  0.55259  0.66827  0.47558  1.0000
  H   H149      1.0  0.58530  0.73852  0.44085  1.0000
  H   H150      1.0  0.58111  0.70461  0.43919  1.0000
  H   H151      1.0  0.47592  0.41033  0.43884  1.0000
  H   H152      1.0  0.47108  0.37618  0.44066  1.0000
  C   C193      1.0  0.32473  0.49320  0.38440  1.0000
  C   C194      1.0  0.56631  0.75422  0.33906  1.0000
  C   C195      1.0  0.73293  0.61980  0.38395  1.0000
  C   C196      1.0  0.48975  0.36000  0.33992  1.0000
  H   H153      1.0  0.32129  0.49529  0.45331  1.0000
  H   H154      1.0  0.56159  0.75609  0.40587  1.0000
  H   H155      1.0  0.49425  0.35795  0.40692  1.0000
  H   H156      1.0  0.73633  0.61759  0.45278  1.0000
  C   C197      1.0  0.47347  0.06444  0.34444  1.0000
  C   C198      1.0  0.46341  0.04314  0.34320  1.0000
  C   C199      1.0  0.47829  0.03706  0.33963  1.0000
  N   N21       1.0  0.49674  0.05483  0.33825  1.0000
  C   C200      1.0  0.49473  0.07186  0.34117  1.0000
  C   C201      1.0  0.51023  0.09309  0.34114  1.0000
  C   C202      1.0  0.53181  0.10059  0.33928  1.0000
  N   N22       1.0  0.54153  0.08946  0.33928  1.0000
  C   C203      1.0  0.56228  0.10167  0.33767  1.0000
  C   C204      1.0  0.56613  0.12198  0.33637  1.0000
  C   C205      1.0  0.54735  0.12131  0.33757  1.0000
  C   C206      1.0  0.57738  0.09547  0.33817  1.0000
  C   C207      1.0  0.57303  0.07466  0.33985  1.0000
  N   N23       1.0  0.55457  0.05688  0.33847  1.0000
  C   C208      1.0  0.55659  0.03986  0.34154  1.0000
  C   C209      1.0  0.57784  0.04728  0.34501  1.0000
  C   C210      1.0  0.58790  0.06857  0.34368  1.0000
  C   C211      1.0  0.54109  0.01863  0.34150  1.0000
  C   C212      1.0  0.51951  0.01113  0.33956  1.0000
  N   N24       1.0  0.50979  0.02226  0.33958  1.0000
  C   C213      1.0  0.48904  0.01005  0.33783  1.0000
  C   C214      1.0  0.48519  0.98974  0.33643  1.0000
  C   C215      1.0  0.50398  0.99040  0.33766  1.0000
  C   C216      1.0  0.47393  0.01624  0.33815  1.0000
  C   C217      1.0  0.45284  0.00035  0.33738  1.0000
  C   C218      1.0  0.41089  0.96778  0.33504  1.0000
  C   C219      1.0  0.42172  0.97524  0.41657  1.0000
  C   C220      1.0  0.44242  0.99130  0.41785  1.0000
  C   C221      1.0  0.39027  0.95069  0.33355  1.0000
  C   C222      1.0  0.37510  0.94919  0.39448  1.0000
  C   C223      1.0  0.35509  0.93180  0.39499  1.0000
  C   C224      1.0  0.34963  0.91534  0.33474  1.0000
  C   C225      1.0  0.54765  0.00376  0.34616  1.0000
  C   C226      1.0  0.56170  0.97474  0.35716  1.0000
  C   C227      1.0  0.55559  0.98111  0.43465  1.0000
  C   C228      1.0  0.54874  0.99550  0.42940  1.0000
  C   C229      1.0  0.56873  0.96021  0.36307  1.0000
  C   C230      1.0  0.58298  0.93127  0.37747  1.0000
  C   C231      1.0  0.56445  0.92744  0.41914  1.0000
  C   C232      1.0  0.55751  0.94175  0.41262  1.0000
  C   C233      1.0  0.59848  0.11135  0.33747  1.0000
  C   C234      1.0  0.60898  0.12017  0.41806  1.0000
  C   C235      1.0  0.62976  0.13607  0.41691  1.0000
  C   C236      1.0  0.64056  0.14361  0.33541  1.0000
  C   C237      1.0  0.66130  0.16049  0.33412  1.0000
  C   C238      1.0  0.70223  0.19537  0.33553  1.0000
  C   C239      1.0  0.69655  0.17874  0.39515  1.0000
  C   C240      1.0  0.67639  0.16159  0.39454  1.0000
  C   C241      1.0  0.50369  0.10797  0.34595  1.0000
  C   C242      1.0  0.50246  0.11606  0.42934  1.0000
  C   C243      1.0  0.49014  0.13739  0.35700  1.0000
  C   C244      1.0  0.49585  0.13064  0.43463  1.0000
  C   C245      1.0  0.48348  0.15220  0.36289  1.0000
  C   C246      1.0  0.49479  0.17046  0.41360  1.0000
  C   C247      1.0  0.48822  0.18506  0.42010  1.0000
  C   C248      1.0  0.46997  0.18173  0.37724  1.0000
  H   H157      1.0  0.49686  0.19816  0.45684  1.0000
  H   H158      1.0  0.50816  0.17349  0.44519  1.0000
  H   H159      1.0  0.49490  0.13601  0.49621  1.0000
  H   H160      1.0  0.50632  0.11135  0.48675  1.0000
  H   H161      1.0  0.46619  0.07291  0.34738  1.0000
  H   H162      1.0  0.44773  0.03382  0.34543  1.0000
  H   H163      1.0  0.50978  0.05531  0.33465  1.0000
  H   H164      1.0  0.54153  0.05641  0.33457  1.0000
  H   H165      1.0  0.54556  0.13400  0.33695  1.0000
  H   H166      1.0  0.58017  0.13523  0.33521  1.0000
  H   H167      1.0  0.60151  0.11526  0.47795  1.0000
  H   H168      1.0  0.63672  0.14253  0.47637  1.0000
  H   H169      1.0  0.60358  0.07789  0.34591  1.0000
  H   H170      1.0  0.58513  0.03882  0.34813  1.0000
  H   H171      1.0  0.47115  0.97649  0.33500  1.0000
  H   H172      1.0  0.50576  0.97772  0.33693  1.0000
  H   H173      1.0  0.54466  1.00000  0.48675  1.0000
  H   H174      1.0  0.55646  0.97565  0.49616  1.0000
  H   H175      1.0  0.54395  0.93836  0.44332  1.0000
  H   H176      1.0  0.55588  0.91418  0.45505  1.0000
  H   H177      1.0  0.44993  0.99612  0.47773  1.0000
  H   H178      1.0  0.41483  0.96860  0.47590  1.0000
  H   H179      1.0  0.34459  0.93108  0.44071  1.0000
  H   H180      1.0  0.37849  0.96078  0.43924  1.0000
  H   H181      1.0  0.67285  0.14986  0.43882  1.0000
  H   H182      1.0  0.70700  0.17918  0.44050  1.0000
  C   C249      1.0  0.58997  0.91585  0.38487  1.0000
  C   C250      1.0  0.32891  0.89640  0.33895  1.0000
  C   C251      1.0  0.46337  0.19745  0.38458  1.0000
  C   C252      1.0  0.72313  0.21406  0.33986  1.0000
  H   H183      1.0  0.58789  0.91030  0.45378  1.0000
  H   H184      1.0  0.32700  0.88980  0.40578  1.0000
  H   H185      1.0  0.72520  0.22059  0.40688  1.0000
  H   H186      1.0  0.46559  0.20304  0.45342  1.0000
  C   C253      1.0  0.29815  0.50052  0.32926  1.0000
  C   C254      1.0  0.25831  0.49582  0.32922  1.0000
  C   C255      1.0  0.27178  0.50609  0.40235  1.0000
  C   C256      1.0  0.29170  0.50824  0.40072  1.0000
  H   H187      1.0  0.30209  0.51630  0.45015  1.0000
  C   C257      1.0  0.20657  0.48580  0.38716  1.0000
  N   N25       1.0  0.22505  0.48654  0.38582  1.0000
  H   H188      1.0  0.19736  0.48009  0.44221  1.0000
  C   C258      1.0  0.26622  0.51567  0.47635  1.0000
  H   H189      1.0  0.26173  0.52641  0.44932  1.0000
  H   H190      1.0  0.27899  0.52424  0.52268  1.0000
  H   H191      1.0  0.25338  0.50370  0.51444  1.0000
  N   N26       1.0  0.31868  0.50453  0.32095  1.0000
  H   H192      1.0  0.32841  0.52021  0.32581  1.0000
  C   C259      1.0  0.58262  0.88195  0.32971  1.0000
  C   C260      1.0  0.58730  0.84680  0.32975  1.0000
  C   C261      1.0  0.57704  0.85000  0.40289  1.0000
  C   C262      1.0  0.57489  0.86777  0.40119  1.0000
  H   H193      1.0  0.56685  0.87010  0.45063  1.0000
  C   C263      1.0  0.59728  0.80504  0.38783  1.0000
  N   N27       1.0  0.59657  0.82280  0.38642  1.0000
  H   H194      1.0  0.60305  0.80156  0.44276  1.0000
  C   C264      1.0  0.56745  0.83485  0.47689  1.0000
  H   H195      1.0  0.55670  0.81962  0.44987  1.0000
  H   H196      1.0  0.55888  0.83904  0.52321  1.0000
  H   H197      1.0  0.57940  0.83395  0.51501  1.0000
  N   N28       1.0  0.57863  0.89848  0.32142  1.0000
  H   H198      1.0  0.56295  0.89254  0.32625  1.0000
  C   C265      1.0  0.20122  0.78501  0.32875  1.0000
  C   C266      1.0  0.23635  0.82485  0.32893  1.0000
  C   C267      1.0  0.23316  0.81136  0.40202  1.0000
  C   C268      1.0  0.21539  0.79145  0.40029  1.0000
  H   H199      1.0  0.21306  0.78105  0.44969  1.0000
  C   C269      1.0  0.27807  0.87658  0.38716  1.0000
  N   N29       1.0  0.26032  0.85810  0.38569  1.0000
  H   H200      1.0  0.28155  0.88578  0.44222  1.0000
  C   C270      1.0  0.24829  0.81691  0.47609  1.0000
  H   H201      1.0  0.26352  0.82141  0.44914  1.0000
  H   H202      1.0  0.24409  0.80413  0.52239  1.0000
  H   H203      1.0  0.24916  0.82974  0.51421  1.0000
  N   N30       1.0  0.18470  0.76449  0.32035  1.0000
  H   H204      1.0  0.19064  0.75475  0.32523  1.0000
  C   C271      1.0  0.75905  0.61187  0.32853  1.0000
  C   C272      1.0  0.79859  0.61586  0.32869  1.0000
  C   C273      1.0  0.78504  0.60569  0.40167  1.0000
  C   C274      1.0  0.76527  0.60389  0.39991  1.0000
  H   H205      1.0  0.75482  0.59594  0.44928  1.0000
  C   C275      1.0  0.85003  0.62503  0.38706  1.0000
  N   N31       1.0  0.83172  0.62465  0.38550  1.0000
  H   H206      1.0  0.85929  0.63070  0.44201  1.0000
  C   C276      1.0  0.79034  0.59585  0.47557  1.0000
  H   H207      1.0  0.79459  0.58495  0.44844  1.0000
  H   H208      1.0  0.77752  0.58741  0.52178  1.0000
  H   H209      1.0  0.80327  0.60765  0.51383  1.0000
  N   N32       1.0  0.73866  0.60827  0.32027  1.0000
  H   H210      1.0  0.72870  0.59263  0.32500  1.0000
  C   C277      1.0  0.47128  0.23150  0.32917  1.0000
  C   C278      1.0  0.46726  0.26704  0.32923  1.0000
  C   C279      1.0  0.47745  0.26365  0.40222  1.0000
  C   C280      1.0  0.47925  0.24569  0.40054  1.0000
  H   H211      1.0  0.48722  0.24320  0.44989  1.0000
  C   C281      1.0  0.45805  0.30927  0.38748  1.0000
  N   N33       1.0  0.45846  0.29136  0.38598  1.0000
  H   H212      1.0  0.45244  0.31287  0.44254  1.0000
  C   C282      1.0  0.48727  0.27878  0.47610  1.0000
  H   H213      1.0  0.49816  0.29394  0.44897  1.0000
  H   H214      1.0  0.49572  0.27440  0.52234  1.0000
  H   H215      1.0  0.47546  0.27989  0.51435  1.0000
  N   N34       1.0  0.47490  0.21473  0.32091  1.0000
  H   H216      1.0  0.49054  0.22041  0.32566  1.0000
  C   C283      1.0  0.85165  0.32410  0.32804  1.0000
  C   C284      1.0  0.81610  0.28456  0.32841  1.0000
  C   C285      1.0  0.81952  0.29813  0.40137  1.0000
  C   C286      1.0  0.83749  0.31790  0.39950  1.0000
  H   H217      1.0  0.84001  0.32836  0.44884  1.0000
  C   C287      1.0  0.77388  0.23313  0.38707  1.0000
  N   N35       1.0  0.79180  0.25144  0.38539  1.0000
  H   H218      1.0  0.77032  0.22388  0.44204  1.0000
  C   C288      1.0  0.80443  0.29285  0.47536  1.0000
  H   H219      1.0  0.78926  0.28859  0.44830  1.0000
  H   H220      1.0  0.80883  0.30568  0.52153  1.0000
  H   H221      1.0  0.80331  0.27992  0.51363  1.0000
  N   N36       1.0  0.86843  0.34449  0.31968  1.0000
  H   H222      1.0  0.86276  0.35446  0.32446  1.0000
