data_image0
_chemical_formula_structural       C2NC2OH3C2NC2OH3C2NC2OH3C2NC2OH3C2NC2OH3C2NC2OH3NCHNCHNCHNCHNCHNCHC2NC2OH3C2NC2OH3C2NC2OH3C2NC2OH3C2NC2OH3C2NC2OH3C6H3C6H3C6H3C6H3C6H3C6H3C6H3C6H3C6H3C6H3C6H3C6H3NCHNCHNCHNCHNCHNCHC2NC2OH3C2NC2OH3C2NC2OH3C2NC2OH3C2NC2OH3C2NC2OH3NCHNCHNCHNCHNCHNCH
_chemical_formula_sum              "C162 N36 O18 H108"
_cell_length_a       39.5592
_cell_length_b       39.5592
_cell_length_c       14.8457
_cell_angle_alpha    90
_cell_angle_beta     90
_cell_angle_gamma    120

_space_group_name_H-M_alt    "P 1"
_space_group_IT_number       1

loop_
  _space_group_symop_operation_xyz
  'x, y, z'

loop_
  _atom_site_type_symbol
  _atom_site_label
  _atom_site_symmetry_multiplicity
  _atom_site_fract_x
  _atom_site_fract_y
  _atom_site_fract_z
  _atom_site_occupancy
  C   C1        1.0  0.27131  0.45798  0.34741  1.0000
  C   C2        1.0  0.20211  0.46233  0.35364  1.0000
  N   N1        1.0  0.20623  0.43742  0.29749  1.0000
  C   C3        1.0  0.23871  0.43368  0.29161  1.0000
  C   C4        1.0  0.23863  0.40707  0.22100  1.0000
  O   O1        1.0  0.27011  0.42655  0.15827  1.0000
  H   H1        1.0  0.21103  0.39325  0.18379  1.0000
  H   H2        1.0  0.24110  0.38361  0.25290  1.0000
  H   H3        1.0  0.26608  0.44565  0.12440  1.0000
  C   C5        1.0  0.57364  0.83459  0.34737  1.0000
  C   C6        1.0  0.56931  0.76105  0.35370  1.0000
  N   N2        1.0  0.59426  0.79009  0.29763  1.0000
  C   C7        1.0  0.59802  0.82632  0.29176  1.0000
  C   C8        1.0  0.62463  0.85284  0.22112  1.0000
  O   O2        1.0  0.60516  0.86481  0.15832  1.0000
  H   H4        1.0  0.63847  0.83905  0.18397  1.0000
  H   H5        1.0  0.64808  0.87878  0.25298  1.0000
  H   H6        1.0  0.58606  0.84166  0.12448  1.0000
  C   C9        1.0  0.19708  0.76036  0.34751  1.0000
  C   C10       1.0  0.27066  0.82955  0.35360  1.0000
  N   N3        1.0  0.24161  0.82544  0.29751  1.0000
  C   C11       1.0  0.20539  0.79296  0.29169  1.0000
  C   C12       1.0  0.17884  0.79304  0.22112  1.0000
  O   O3        1.0  0.16680  0.76156  0.15839  1.0000
  H   H7        1.0  0.19262  0.82065  0.18390  1.0000
  H   H8        1.0  0.15292  0.79059  0.25307  1.0000
  H   H9        1.0  0.18993  0.76559  0.12448  1.0000
  C   C13       1.0  0.75677  0.57733  0.34741  1.0000
  C   C14       1.0  0.82602  0.57306  0.35383  1.0000
  N   N4        1.0  0.82189  0.59796  0.29767  1.0000
  C   C15       1.0  0.78941  0.60169  0.29178  1.0000
  C   C16       1.0  0.78948  0.62826  0.22105  1.0000
  O   O4        1.0  0.75803  0.60874  0.15827  1.0000
  H   H10       1.0  0.81710  0.64210  0.18389  1.0000
  H   H11       1.0  0.78696  0.65171  0.25285  1.0000
  H   H12       1.0  0.76210  0.58964  0.12449  1.0000
  C   C17       1.0  0.45439  0.20073  0.34747  1.0000
  C   C18       1.0  0.45876  0.27431  0.35366  1.0000
  N   N5        1.0  0.43387  0.24529  0.29747  1.0000
  C   C19       1.0  0.43013  0.20907  0.29160  1.0000
  C   C20       1.0  0.40354  0.18254  0.22094  1.0000
  O   O5        1.0  0.42303  0.17053  0.15826  1.0000
  H   H13       1.0  0.38973  0.19633  0.18369  1.0000
  H   H14       1.0  0.38007  0.15661  0.25281  1.0000
  H   H15       1.0  0.44215  0.19367  0.12442  1.0000
  C   C21       1.0  0.83096  0.27501  0.34733  1.0000
  C   C22       1.0  0.75744  0.20576  0.35371  1.0000
  N   N6        1.0  0.78647  0.20989  0.29754  1.0000
  C   C23       1.0  0.82269  0.24238  0.29165  1.0000
  C   C24       1.0  0.84918  0.24232  0.22091  1.0000
  O   O6        1.0  0.86112  0.27378  0.15817  1.0000
  H   H16       1.0  0.83540  0.21471  0.18372  1.0000
  H   H17       1.0  0.87514  0.24482  0.25269  1.0000
  H   H18       1.0  0.83795  0.26972  0.12440  1.0000
  N   N7        1.0  0.12285  0.55384  0.27659  1.0000
  C   C25       1.0  0.12037  0.58658  0.26795  1.0000
  H   H19       1.0  0.10270  0.58774  0.21924  1.0000
  N   N8        1.0  0.47783  0.59031  0.27669  1.0000
  C   C26       1.0  0.44509  0.55509  0.26801  1.0000
  H   H20       1.0  0.44393  0.53628  0.21926  1.0000
  N   N9        1.0  0.44143  0.90891  0.27672  1.0000
  C   C27       1.0  0.47666  0.91141  0.26809  1.0000
  H   H21       1.0  0.49550  0.92909  0.21941  1.0000
  N   N10       1.0  0.90522  0.48153  0.27666  1.0000
  C   C28       1.0  0.90768  0.44878  0.26796  1.0000
  H   H22       1.0  0.92531  0.44760  0.21918  1.0000
  N   N11       1.0  0.55025  0.44508  0.27661  1.0000
  C   C29       1.0  0.58298  0.48031  0.26796  1.0000
  H   H23       1.0  0.58413  0.49914  0.21929  1.0000
  N   N12       1.0  0.58669  0.12648  0.27677  1.0000
  C   C30       1.0  0.55147  0.12400  0.26809  1.0000
  H   H24       1.0  0.53265  0.10636  0.21933  1.0000
  C   C31       1.0  0.05784  0.40780  0.33920  1.0000
  C   C32       1.0  0.97569  0.36599  0.34366  1.0000
  N   N13       1.0  0.99613  0.37401  0.26542  1.0000
  C   C33       1.0  0.03585  0.39319  0.25835  1.0000
  C   C34       1.0  0.05102  0.39845  0.16470  1.0000
  O   O7        1.0  0.09246  0.42016  0.15246  1.0000
  H   H25       1.0  0.03754  0.41152  0.12363  1.0000
  H   H26       1.0  0.04138  0.36939  0.13753  1.0000
  H   H27       1.0  0.10102  0.44813  0.15674  1.0000
  C   C35       1.0  0.62376  0.67119  0.33962  1.0000
  C   C36       1.0  0.66585  0.63111  0.34403  1.0000
  N   N14       1.0  0.65749  0.64326  0.26578  1.0000
  C   C37       1.0  0.63824  0.66374  0.25864  1.0000
  C   C38       1.0  0.63265  0.67327  0.16488  1.0000
  O   O8        1.0  0.61094  0.69298  0.15249  1.0000
  H   H28       1.0  0.61944  0.64654  0.12437  1.0000
  H   H29       1.0  0.66163  0.69257  0.13711  1.0000
  H   H30       1.0  0.58297  0.67359  0.15710  1.0000
  C   C39       1.0  0.36034  0.97384  0.33918  1.0000
  C   C40       1.0  0.40066  0.05603  0.34374  1.0000
  N   N15       1.0  0.38834  0.03556  0.26550  1.0000
  C   C41       1.0  0.36782  0.99584  0.25833  1.0000
  C   C42       1.0  0.35804  0.98071  0.16464  1.0000
  O   O9        1.0  0.33829  0.93927  0.15235  1.0000
  H   H31       1.0  0.38467  0.99418  0.12379  1.0000
  H   H32       1.0  0.33869  0.99038  0.13725  1.0000
  H   H33       1.0  0.35768  0.93068  0.15679  1.0000
  C   C43       1.0  0.97032  0.62750  0.33958  1.0000
  C   C44       1.0  0.05237  0.66939  0.34402  1.0000
  N   N16       1.0  0.03196  0.66118  0.26567  1.0000
  C   C45       1.0  0.99224  0.64198  0.25858  1.0000
  C   C46       1.0  0.97710  0.63646  0.16486  1.0000
  O   O10       1.0  0.93566  0.61480  0.15254  1.0000
  H   H34       1.0  0.99057  0.62324  0.12424  1.0000
  H   H35       1.0  0.98679  0.66546  0.13719  1.0000
  H   H36       1.0  0.92705  0.58682  0.15708  1.0000
  C   C47       1.0  0.40425  0.36409  0.33939  1.0000
  C   C48       1.0  0.36234  0.40429  0.34376  1.0000
  N   N17       1.0  0.37035  0.39183  0.26555  1.0000
  C   C49       1.0  0.38957  0.37133  0.25849  1.0000
  C   C50       1.0  0.39479  0.36137  0.16486  1.0000
  O   O11       1.0  0.41659  0.34174  0.15260  1.0000
  H   H37       1.0  0.40776  0.38789  0.12366  1.0000
  H   H38       1.0  0.36572  0.34186  0.13785  1.0000
  H   H39       1.0  0.44455  0.36122  0.15677  1.0000
  C   C51       1.0  0.66764  0.06148  0.33945  1.0000
  C   C52       1.0  0.62748  0.97932  0.34409  1.0000
  N   N18       1.0  0.63953  0.99974  0.26573  1.0000
  C   C53       1.0  0.66003  0.03946  0.25854  1.0000
  C   C54       1.0  0.66948  0.05455  0.16475  1.0000
  O   O12       1.0  0.68930  0.09598  0.15233  1.0000
  H   H40       1.0  0.64270  0.04111  0.12443  1.0000
  H   H41       1.0  0.68868  0.04479  0.13679  1.0000
  H   H42       1.0  0.66998  0.10465  0.15706  1.0000
  C   C55       1.0  0.14065  0.51071  0.34444  1.0000
  C   C56       1.0  0.10290  0.47747  0.34244  1.0000
  C   C57       1.0  0.09697  0.43917  0.34241  1.0000
  C   C58       1.0  0.12996  0.43412  0.34566  1.0000
  C   C59       1.0  0.16838  0.46674  0.34960  1.0000
  C   C60       1.0  0.17294  0.50467  0.34734  1.0000
  H   H43       1.0  0.12588  0.40643  0.34644  1.0000
  H   H44       1.0  0.20042  0.52843  0.34368  1.0000
  H   H45       1.0  0.07905  0.48123  0.34044  1.0000
  C   C61       1.0  0.52093  0.65122  0.34461  1.0000
  C   C62       1.0  0.55415  0.64669  0.34272  1.0000
  C   C63       1.0  0.59246  0.67906  0.34257  1.0000
  C   C64       1.0  0.59753  0.71711  0.34576  1.0000
  C   C65       1.0  0.56492  0.72292  0.34967  1.0000
  C   C66       1.0  0.52698  0.68956  0.34740  1.0000
  H   H46       1.0  0.62522  0.74070  0.34661  1.0000
  H   H47       1.0  0.50322  0.69328  0.34370  1.0000
  H   H48       1.0  0.55037  0.61907  0.34084  1.0000
  C   C67       1.0  0.38049  0.89107  0.34451  1.0000
  C   C68       1.0  0.38498  0.92881  0.34251  1.0000
  C   C69       1.0  0.35259  0.93472  0.34242  1.0000
  C   C70       1.0  0.31456  0.90171  0.34560  1.0000
  C   C71       1.0  0.30878  0.86330  0.34956  1.0000
  C   C72       1.0  0.34217  0.85876  0.34735  1.0000
  H   H49       1.0  0.29094  0.90578  0.34640  1.0000
  H   H50       1.0  0.33846  0.83129  0.34367  1.0000
  H   H51       1.0  0.41259  0.95267  0.34053  1.0000
  C   C73       1.0  0.88744  0.52465  0.34460  1.0000
  C   C74       1.0  0.92520  0.55788  0.34268  1.0000
  C   C75       1.0  0.93114  0.59618  0.34257  1.0000
  C   C76       1.0  0.89817  0.60126  0.34582  1.0000
  C   C77       1.0  0.85974  0.56865  0.34972  1.0000
  C   C78       1.0  0.85516  0.53071  0.34740  1.0000
  H   H52       1.0  0.90227  0.62895  0.34669  1.0000
  H   H53       1.0  0.82768  0.50695  0.34377  1.0000
  H   H54       1.0  0.94904  0.55410  0.34075  1.0000
  C   C79       1.0  0.50715  0.38415  0.34445  1.0000
  C   C80       1.0  0.47391  0.38866  0.34250  1.0000
  C   C81       1.0  0.43561  0.35629  0.34246  1.0000
  C   C82       1.0  0.43055  0.31824  0.34569  1.0000
  C   C83       1.0  0.46317  0.31244  0.34958  1.0000
  C   C84       1.0  0.50110  0.34581  0.34725  1.0000
  H   H55       1.0  0.40286  0.29465  0.34655  1.0000
  H   H56       1.0  0.52486  0.34209  0.34361  1.0000
  H   H57       1.0  0.47768  0.41628  0.34054  1.0000
  C   C85       1.0  0.64760  0.14430  0.34465  1.0000
  C   C86       1.0  0.64309  0.10655  0.34269  1.0000
  C   C87       1.0  0.67547  0.10063  0.34250  1.0000
  C   C88       1.0  0.71351  0.13362  0.34572  1.0000
  C   C89       1.0  0.71931  0.17203  0.34963  1.0000
  C   C90       1.0  0.68594  0.17659  0.34738  1.0000
  H   H58       1.0  0.73712  0.12953  0.34651  1.0000
  H   H59       1.0  0.68965  0.20407  0.34376  1.0000
  H   H60       1.0  0.61548  0.08270  0.34079  1.0000
  C   C91       1.0  0.50289  0.13956  0.33210  1.0000
  C   C92       1.0  0.47002  0.10160  0.33243  1.0000
  C   C93       1.0  0.43171  0.09527  0.34032  1.0000
  C   C94       1.0  0.42633  0.12800  0.34565  1.0000
  C   C95       1.0  0.45855  0.16673  0.34322  1.0000
  C   C96       1.0  0.49664  0.17164  0.33881  1.0000
  H   H61       1.0  0.39868  0.12340  0.35389  1.0000
  H   H62       1.0  0.52045  0.19923  0.33726  1.0000
  H   H63       1.0  0.47412  0.07797  0.33021  1.0000
  C   C97       1.0  0.64712  0.52889  0.33198  1.0000
  C   C98       1.0  0.64204  0.56176  0.33239  1.0000
  C   C99       1.0  0.67402  0.60007  0.34034  1.0000
  C   C100      1.0  0.71214  0.60544  0.34573  1.0000
  C   C101      1.0  0.71863  0.57321  0.34318  1.0000
  C   C102      1.0  0.68545  0.53513  0.33865  1.0000
  H   H64       1.0  0.73519  0.63307  0.35408  1.0000
  H   H65       1.0  0.68923  0.51132  0.33712  1.0000
  H   H66       1.0  0.61431  0.55767  0.33022  1.0000
  C   C103      1.0  0.89214  0.38466  0.33204  1.0000
  C   C104      1.0  0.93010  0.38976  0.33242  1.0000
  C   C105      1.0  0.93644  0.35779  0.34029  1.0000
  C   C106      1.0  0.90371  0.31967  0.34558  1.0000
  C   C107      1.0  0.86498  0.31315  0.34313  1.0000
  C   C108      1.0  0.86006  0.34633  0.33875  1.0000
  H   H67       1.0  0.90831  0.29662  0.35379  1.0000
  H   H68       1.0  0.83247  0.34254  0.33712  1.0000
  H   H69       1.0  0.95373  0.41749  0.33012  1.0000
  C   C109      1.0  0.52523  0.89584  0.33208  1.0000
  C   C110      1.0  0.55812  0.93379  0.33253  1.0000
  C   C111      1.0  0.59641  0.94009  0.34038  1.0000
  C   C112      1.0  0.60177  0.90734  0.34565  1.0000
  C   C113      1.0  0.56954  0.86862  0.34318  1.0000
  C   C114      1.0  0.53146  0.86374  0.33876  1.0000
  H   H70       1.0  0.62940  0.91192  0.35405  1.0000
  H   H71       1.0  0.50764  0.83616  0.33713  1.0000
  H   H72       1.0  0.55403  0.95743  0.33035  1.0000
  C   C115      1.0  0.38097  0.50649  0.33202  1.0000
  C   C116      1.0  0.38608  0.47364  0.33236  1.0000
  C   C117      1.0  0.35413  0.43533  0.34032  1.0000
  C   C118      1.0  0.31599  0.42992  0.34556  1.0000
  C   C119      1.0  0.30946  0.46213  0.34320  1.0000
  C   C120      1.0  0.34263  0.50022  0.33878  1.0000
  H   H73       1.0  0.29296  0.40227  0.35391  1.0000
  H   H74       1.0  0.33884  0.52402  0.33719  1.0000
  H   H75       1.0  0.41382  0.47775  0.33019  1.0000
  C   C121      1.0  0.13590  0.65069  0.33200  1.0000
  C   C122      1.0  0.09795  0.64561  0.33235  1.0000
  C   C123      1.0  0.09161  0.67758  0.34033  1.0000
  C   C124      1.0  0.12435  0.71570  0.34571  1.0000
  C   C125      1.0  0.16308  0.72221  0.34325  1.0000
  C   C126      1.0  0.16799  0.68903  0.33875  1.0000
  H   H76       1.0  0.11975  0.73874  0.35412  1.0000
  H   H77       1.0  0.19557  0.69281  0.33719  1.0000
  H   H78       1.0  0.07431  0.61788  0.33022  1.0000
  N   N19       1.0  0.26696  0.48285  0.40334  1.0000
  C   C127      1.0  0.23434  0.48576  0.40954  1.0000
  H   H79       1.0  0.23406  0.50556  0.45333  1.0000
  N   N20       1.0  0.54876  0.80538  0.40330  1.0000
  C   C128      1.0  0.54586  0.76985  0.40953  1.0000
  H   H80       1.0  0.52606  0.74977  0.45334  1.0000
  N   N21       1.0  0.22633  0.76470  0.40332  1.0000
  C   C129      1.0  0.26187  0.79732  0.40948  1.0000
  H   H81       1.0  0.28197  0.79760  0.45322  1.0000
  N   N22       1.0  0.76113  0.55247  0.40338  1.0000
  C   C130      1.0  0.79376  0.54959  0.40964  1.0000
  H   H82       1.0  0.79406  0.52980  0.45346  1.0000
  N   N23       1.0  0.47929  0.22997  0.40334  1.0000
  C   C131      1.0  0.48220  0.26551  0.40952  1.0000
  H   H83       1.0  0.50202  0.28560  0.45328  1.0000
  N   N24       1.0  0.80175  0.27064  0.40331  1.0000
  C   C132      1.0  0.76623  0.23801  0.40955  1.0000
  H   H84       1.0  0.74615  0.23771  0.45340  1.0000
  C   C133      1.0  0.14479  0.54863  0.33979  1.0000
  C   C134      1.0  0.14100  0.61759  0.32881  1.0000
  N   N25       1.0  0.16285  0.61253  0.39238  1.0000
  C   C135      1.0  0.16625  0.58000  0.40082  1.0000
  C   C136      1.0  0.18912  0.57854  0.47855  1.0000
  O   O13       1.0  0.16654  0.54593  0.53661  1.0000
  H   H85       1.0  0.20115  0.60543  0.51827  1.0000
  H   H86       1.0  0.21389  0.57643  0.45364  1.0000
  H   H87       1.0  0.14597  0.54949  0.56467  1.0000
  C   C137      1.0  0.48302  0.61743  0.33992  1.0000
  C   C138      1.0  0.41406  0.54471  0.32879  1.0000
  N   N26       1.0  0.41909  0.57161  0.39235  1.0000
  C   C139      1.0  0.45161  0.60756  0.40080  1.0000
  C   C140      1.0  0.45306  0.63185  0.47860  1.0000
  O   O14       1.0  0.48563  0.64180  0.53674  1.0000
  H   H88       1.0  0.42615  0.61700  0.51825  1.0000
  H   H89       1.0  0.45523  0.65877  0.45377  1.0000
  H   H90       1.0  0.48202  0.61764  0.56473  1.0000
  C   C141      1.0  0.41429  0.88695  0.33988  1.0000
  C   C142      1.0  0.48703  0.89075  0.32891  1.0000
  N   N27       1.0  0.46012  0.86888  0.39244  1.0000
  C   C143      1.0  0.42419  0.86547  0.40087  1.0000
  C   C144      1.0  0.39984  0.84258  0.47856  1.0000
  O   O15       1.0  0.38979  0.86513  0.53665  1.0000
  H   H91       1.0  0.41470  0.83055  0.51829  1.0000
  H   H92       1.0  0.37297  0.81780  0.45362  1.0000
  H   H93       1.0  0.41391  0.88570  0.56474  1.0000
  C   C145      1.0  0.88333  0.48674  0.33994  1.0000
  C   C146      1.0  0.88702  0.41775  0.32875  1.0000
  N   N28       1.0  0.86518  0.42281  0.39234  1.0000
  C   C147      1.0  0.86177  0.45533  0.40081  1.0000
  C   C148      1.0  0.83895  0.45681  0.47863  1.0000
  O   O16       1.0  0.86158  0.48937  0.53676  1.0000
  H   H94       1.0  0.82689  0.42989  0.51829  1.0000
  H   H95       1.0  0.81420  0.45898  0.45383  1.0000
  H   H96       1.0  0.88214  0.48575  0.56473  1.0000
  C   C149      1.0  0.54507  0.41793  0.33976  1.0000
  C   C150      1.0  0.61402  0.49068  0.32876  1.0000
  N   N29       1.0  0.60897  0.46378  0.39230  1.0000
  C   C151      1.0  0.57645  0.42784  0.40076  1.0000
  C   C152      1.0  0.57500  0.40350  0.47846  1.0000
  O   O17       1.0  0.54241  0.39347  0.53656  1.0000
  H   H97       1.0  0.60190  0.41836  0.51816  1.0000
  H   H98       1.0  0.57289  0.37662  0.45353  1.0000
  H   H99       1.0  0.54597  0.41759  0.56464  1.0000
  C   C153      1.0  0.61380  0.14840  0.34002  1.0000
  C   C154      1.0  0.54109  0.14466  0.32890  1.0000
  N   N30       1.0  0.56801  0.16655  0.39241  1.0000
  C   C155      1.0  0.60395  0.16997  0.40085  1.0000
  C   C156      1.0  0.62826  0.19284  0.47861  1.0000
  O   O18       1.0  0.63823  0.17024  0.53676  1.0000
  H   H100      1.0  0.61341  0.20490  0.51825  1.0000
  H   H101      1.0  0.65517  0.21759  0.45373  1.0000
  H   H102      1.0  0.61408  0.14969  0.56479  1.0000
  N   N31       1.0  0.03730  0.40142  0.41712  1.0000
  C   C157      1.0  0.99779  0.38034  0.42325  1.0000
  H   H103      1.0  0.98478  0.37916  0.48360  1.0000
  N   N32       1.0  0.63054  0.65744  0.41764  1.0000
  C   C158      1.0  0.65168  0.63909  0.42362  1.0000
  H   H104      1.0  0.65327  0.62759  0.48411  1.0000
  N   N33       1.0  0.37440  0.99437  0.41714  1.0000
  C   C159      1.0  0.39281  0.03387  0.42328  1.0000
  H   H105      1.0  0.40457  0.04686  0.48369  1.0000
  N   N34       1.0  0.99079  0.63416  0.41765  1.0000
  C   C160      1.0  0.03030  0.65526  0.42368  1.0000
  H   H106      1.0  0.04339  0.65681  0.48414  1.0000
  N   N35       1.0  0.39786  0.37821  0.41732  1.0000
  C   C161      1.0  0.37673  0.39659  0.42338  1.0000
  H   H107      1.0  0.37554  0.40843  0.48370  1.0000
  N   N36       1.0  0.65391  0.04096  0.41752  1.0000
  C   C162      1.0  0.63553  0.00146  0.42365  1.0000
  H   H108      1.0  0.62406  0.98841  0.48419  1.0000
