data_image0
_chemical_formula_structural       CNCHNHCNCHNHCNCHNHCNCNCNC18H12CNCNCNC18H12C4HC6HO2C4HC6HO2C4HC6HO2
_chemical_formula_sum              "C78 N12 H36 O6"
_cell_length_a       36.7341
_cell_length_b       36.734
_cell_length_c       14.9409
_cell_angle_alpha    90
_cell_angle_beta     90
_cell_angle_gamma    120

_space_group_name_H-M_alt    "P 1"
_space_group_IT_number       1

loop_
  _space_group_symop_operation_xyz
  'x, y, z'

loop_
  _atom_site_type_symbol
  _atom_site_label
  _atom_site_symmetry_multiplicity
  _atom_site_fract_x
  _atom_site_fract_y
  _atom_site_fract_z
  _atom_site_occupancy
  C   C1        1.0  0.54627  0.45868  0.26073  1.0000
  N   N1        1.0  0.52497  0.47997  0.26522  1.0000
  C   C2        1.0  0.45965  0.54529  0.26088  1.0000
  H   H1        1.0  0.55335  0.45160  0.19930  1.0000
  N   N2        1.0  0.48094  0.52400  0.26530  1.0000
  H   H2        1.0  0.45256  0.55238  0.19947  1.0000
  C   C3        1.0  0.54627  0.08858  0.26075  1.0000
  N   N3        1.0  0.52497  0.04599  0.26523  1.0000
  C   C4        1.0  0.45965  0.91535  0.26088  1.0000
  H   H3        1.0  0.55335  0.10274  0.19932  1.0000
  N   N4        1.0  0.48095  0.95794  0.26530  1.0000
  H   H4        1.0  0.45256  0.90117  0.19947  1.0000
  C   C5        1.0  0.91636  0.45868  0.26075  1.0000
  N   N5        1.0  0.95895  0.47997  0.26523  1.0000
  C   C6        1.0  0.08959  0.54529  0.26087  1.0000
  H   H5        1.0  0.90220  0.45159  0.19932  1.0000
  N   N6        1.0  0.04700  0.52400  0.26530  1.0000
  H   H6        1.0  0.10377  0.55238  0.19946  1.0000
  C   C7        1.0  0.35802  0.71208  0.33609  1.0000
  N   N7        1.0  0.37837  0.68968  0.33611  1.0000
  C   C8        1.0  0.35802  0.64693  0.33609  1.0000
  N   N8        1.0  0.31526  0.62657  0.33611  1.0000
  C   C9        1.0  0.29286  0.64693  0.33609  1.0000
  N   N9        1.0  0.31526  0.68968  0.33611  1.0000
  C   C10       1.0  0.38048  0.62446  0.33629  1.0000
  C   C11       1.0  0.42506  0.64589  0.33657  1.0000
  C   C12       1.0  0.44725  0.62382  0.33725  1.0000
  C   C13       1.0  0.42545  0.57950  0.33739  1.0000
  C   C14       1.0  0.38112  0.55769  0.33725  1.0000
  C   C15       1.0  0.35906  0.57988  0.33656  1.0000
  C   C16       1.0  0.38048  0.75701  0.33628  1.0000
  C   C17       1.0  0.42506  0.78017  0.33656  1.0000
  C   C18       1.0  0.44725  0.82442  0.33724  1.0000
  C   C19       1.0  0.42545  0.84694  0.33739  1.0000
  C   C20       1.0  0.38112  0.82442  0.33724  1.0000
  C   C21       1.0  0.35906  0.78017  0.33656  1.0000
  C   C22       1.0  0.24794  0.62446  0.33629  1.0000
  C   C23       1.0  0.22477  0.64589  0.33657  1.0000
  C   C24       1.0  0.18052  0.62382  0.33724  1.0000
  C   C25       1.0  0.15800  0.57950  0.33739  1.0000
  C   C26       1.0  0.18052  0.55769  0.33724  1.0000
  C   C27       1.0  0.22477  0.57988  0.33656  1.0000
  H   H7        1.0  0.47944  0.84006  0.33796  1.0000
  H   H8        1.0  0.44213  0.76510  0.33662  1.0000
  H   H9        1.0  0.36457  0.84006  0.33795  1.0000
  H   H10       1.0  0.32692  0.76510  0.33662  1.0000
  H   H11       1.0  0.23984  0.67802  0.33662  1.0000
  H   H12       1.0  0.16489  0.64037  0.33795  1.0000
  H   H13       1.0  0.23984  0.56281  0.33662  1.0000
  H   H14       1.0  0.16489  0.52551  0.33796  1.0000
  H   H15       1.0  0.32692  0.56281  0.33662  1.0000
  H   H16       1.0  0.36457  0.52551  0.33796  1.0000
  H   H17       1.0  0.47943  0.64037  0.33795  1.0000
  H   H18       1.0  0.44213  0.67802  0.33662  1.0000
  C   C28       1.0  0.64791  0.29187  0.33594  1.0000
  N   N10       1.0  0.62756  0.31427  0.33596  1.0000
  C   C29       1.0  0.64791  0.35703  0.33594  1.0000
  N   N11       1.0  0.69067  0.37738  0.33596  1.0000
  C   C30       1.0  0.71307  0.35703  0.33594  1.0000
  N   N12       1.0  0.69067  0.31427  0.33596  1.0000
  C   C31       1.0  0.62545  0.37949  0.33611  1.0000
  C   C32       1.0  0.58086  0.35807  0.33637  1.0000
  C   C33       1.0  0.55868  0.38013  0.33703  1.0000
  C   C34       1.0  0.58048  0.42446  0.33715  1.0000
  C   C35       1.0  0.62481  0.44627  0.33702  1.0000
  C   C36       1.0  0.64687  0.42408  0.33637  1.0000
  C   C37       1.0  0.62545  0.24695  0.33611  1.0000
  C   C38       1.0  0.58086  0.22379  0.33638  1.0000
  C   C39       1.0  0.55867  0.17953  0.33703  1.0000
  C   C40       1.0  0.58048  0.15701  0.33717  1.0000
  C   C41       1.0  0.62481  0.17953  0.33703  1.0000
  C   C42       1.0  0.64687  0.22379  0.33637  1.0000
  C   C43       1.0  0.75799  0.37949  0.33611  1.0000
  C   C44       1.0  0.78116  0.35807  0.33637  1.0000
  C   C45       1.0  0.82541  0.38013  0.33703  1.0000
  C   C46       1.0  0.84793  0.42446  0.33717  1.0000
  C   C47       1.0  0.82541  0.44627  0.33701  1.0000
  C   C48       1.0  0.78116  0.42408  0.33636  1.0000
  H   H19       1.0  0.52650  0.16390  0.33774  1.0000
  H   H20       1.0  0.56380  0.23885  0.33643  1.0000
  H   H21       1.0  0.64136  0.16390  0.33774  1.0000
  H   H22       1.0  0.67901  0.23885  0.33644  1.0000
  H   H23       1.0  0.76609  0.32593  0.33644  1.0000
  H   H24       1.0  0.84104  0.36358  0.33774  1.0000
  H   H25       1.0  0.76609  0.44115  0.33644  1.0000
  H   H26       1.0  0.84104  0.47845  0.33775  1.0000
  H   H27       1.0  0.67901  0.44115  0.33644  1.0000
  H   H28       1.0  0.64136  0.47845  0.33774  1.0000
  H   H29       1.0  0.52649  0.36358  0.33774  1.0000
  H   H30       1.0  0.56380  0.32593  0.33644  1.0000
  C   C49       1.0  0.55828  0.44667  0.34003  1.0000
  C   C50       1.0  0.51407  0.49087  0.34360  1.0000
  C   C51       1.0  0.52531  0.47963  0.42590  1.0000
  C   C52       1.0  0.54754  0.45740  0.42270  1.0000
  H   H31       1.0  0.55605  0.44888  0.48087  1.0000
  C   C53       1.0  0.49186  0.51308  0.34363  1.0000
  C   C54       1.0  0.44766  0.55729  0.34022  1.0000
  C   C55       1.0  0.45841  0.54653  0.42284  1.0000
  C   C56       1.0  0.48063  0.52431  0.42597  1.0000
  C   C57       1.0  0.49191  0.51304  0.50757  1.0000
  C   C58       1.0  0.51405  0.49089  0.50754  1.0000
  H   H32       1.0  0.44990  0.55504  0.48105  1.0000
  O   O1        1.0  0.48171  0.52323  0.58721  1.0000
  O   O2        1.0  0.52426  0.48068  0.58714  1.0000
  C   C59       1.0  0.55828  0.11260  0.34004  1.0000
  C   C60       1.0  0.51407  0.02419  0.34360  1.0000
  C   C61       1.0  0.52531  0.04667  0.42590  1.0000
  C   C62       1.0  0.54754  0.09112  0.42270  1.0000
  H   H33       1.0  0.55606  0.10816  0.48088  1.0000
  C   C63       1.0  0.49186  0.97977  0.34364  1.0000
  C   C64       1.0  0.44766  0.89136  0.34021  1.0000
  C   C65       1.0  0.45840  0.91286  0.42284  1.0000
  C   C66       1.0  0.48063  0.95732  0.42597  1.0000
  C   C67       1.0  0.49191  0.97986  0.50758  1.0000
  C   C68       1.0  0.51406  0.02415  0.50754  1.0000
  H   H34       1.0  0.44990  0.89585  0.48104  1.0000
  O   O3        1.0  0.48171  0.95947  0.58721  1.0000
  O   O4        1.0  0.52426  0.04457  0.58714  1.0000
  C   C69       1.0  0.89234  0.44667  0.34004  1.0000
  C   C70       1.0  0.98075  0.49087  0.34360  1.0000
  C   C71       1.0  0.95827  0.47963  0.42590  1.0000
  C   C72       1.0  0.91382  0.45740  0.42270  1.0000
  H   H35       1.0  0.89678  0.44888  0.48088  1.0000
  C   C73       1.0  0.02517  0.51308  0.34363  1.0000
  C   C74       1.0  0.11358  0.55729  0.34021  1.0000
  C   C75       1.0  0.09208  0.54654  0.42284  1.0000
  C   C76       1.0  0.04762  0.52431  0.42597  1.0000
  C   C77       1.0  0.02508  0.51304  0.50757  1.0000
  C   C78       1.0  0.98079  0.49089  0.50754  1.0000
  H   H36       1.0  0.10910  0.55504  0.48104  1.0000
  O   O5        1.0  0.04547  0.52323  0.58720  1.0000
  O   O6        1.0  0.96037  0.48068  0.58714  1.0000
