data_image0
_chemical_formula_structural       C2NO2CHC2H2C7H6N2C6H6N2C6H6N2C6H6N2C6H6N2C6H6N2C4HNO2CHC7H2N2O4CHC7H2N2O4CHC2H2C3H2CHC2H2C3H2CHC2H2C3H2CHC2H2C3H2CHC2H2C3H2CHC2H2C3H2CHC12H5CNC2NHN2C12H5CNC2NHN2C12H5CNC2NHN2C12H5CNC2NHN2C12H5CNC2NHN2C12H5CNC2NHN2C2H2CHC2H2C3H2CHC2H2C3H2CHC7H2N2O4CHC7H2N2O4CHC7H2N2O4CHC7H2N2O4CHC7H2N2O4CHC7H2N2O4CH
_chemical_formula_sum              "C252 N54 O36 H144"
_cell_length_a       91.1917
_cell_length_b       91.1916
_cell_length_c       14.9809
_cell_angle_alpha    90
_cell_angle_beta     90
_cell_angle_gamma    120

_space_group_name_H-M_alt    "P 1"
_space_group_IT_number       1

loop_
  _space_group_symop_operation_xyz
  'x, y, z'

loop_
  _atom_site_type_symbol
  _atom_site_label
  _atom_site_symmetry_multiplicity
  _atom_site_fract_x
  _atom_site_fract_y
  _atom_site_fract_z
  _atom_site_occupancy
  C   C1        1.0  0.00957  0.50265  0.33755  1.0000
  C   C2        1.0  0.02087  0.51799  0.29314  1.0000
  N   N1        1.0  0.01429  0.52598  0.23820  1.0000
  O   O1        1.0  0.01946  0.52741  0.15918  1.0000
  O   O2        1.0  0.01825  0.54043  0.26714  1.0000
  C   C3        1.0  0.01636  0.49513  0.39417  1.0000
  H   H1        1.0  0.00856  0.48392  0.42586  1.0000
  C   C4        1.0  0.03858  0.52528  0.30604  1.0000
  C   C5        1.0  0.03392  0.50246  0.40594  1.0000
  H   H2        1.0  0.03822  0.49639  0.44662  1.0000
  H   H3        1.0  0.04653  0.53628  0.27317  1.0000
  C   C6        1.0  0.04542  0.51764  0.36190  1.0000
  C   C7        1.0  0.18156  0.61755  0.34363  1.0000
  C   C8        1.0  0.10009  0.56410  0.33835  1.0000
  C   C9        1.0  0.11793  0.57304  0.34012  1.0000
  C   C10       1.0  0.17407  0.62787  0.35140  1.0000
  C   C11       1.0  0.18403  0.64570  0.35057  1.0000
  C   C12       1.0  0.20174  0.65368  0.33983  1.0000
  H   H4        1.0  0.09379  0.57073  0.33389  1.0000
  H   H5        1.0  0.12400  0.58597  0.33663  1.0000
  H   H6        1.0  0.16125  0.62253  0.35883  1.0000
  H   H7        1.0  0.17828  0.65283  0.35692  1.0000
  H   H8        1.0  0.17577  0.52522  0.37251  1.0000
  H   H9        1.0  0.15974  0.53942  0.36742  1.0000
  N   N2        1.0  0.15451  0.59072  0.34529  1.0000
  N   N3        1.0  0.21132  0.67046  0.34110  1.0000
  C   C13       1.0  0.38400  0.56429  0.34431  1.0000
  C   C14       1.0  0.43748  0.53629  0.33793  1.0000
  C   C15       1.0  0.42853  0.54518  0.33996  1.0000
  C   C16       1.0  0.37367  0.54646  0.35178  1.0000
  C   C17       1.0  0.35585  0.53859  0.35065  1.0000
  C   C18       1.0  0.34786  0.54832  0.33994  1.0000
  H   H10       1.0  0.43085  0.52336  0.33327  1.0000
  H   H11       1.0  0.41560  0.53832  0.33642  1.0000
  H   H12       1.0  0.37902  0.53899  0.35921  1.0000
  H   H13       1.0  0.34872  0.52571  0.35685  1.0000
  H   H14       1.0  0.47646  0.65084  0.36762  1.0000
  H   H15       1.0  0.46222  0.62061  0.36330  1.0000
  N   N4        1.0  0.41083  0.56406  0.34582  1.0000
  N   N5        1.0  0.33108  0.54111  0.34103  1.0000
  C   C19       1.0  0.43728  0.82002  0.34339  1.0000
  C   C20       1.0  0.46528  0.90149  0.33824  1.0000
  C   C21       1.0  0.45639  0.88365  0.34002  1.0000
  C   C22       1.0  0.45511  0.82753  0.35110  1.0000
  C   C23       1.0  0.46298  0.81758  0.35017  1.0000
  C   C24       1.0  0.45327  0.79988  0.33941  1.0000
  H   H16       1.0  0.47822  0.90778  0.33381  1.0000
  H   H17       1.0  0.46325  0.87758  0.33652  1.0000
  H   H18       1.0  0.46257  0.84035  0.35857  1.0000
  H   H19       1.0  0.47586  0.82334  0.35650  1.0000
  H   H20       1.0  0.35073  0.82579  0.37264  1.0000
  H   H21       1.0  0.38096  0.84182  0.36748  1.0000
  N   N6        1.0  0.43749  0.84707  0.34513  1.0000
  N   N7        1.0  0.46051  0.79032  0.34060  1.0000
  C   C25       1.0  0.82056  0.38589  0.34493  1.0000
  C   C26       1.0  0.90148  0.43937  0.32437  1.0000
  C   C27       1.0  0.88368  0.43053  0.32871  1.0000
  C   C28       1.0  0.82829  0.37576  0.35234  1.0000
  C   C29       1.0  0.81854  0.35793  0.35119  1.0000
  C   C30       1.0  0.80082  0.34973  0.34033  1.0000
  H   H22       1.0  0.90760  0.43267  0.31509  1.0000
  H   H23       1.0  0.87751  0.41767  0.32089  1.0000
  H   H24       1.0  0.84112  0.38127  0.35992  1.0000
  H   H25       1.0  0.82445  0.35095  0.35740  1.0000
  H   H26       1.0  0.82539  0.47790  0.36600  1.0000
  H   H27       1.0  0.84171  0.46398  0.36152  1.0000
  N   N8        1.0  0.84740  0.41285  0.34498  1.0000
  N   N9        1.0  0.79149  0.33293  0.34140  1.0000
  C   C31       1.0  0.61567  0.43496  0.34475  1.0000
  C   C32       1.0  0.56222  0.46243  0.32451  1.0000
  C   C33       1.0  0.57105  0.45347  0.32876  1.0000
  C   C34       1.0  0.62580  0.45281  0.35228  1.0000
  C   C35       1.0  0.64364  0.46089  0.35117  1.0000
  C   C36       1.0  0.65183  0.45137  0.34023  1.0000
  H   H28       1.0  0.56893  0.47526  0.31521  1.0000
  H   H29       1.0  0.58392  0.46015  0.32093  1.0000
  H   H30       1.0  0.62030  0.46014  0.35992  1.0000
  H   H31       1.0  0.65062  0.47378  0.35744  1.0000
  H   H32       1.0  0.52365  0.34780  0.36704  1.0000
  H   H33       1.0  0.53758  0.37804  0.36227  1.0000
  N   N10       1.0  0.58871  0.43485  0.34487  1.0000
  N   N11       1.0  0.66863  0.45884  0.34133  1.0000
  C   C37       1.0  0.56664  0.18104  0.34463  1.0000
  C   C38       1.0  0.53917  0.10010  0.32456  1.0000
  C   C39       1.0  0.54813  0.11790  0.32879  1.0000
  C   C40       1.0  0.54880  0.17333  0.35226  1.0000
  C   C41       1.0  0.54073  0.18309  0.35110  1.0000
  C   C42       1.0  0.55025  0.20080  0.33996  1.0000
  H   H34       1.0  0.52635  0.09398  0.31519  1.0000
  H   H35       1.0  0.54145  0.12408  0.32089  1.0000
  H   H36       1.0  0.54147  0.16050  0.36005  1.0000
  H   H37       1.0  0.52784  0.17719  0.35748  1.0000
  H   H38       1.0  0.65380  0.17616  0.36613  1.0000
  H   H39       1.0  0.62357  0.15986  0.36161  1.0000
  N   N12       1.0  0.56675  0.15419  0.34487  1.0000
  N   N13       1.0  0.54280  0.21015  0.34114  1.0000
  C   C43       1.0  0.95583  0.47457  0.29972  1.0000
  C   C44       1.0  0.96690  0.47912  0.22510  1.0000
  C   C45       1.0  0.98463  0.48888  0.23851  1.0000
  C   C46       1.0  0.99167  0.49418  0.32454  1.0000
  H   H40       1.0  0.99249  0.49158  0.18466  1.0000
  N   N14       1.0  0.96013  0.47377  0.13828  1.0000
  O   O3        1.0  0.96513  0.46448  0.10369  1.0000
  O   O4        1.0  0.96405  0.48617  0.08757  1.0000
  C   C47       1.0  0.93849  0.46382  0.29028  1.0000
  H   H41       1.0  0.93447  0.45411  0.24823  1.0000
  C   C48       1.0  0.52704  0.48161  0.29971  1.0000
  C   C49       1.0  0.52249  0.48812  0.22506  1.0000
  C   C50       1.0  0.51274  0.49611  0.23842  1.0000
  C   C51       1.0  0.50745  0.49785  0.32445  1.0000
  C   C52       1.0  0.49896  0.50726  0.33741  1.0000
  C   C53       1.0  0.48362  0.50321  0.29301  1.0000
  C   C54       1.0  0.47632  0.51362  0.30588  1.0000
  H   H42       1.0  0.46530  0.51055  0.27308  1.0000
  H   H43       1.0  0.51002  0.50123  0.18454  1.0000
  N   N15       1.0  0.47563  0.48862  0.23816  1.0000
  N   N16       1.0  0.52783  0.48667  0.13824  1.0000
  O   O5        1.0  0.47419  0.49235  0.15911  1.0000
  O   O6        1.0  0.53712  0.50095  0.10357  1.0000
  O   O7        1.0  0.46118  0.47813  0.26715  1.0000
  O   O8        1.0  0.51542  0.47819  0.08759  1.0000
  C   C55       1.0  0.53779  0.47501  0.29033  1.0000
  H   H44       1.0  0.54749  0.48069  0.24826  1.0000
  C   C56       1.0  0.52002  0.04575  0.29992  1.0000
  C   C57       1.0  0.51350  0.03468  0.22527  1.0000
  C   C58       1.0  0.50553  0.01695  0.23865  1.0000
  C   C59       1.0  0.50379  0.00990  0.32467  1.0000
  C   C60       1.0  0.49437  0.99201  0.33765  1.0000
  C   C61       1.0  0.49839  0.98070  0.29321  1.0000
  C   C62       1.0  0.48797  0.96299  0.30606  1.0000
  H   H45       1.0  0.49103  0.95505  0.27316  1.0000
  H   H46       1.0  0.50038  0.00909  0.18479  1.0000
  N   N17       1.0  0.51297  0.98729  0.23827  1.0000
  N   N18       1.0  0.51492  0.04146  0.13846  1.0000
  O   O9        1.0  0.50923  0.98212  0.15923  1.0000
  O   O10       1.0  0.50064  0.03646  0.10387  1.0000
  O   O11       1.0  0.52346  0.98333  0.26718  1.0000
  O   O12       1.0  0.52340  0.03754  0.08775  1.0000
  C   C63       1.0  0.52660  0.06309  0.29050  1.0000
  H   H47       1.0  0.52092  0.06711  0.24846  1.0000
  C   C64       1.0  0.24102  0.51851  0.26704  1.0000
  C   C65       1.0  0.22553  0.51812  0.27836  1.0000
  H   H48       1.0  0.24349  0.51482  0.20700  1.0000
  H   H49       1.0  0.21722  0.51430  0.22586  1.0000
  C   C66       1.0  0.30452  0.53646  0.29189  1.0000
  C   C67       1.0  0.29638  0.54260  0.23531  1.0000
  C   C68       1.0  0.27941  0.53810  0.24894  1.0000
  H   H50       1.0  0.30291  0.55096  0.18498  1.0000
  H   H51       1.0  0.27430  0.54345  0.20857  1.0000
  C   C69       1.0  0.32178  0.54252  0.28079  1.0000
  H   H52       1.0  0.32747  0.54955  0.22703  1.0000
  C   C70       1.0  0.48345  0.72306  0.26713  1.0000
  C   C71       1.0  0.48380  0.70793  0.27814  1.0000
  H   H53       1.0  0.48733  0.72935  0.20754  1.0000
  H   H54       1.0  0.48778  0.70356  0.22578  1.0000
  C   C72       1.0  0.46522  0.76842  0.29169  1.0000
  C   C73       1.0  0.45935  0.75431  0.23407  1.0000
  C   C74       1.0  0.46389  0.74187  0.24766  1.0000
  H   H55       1.0  0.45116  0.75257  0.18300  1.0000
  H   H56       1.0  0.45872  0.73150  0.20652  1.0000
  C   C75       1.0  0.45907  0.77955  0.28064  1.0000
  H   H57       1.0  0.45200  0.77816  0.22696  1.0000
  C   C76       1.0  0.27877  0.76053  0.26724  1.0000
  C   C77       1.0  0.29387  0.77602  0.27853  1.0000
  H   H58       1.0  0.27262  0.75805  0.20720  1.0000
  H   H59       1.0  0.29836  0.78432  0.22600  1.0000
  C   C78       1.0  0.23322  0.69704  0.29205  1.0000
  C   C79       1.0  0.24752  0.70518  0.23551  1.0000
  C   C80       1.0  0.25998  0.72214  0.24923  1.0000
  H   H60       1.0  0.24935  0.69865  0.18517  1.0000
  H   H61       1.0  0.27045  0.72726  0.20883  1.0000
  C   C81       1.0  0.22201  0.67979  0.28083  1.0000
  H   H62       1.0  0.22333  0.67411  0.22692  1.0000
  C   C82       1.0  0.75937  0.48366  0.26828  1.0000
  C   C83       1.0  0.77501  0.48433  0.27939  1.0000
  H   H63       1.0  0.75689  0.48750  0.20877  1.0000
  H   H64       1.0  0.78339  0.48850  0.22718  1.0000
  C   C84       1.0  0.69543  0.46408  0.29248  1.0000
  C   C85       1.0  0.70395  0.45858  0.23453  1.0000
  C   C86       1.0  0.72102  0.46346  0.24813  1.0000
  H   H65       1.0  0.69764  0.45039  0.18324  1.0000
  H   H66       1.0  0.72642  0.45855  0.20673  1.0000
  C   C87       1.0  0.67809  0.45758  0.28147  1.0000
  H   H67       1.0  0.67251  0.45046  0.22782  1.0000
  C   C88       1.0  0.51797  0.27608  0.26830  1.0000
  C   C89       1.0  0.51728  0.29103  0.27951  1.0000
  H   H68       1.0  0.51414  0.26977  0.20874  1.0000
  H   H69       1.0  0.51309  0.29524  0.22738  1.0000
  C   C90       1.0  0.53758  0.23174  0.29248  1.0000
  C   C91       1.0  0.54310  0.24578  0.23464  1.0000
  C   C92       1.0  0.53819  0.25794  0.24825  1.0000
  H   H70       1.0  0.55131  0.24768  0.18340  1.0000
  H   H71       1.0  0.54312  0.26827  0.20691  1.0000
  C   C93       1.0  0.54409  0.22090  0.28145  1.0000
  H   H72       1.0  0.55121  0.22245  0.22780  1.0000
  C   C94       1.0  0.72558  0.24218  0.26831  1.0000
  C   C95       1.0  0.71062  0.22655  0.27943  1.0000
  H   H73       1.0  0.73191  0.24466  0.20881  1.0000
  H   H74       1.0  0.70641  0.21816  0.22722  1.0000
  C   C96       1.0  0.76994  0.30613  0.29254  1.0000
  C   C97       1.0  0.75592  0.29761  0.23458  1.0000
  C   C98       1.0  0.74374  0.28054  0.24816  1.0000
  H   H75       1.0  0.75404  0.30392  0.18329  1.0000
  H   H76       1.0  0.73342  0.27514  0.20676  1.0000
  C   C99       1.0  0.78078  0.32348  0.28157  1.0000
  H   H77       1.0  0.77923  0.32905  0.22796  1.0000
  C   C100      1.0  0.12727  0.56446  0.34590  1.0000
  C   C101      1.0  0.18073  0.56434  0.35206  1.0000
  C   C102      1.0  0.11794  0.54652  0.34950  1.0000
  C   C103      1.0  0.10014  0.53759  0.34808  1.0000
  C   C104      1.0  0.09095  0.54627  0.34361  1.0000
  C   C105      1.0  0.20935  0.64354  0.33328  1.0000
  C   C106      1.0  0.19944  0.62582  0.33480  1.0000
  C   C107      1.0  0.19864  0.57336  0.34518  1.0000
  C   C108      1.0  0.20804  0.56499  0.34820  1.0000
  C   C109      1.0  0.19988  0.54728  0.35804  1.0000
  C   C110      1.0  0.18204  0.53808  0.36486  1.0000
  C   C111      1.0  0.17263  0.54650  0.36180  1.0000
  H   H78       1.0  0.09395  0.52464  0.34931  1.0000
  H   H79       1.0  0.20559  0.61907  0.32932  1.0000
  H   H80       1.0  0.22223  0.64902  0.32775  1.0000
  H   H81       1.0  0.20520  0.58623  0.33772  1.0000
  H   H82       1.0  0.22096  0.57199  0.34302  1.0000
  C   C112      1.0  0.17140  0.57307  0.34974  1.0000
  N   N19       1.0  0.17963  0.59022  0.34782  1.0000
  C   C113      1.0  0.17175  0.59950  0.34561  1.0000
  C   C114      1.0  0.14537  0.57346  0.34702  1.0000
  N   N20       1.0  0.15420  0.56502  0.34933  1.0000
  H   H83       1.0  0.12399  0.53964  0.35284  1.0000
  N   N21       1.0  0.20988  0.54061  0.36042  1.0000
  N   N22       1.0  0.07409  0.53847  0.34023  1.0000
  C   C115      1.0  0.43709  0.56310  0.34612  1.0000
  C   C116      1.0  0.43721  0.61666  0.35403  1.0000
  C   C117      1.0  0.45503  0.57171  0.34979  1.0000
  C   C118      1.0  0.46398  0.56285  0.34812  1.0000
  C   C119      1.0  0.45530  0.54498  0.34332  1.0000
  C   C120      1.0  0.35801  0.56608  0.33366  1.0000
  C   C121      1.0  0.37573  0.57389  0.33547  1.0000
  C   C122      1.0  0.42815  0.62555  0.35049  1.0000
  C   C123      1.0  0.43654  0.64331  0.35310  1.0000
  C   C124      1.0  0.45431  0.65288  0.35917  1.0000
  C   C125      1.0  0.46355  0.64424  0.36290  1.0000
  C   C126      1.0  0.45510  0.62640  0.36033  1.0000
  H   H84       1.0  0.47692  0.56961  0.34947  1.0000
  H   H85       1.0  0.38248  0.58680  0.33018  1.0000
  H   H86       1.0  0.35253  0.57347  0.32815  1.0000
  H   H87       1.0  0.41523  0.61923  0.34570  1.0000
  H   H88       1.0  0.42950  0.64923  0.35016  1.0000
  C   C127      1.0  0.42847  0.59860  0.35138  1.0000
  N   N23       1.0  0.41132  0.58967  0.34931  1.0000
  C   C128      1.0  0.40205  0.57252  0.34656  1.0000
  C   C129      1.0  0.42809  0.57219  0.34764  1.0000
  N   N24       1.0  0.43652  0.58945  0.35045  1.0000
  H   H89       1.0  0.46191  0.58464  0.35341  1.0000
  N   N25       1.0  0.46099  0.66955  0.36067  1.0000
  N   N26       1.0  0.46311  0.53594  0.33985  1.0000
  C   C130      1.0  0.43847  0.87430  0.34580  1.0000
  C   C131      1.0  0.38489  0.82084  0.35197  1.0000
  C   C132      1.0  0.42986  0.88363  0.34942  1.0000
  C   C133      1.0  0.43872  0.90144  0.34800  1.0000
  C   C134      1.0  0.45660  0.91063  0.34349  1.0000
  C   C135      1.0  0.43551  0.79225  0.33292  1.0000
  C   C136      1.0  0.42769  0.80215  0.33452  1.0000
  C   C137      1.0  0.37600  0.80292  0.34503  1.0000
  C   C138      1.0  0.35824  0.79353  0.34810  1.0000
  C   C139      1.0  0.34868  0.80168  0.35804  1.0000
  C   C140      1.0  0.35732  0.81952  0.36490  1.0000
  C   C141      1.0  0.37516  0.82894  0.36180  1.0000
  H   H90       1.0  0.43197  0.90762  0.34927  1.0000
  H   H91       1.0  0.41479  0.79599  0.32908  1.0000
  H   H92       1.0  0.42813  0.77938  0.32736  1.0000
  H   H93       1.0  0.38232  0.79637  0.33750  1.0000
  H   H94       1.0  0.35232  0.78061  0.34288  1.0000
  C   C142      1.0  0.40296  0.83017  0.34963  1.0000
  N   N27       1.0  0.41188  0.82194  0.34766  1.0000
  C   C143      1.0  0.42904  0.82983  0.34543  1.0000
  C   C144      1.0  0.42937  0.85620  0.34692  1.0000
  N   N28       1.0  0.41210  0.84737  0.34924  1.0000
  H   H95       1.0  0.41693  0.87758  0.35278  1.0000
  N   N29       1.0  0.33202  0.79168  0.36047  1.0000
  N   N30       1.0  0.46565  0.92748  0.34018  1.0000
  C   C145      1.0  0.87452  0.43911  0.34318  1.0000
  C   C146      1.0  0.82081  0.43881  0.35686  1.0000
  C   C147      1.0  0.88401  0.45694  0.35397  1.0000
  C   C148      1.0  0.90182  0.46579  0.35042  1.0000
  C   C149      1.0  0.91078  0.45717  0.33423  1.0000
  C   C150      1.0  0.79298  0.35967  0.33405  1.0000
  C   C151      1.0  0.80269  0.37741  0.33601  1.0000
  C   C152      1.0  0.80285  0.42954  0.35611  1.0000
  C   C153      1.0  0.79330  0.43774  0.35883  1.0000
  C   C154      1.0  0.80133  0.45553  0.36221  1.0000
  C   C155      1.0  0.81921  0.46497  0.36336  1.0000
  C   C156      1.0  0.82879  0.45671  0.36073  1.0000
  H   H96       1.0  0.90823  0.47865  0.35902  1.0000
  H   H97       1.0  0.79639  0.38402  0.33069  1.0000
  H   H98       1.0  0.78010  0.35403  0.32843  1.0000
  H   H99       1.0  0.79637  0.41660  0.35320  1.0000
  H   H100      1.0  0.78035  0.43056  0.35776  1.0000
  C   C157      1.0  0.83031  0.43025  0.35335  1.0000
  N   N31       1.0  0.82219  0.41309  0.35130  1.0000
  C   C158      1.0  0.83019  0.40394  0.34724  1.0000
  C   C159      1.0  0.85644  0.43012  0.34674  1.0000
  N   N32       1.0  0.84753  0.43845  0.35091  1.0000
  H   H101      1.0  0.87806  0.46376  0.36543  1.0000
  N   N33       1.0  0.79117  0.46201  0.36346  1.0000
  N   N34       1.0  0.92763  0.46615  0.33343  1.0000
  C   C160      1.0  0.56247  0.43572  0.34317  1.0000
  C   C161      1.0  0.56274  0.38230  0.35662  1.0000
  C   C162      1.0  0.54464  0.42739  0.35395  1.0000
  C   C163      1.0  0.53580  0.43637  0.35045  1.0000
  C   C164      1.0  0.54443  0.45395  0.33436  1.0000
  C   C165      1.0  0.64189  0.43359  0.33382  1.0000
  C   C166      1.0  0.62414  0.42556  0.33575  1.0000
  C   C167      1.0  0.57200  0.37360  0.35541  1.0000
  C   C168      1.0  0.56379  0.35585  0.35830  1.0000
  C   C169      1.0  0.54602  0.34611  0.36230  1.0000
  C   C170      1.0  0.53658  0.35455  0.36388  1.0000
  C   C171      1.0  0.54484  0.37238  0.36108  1.0000
  H   H102      1.0  0.52293  0.42992  0.35901  1.0000
  H   H103      1.0  0.61753  0.41265  0.33035  1.0000
  H   H104      1.0  0.64752  0.42635  0.32815  1.0000
  H   H105      1.0  0.58494  0.38005  0.35206  1.0000
  H   H106      1.0  0.57097  0.35008  0.35693  1.0000
  C   C172      1.0  0.57131  0.40036  0.35311  1.0000
  N   N35       1.0  0.58847  0.40940  0.35104  1.0000
  C   C173      1.0  0.59762  0.42654  0.34704  1.0000
  C   C174      1.0  0.57145  0.42663  0.34666  1.0000
  N   N36       1.0  0.56311  0.40938  0.35076  1.0000
  H   H107      1.0  0.53781  0.41463  0.36534  1.0000
  N   N37       1.0  0.53953  0.32947  0.36386  1.0000
  N   N38       1.0  0.53545  0.46181  0.33351  1.0000
  C   C175      1.0  0.56588  0.12706  0.34327  1.0000
  C   C176      1.0  0.61929  0.18075  0.35676  1.0000
  C   C177      1.0  0.57421  0.11757  0.35417  1.0000
  C   C178      1.0  0.56524  0.09975  0.35067  1.0000
  C   C179      1.0  0.54766  0.09080  0.33450  1.0000
  C   C180      1.0  0.56803  0.20862  0.33347  1.0000
  C   C181      1.0  0.57605  0.19890  0.33546  1.0000
  C   C182      1.0  0.62799  0.19872  0.35593  1.0000
  C   C183      1.0  0.64575  0.20827  0.35867  1.0000
  C   C184      1.0  0.65549  0.20023  0.36216  1.0000
  C   C185      1.0  0.64706  0.18235  0.36340  1.0000
  C   C186      1.0  0.62922  0.17278  0.36075  1.0000
  H   H108      1.0  0.57169  0.09334  0.35927  1.0000
  H   H109      1.0  0.58896  0.20519  0.32999  1.0000
  H   H110      1.0  0.57528  0.22151  0.32771  1.0000
  H   H111      1.0  0.62154  0.20520  0.35294  1.0000
  H   H112      1.0  0.65151  0.22121  0.35754  1.0000
  C   C187      1.0  0.60123  0.17126  0.35324  1.0000
  N   N39       1.0  0.59220  0.17939  0.35109  1.0000
  C   C188      1.0  0.57506  0.17140  0.34702  1.0000
  C   C189      1.0  0.57497  0.14514  0.34674  1.0000
  N   N40       1.0  0.59222  0.15405  0.35089  1.0000
  H   H113      1.0  0.58697  0.12351  0.36557  1.0000
  N   N41       1.0  0.67213  0.21038  0.36344  1.0000
  N   N42       1.0  0.53980  0.07395  0.33365  1.0000
  C   C190      1.0  0.98052  0.48969  0.39793  1.0000
  C   C191      1.0  0.96289  0.48008  0.38574  1.0000
  H   H114      1.0  0.98517  0.49315  0.46134  1.0000
  H   H115      1.0  0.95528  0.47668  0.44104  1.0000
  C   C192      1.0  0.06278  0.52421  0.37320  1.0000
  H   H116      1.0  0.06663  0.51755  0.40893  1.0000
  C   C193      1.0  0.51194  0.49119  0.39787  1.0000
  C   C194      1.0  0.52155  0.48317  0.38573  1.0000
  H   H117      1.0  0.50847  0.49238  0.46127  1.0000
  H   H118      1.0  0.52494  0.47896  0.44104  1.0000
  C   C195      1.0  0.48394  0.52810  0.36170  1.0000
  C   C196      1.0  0.49914  0.53181  0.40568  1.0000
  C   C197      1.0  0.50648  0.52158  0.39396  1.0000
  H   H119      1.0  0.50521  0.54219  0.44634  1.0000
  H   H120      1.0  0.51770  0.52501  0.42561  1.0000
  C   C198      1.0  0.47735  0.53887  0.37308  1.0000
  H   H121      1.0  0.48397  0.54935  0.40909  1.0000
  C   C199      1.0  0.51045  0.02106  0.39808  1.0000
  C   C200      1.0  0.51847  0.03868  0.38591  1.0000
  H   H122      1.0  0.50926  0.01640  0.46148  1.0000
  H   H123      1.0  0.52268  0.04629  0.44124  1.0000
  C   C201      1.0  0.47350  0.95616  0.36191  1.0000
  C   C202      1.0  0.46982  0.96765  0.40599  1.0000
  C   C203      1.0  0.48005  0.98521  0.39428  1.0000
  H   H124      1.0  0.45944  0.96334  0.44665  1.0000
  H   H125      1.0  0.47664  0.99301  0.42596  1.0000
  C   C204      1.0  0.46270  0.93879  0.37315  1.0000
  H   H126      1.0  0.45219  0.93494  0.40882  1.0000
  C   C205      1.0  0.22200  0.52398  0.35834  1.0000
  C   C206      1.0  0.23402  0.52974  0.42886  1.0000
  C   C207      1.0  0.24951  0.52992  0.41657  1.0000
  C   C208      1.0  0.25331  0.52458  0.33558  1.0000
  C   C209      1.0  0.26990  0.52727  0.31982  1.0000
  C   C210      1.0  0.27770  0.52063  0.37629  1.0000
  C   C211      1.0  0.29485  0.52524  0.36139  1.0000
  H   H127      1.0  0.30036  0.52054  0.40342  1.0000
  H   H128      1.0  0.25844  0.53487  0.46599  1.0000
  N   N43       1.0  0.26817  0.50937  0.44594  1.0000
  N   N44       1.0  0.23054  0.53563  0.50922  1.0000
  O   O13       1.0  0.27469  0.51508  0.52101  1.0000
  O   O14       1.0  0.23045  0.52704  0.57502  1.0000
  O   O15       1.0  0.26692  0.49512  0.43548  1.0000
  O   O16       1.0  0.24121  0.55092  0.52332  1.0000
  C   C212      1.0  0.20774  0.52560  0.36178  1.0000
  H   H129      1.0  0.19630  0.51542  0.35723  1.0000
  C   C213      1.0  0.47763  0.69833  0.35728  1.0000
  C   C214      1.0  0.47165  0.70443  0.42749  1.0000
  C   C215      1.0  0.47153  0.71979  0.41558  1.0000
  C   C216      1.0  0.47714  0.72912  0.33528  1.0000
  C   C217      1.0  0.47445  0.74302  0.31958  1.0000
  C   C218      1.0  0.48083  0.75731  0.37707  1.0000
  C   C219      1.0  0.47620  0.76983  0.36218  1.0000
  H   H130      1.0  0.48067  0.77990  0.40506  1.0000
  H   H131      1.0  0.46638  0.72364  0.46464  1.0000
  N   N45       1.0  0.49183  0.75889  0.44781  1.0000
  N   N46       1.0  0.46548  0.69489  0.50717  1.0000
  O   O17       1.0  0.48582  0.75946  0.52237  1.0000
  O   O18       1.0  0.47386  0.70324  0.57385  1.0000
  O   O19       1.0  0.50609  0.77196  0.43907  1.0000
  O   O20       1.0  0.45015  0.69025  0.51991  1.0000
  C   C220      1.0  0.47600  0.68244  0.36017  1.0000
  H   H132      1.0  0.48617  0.68117  0.35517  1.0000
  C   C221      1.0  0.30326  0.77956  0.35850  1.0000
  C   C222      1.0  0.29701  0.76755  0.42906  1.0000
  C   C223      1.0  0.28170  0.75206  0.41681  1.0000
  C   C224      1.0  0.27255  0.74824  0.33582  1.0000
  C   C225      1.0  0.25866  0.73166  0.32006  1.0000
  C   C226      1.0  0.24422  0.72385  0.37650  1.0000
  C   C227      1.0  0.23168  0.70671  0.36157  1.0000
  H   H133      1.0  0.22146  0.70120  0.40355  1.0000
  H   H134      1.0  0.27771  0.74313  0.46626  1.0000
  N   N47       1.0  0.24249  0.73338  0.44614  1.0000
  N   N48       1.0  0.30638  0.77104  0.50942  1.0000
  O   O21       1.0  0.24167  0.72686  0.52121  1.0000
  O   O22       1.0  0.29788  0.77114  0.57521  1.0000
  O   O23       1.0  0.22949  0.73464  0.43563  1.0000
  O   O24       1.0  0.31100  0.76037  0.52357  1.0000
  C   C228      1.0  0.31914  0.79382  0.36192  1.0000
  H   H135      1.0  0.32040  0.80526  0.35742  1.0000
  C   C229      1.0  0.77856  0.47822  0.35836  1.0000
  C   C230      1.0  0.76642  0.47196  0.42833  1.0000
  C   C231      1.0  0.75079  0.47151  0.41631  1.0000
  C   C232      1.0  0.74696  0.47706  0.33615  1.0000
  C   C233      1.0  0.73026  0.47405  0.32034  1.0000
  C   C234      1.0  0.72207  0.48008  0.37810  1.0000
  C   C235      1.0  0.70483  0.47510  0.36322  1.0000
  H   H136      1.0  0.69905  0.47932  0.40633  1.0000
  H   H137      1.0  0.74178  0.46616  0.46517  1.0000
  N   N49       1.0  0.73131  0.49111  0.44915  1.0000
  N   N50       1.0  0.76990  0.46585  0.50789  1.0000
  O   O25       1.0  0.72478  0.48493  0.52355  1.0000
  O   O26       1.0  0.76969  0.47405  0.57480  1.0000
  O   O27       1.0  0.73217  0.50523  0.44088  1.0000
  O   O28       1.0  0.75943  0.45043  0.52011  1.0000
  C   C236      1.0  0.79301  0.47690  0.36125  1.0000
  H   H138      1.0  0.80434  0.48716  0.35440  1.0000
  C   C237      1.0  0.52333  0.30065  0.35866  1.0000
  C   C238      1.0  0.52959  0.29476  0.42860  1.0000
  C   C239      1.0  0.53007  0.27961  0.41643  1.0000
  C   C240      1.0  0.52455  0.27024  0.33617  1.0000
  C   C241      1.0  0.52756  0.25656  0.32030  1.0000
  C   C242      1.0  0.52152  0.24233  0.37798  1.0000
  C   C243      1.0  0.52654  0.23009  0.36312  1.0000
  H   H139      1.0  0.52229  0.22006  0.40611  1.0000
  H   H140      1.0  0.53539  0.27592  0.46532  1.0000
  N   N51       1.0  0.51046  0.24051  0.44889  1.0000
  N   N52       1.0  0.53565  0.30432  0.50829  1.0000
  O   O29       1.0  0.51662  0.24014  0.52337  1.0000
  O   O30       1.0  0.52743  0.29587  0.57506  1.0000
  O   O31       1.0  0.49635  0.22724  0.44044  1.0000
  O   O32       1.0  0.55107  0.30928  0.52064  1.0000
  C   C244      1.0  0.52464  0.31642  0.36165  1.0000
  H   H141      1.0  0.51440  0.31749  0.35410  1.0000
  C   C245      1.0  0.70096  0.22299  0.35840  1.0000
  C   C246      1.0  0.70683  0.23514  0.42837  1.0000
  C   C247      1.0  0.72201  0.25077  0.41634  1.0000
  C   C248      1.0  0.73140  0.25460  0.33618  1.0000
  C   C249      1.0  0.74509  0.27130  0.32037  1.0000
  C   C250      1.0  0.75930  0.27948  0.37814  1.0000
  C   C251      1.0  0.77155  0.29673  0.36327  1.0000
  H   H142      1.0  0.78157  0.30251  0.40639  1.0000
  H   H143      1.0  0.72568  0.25978  0.46519  1.0000
  N   N53       1.0  0.76109  0.27024  0.44918  1.0000
  N   N54       1.0  0.69724  0.23165  0.50792  1.0000
  O   O33       1.0  0.76144  0.27678  0.52360  1.0000
  O   O34       1.0  0.70565  0.23186  0.57483  1.0000
  O   O35       1.0  0.77436  0.26939  0.44092  1.0000
  O   O36       1.0  0.69230  0.24213  0.52012  1.0000
  C   C252      1.0  0.68519  0.20855  0.36128  1.0000
  H   H144      1.0  0.68411  0.19722  0.35447  1.0000
