data_image0
_chemical_formula_structural       C3OH2C2H2C3OH2C2H2C4H2C2H2CHC2H2C4H2C4H2C2H2CHC2H2C4H2COH2C2H2C3H3COH2C2H2C3H3C3OHC5OHC6O2H2C3HCH3C3HCH3C3HCH3C3HCH3C3H2C3H2C3H2C3H2C2H2C3HCH3C3HCH3C3HCH3C3HCH3C3OHC5OHC6O2H2C3HCH3C3HCH3C3HCH3C3HCH3C3H2C3H2C3H2C3H2C2H2C3HCH3C3HCH3C3HCH3C3HCH3C6O2H2C6O2H2C6O2H2C3HCH3C3HCH3C3HCH3C3HCH3C3HCH3C3HCH3C3H2C3H2C3H2C3H2C3H2C3H2C3HCH3C3HCH3C3HCH3C3HCH3C3HCH3C3HCH3C6O2H2C6O2H2C6O2H2C3HCH3C3HCH3C3HCH3C3HCH3C3HCH3C3HCH3C3H2C3H2C3H2C3H2C3H2C3H2C3HCH3C3HCH3C3HCH3C3HCH3C3HCH3C3HCH3
_chemical_formula_sum              "C336 O24 H264"
_cell_length_a       46.7135
_cell_length_b       46.7135
_cell_length_c       14.8782
_cell_angle_alpha    90
_cell_angle_beta     90
_cell_angle_gamma    120

_space_group_name_H-M_alt    "P 1"
_space_group_IT_number       1

loop_
  _space_group_symop_operation_xyz
  'x, y, z'

loop_
  _atom_site_type_symbol
  _atom_site_label
  _atom_site_symmetry_multiplicity
  _atom_site_fract_x
  _atom_site_fract_y
  _atom_site_fract_z
  _atom_site_occupancy
  C   C1        1.0  0.02416  0.26327  0.32085  1.0000
  C   C2        1.0  0.04410  0.29889  0.31509  1.0000
  C   C3        1.0  0.07807  0.31633  0.33996  1.0000
  O   O1        1.0  0.03233  0.31867  0.28608  1.0000
  H   H1        1.0  0.02789  0.31425  0.22144  1.0000
  H   H2        1.0  0.06864  0.23351  0.18410  1.0000
  C   C4        1.0  0.07765  0.26348  0.34411  1.0000
  C   C5        1.0  0.04293  0.24691  0.33403  1.0000
  H   H3        1.0  0.03172  0.22214  0.34324  1.0000
  H   H4        1.0  0.08224  0.32439  0.51743  1.0000
  C   C6        1.0  0.02416  0.76327  0.32085  1.0000
  C   C7        1.0  0.04410  0.79889  0.31509  1.0000
  C   C8        1.0  0.07807  0.81633  0.33996  1.0000
  O   O2        1.0  0.03233  0.81867  0.28608  1.0000
  H   H5        1.0  0.02789  0.81425  0.22144  1.0000
  H   H6        1.0  0.06864  0.73351  0.18410  1.0000
  C   C9        1.0  0.07765  0.76348  0.34411  1.0000
  C   C10       1.0  0.04294  0.74691  0.33403  1.0000
  H   H7        1.0  0.03172  0.72214  0.34324  1.0000
  H   H8        1.0  0.08224  0.82439  0.51743  1.0000
  C   C11       1.0  0.09680  0.24760  0.34986  1.0000
  C   C12       1.0  0.10852  0.23951  0.27067  1.0000
  C   C13       1.0  0.13909  0.23981  0.27280  1.0000
  C   C14       1.0  0.09246  0.23461  0.18112  1.0000
  H   H9        1.0  0.08822  0.21135  0.15197  1.0000
  H   H10       1.0  0.10853  0.25482  0.13623  1.0000
  C   C15       1.0  0.13919  0.40174  0.27064  1.0000
  C   C16       1.0  0.10893  0.37115  0.27276  1.0000
  H   H11       1.0  0.09704  0.36122  0.21319  1.0000
  H   H12       1.0  0.13129  0.42206  0.15205  1.0000
  C   C17       1.0  0.09427  0.29805  0.35185  1.0000
  H   H13       1.0  0.11942  0.31047  0.36153  1.0000
  C   C18       1.0  0.14582  0.25388  0.43190  1.0000
  C   C19       1.0  0.11528  0.25321  0.42984  1.0000
  H   H14       1.0  0.10781  0.26011  0.48670  1.0000
  H   H15       1.0  0.14749  0.24508  0.57142  1.0000
  C   C20       1.0  0.09799  0.35119  0.35082  1.0000
  C   C21       1.0  0.11631  0.36437  0.43175  1.0000
  C   C22       1.0  0.14616  0.39493  0.42975  1.0000
  C   C23       1.0  0.10661  0.34653  0.51941  1.0000
  H   H16       1.0  0.10586  0.36268  0.57128  1.0000
  H   H17       1.0  0.12466  0.33933  0.53892  1.0000
  C   C24       1.0  0.09680  0.74760  0.34986  1.0000
  C   C25       1.0  0.10852  0.73951  0.27067  1.0000
  C   C26       1.0  0.13909  0.73981  0.27280  1.0000
  C   C27       1.0  0.09246  0.73461  0.18112  1.0000
  H   H18       1.0  0.08822  0.71135  0.15197  1.0000
  H   H19       1.0  0.10853  0.75482  0.13623  1.0000
  C   C28       1.0  0.13919  0.90174  0.27064  1.0000
  C   C29       1.0  0.10893  0.87115  0.27276  1.0000
  H   H20       1.0  0.09704  0.86122  0.21319  1.0000
  H   H21       1.0  0.13130  0.92207  0.15205  1.0000
  C   C30       1.0  0.09427  0.79805  0.35185  1.0000
  H   H22       1.0  0.11942  0.81047  0.36153  1.0000
  C   C31       1.0  0.14582  0.75388  0.43190  1.0000
  C   C32       1.0  0.11528  0.75321  0.42984  1.0000
  H   H23       1.0  0.10781  0.76011  0.48670  1.0000
  H   H24       1.0  0.14749  0.74508  0.57142  1.0000
  C   C33       1.0  0.09799  0.85120  0.35082  1.0000
  C   C34       1.0  0.11631  0.86437  0.43175  1.0000
  C   C35       1.0  0.14616  0.89493  0.42975  1.0000
  C   C36       1.0  0.10661  0.84654  0.51941  1.0000
  H   H25       1.0  0.10586  0.86269  0.57128  1.0000
  H   H26       1.0  0.12466  0.83933  0.53892  1.0000
  C   C37       1.0  0.19386  0.26372  0.34003  1.0000
  O   O3        1.0  0.19154  0.21564  0.28616  1.0000
  H   H27       1.0  0.19597  0.21564  0.22152  1.0000
  H   H28       1.0  0.14905  0.23788  0.21324  1.0000
  C   C38       1.0  0.15900  0.41344  0.34981  1.0000
  C   C39       1.0  0.15033  0.41783  0.18112  1.0000
  H   H29       1.0  0.17303  0.44166  0.18413  1.0000
  H   H30       1.0  0.15447  0.40178  0.13615  1.0000
  C   C40       1.0  0.19403  0.43260  0.34402  1.0000
  C   C41       1.0  0.15899  0.24874  0.35097  1.0000
  C   C42       1.0  0.16365  0.26198  0.51957  1.0000
  H   H31       1.0  0.18578  0.25974  0.51757  1.0000
  H   H32       1.0  0.17086  0.28724  0.53913  1.0000
  H   H33       1.0  0.16053  0.40240  0.48660  1.0000
  C   C43       1.0  0.19386  0.76372  0.34003  1.0000
  O   O4        1.0  0.19154  0.71564  0.28616  1.0000
  H   H34       1.0  0.19597  0.71564  0.22152  1.0000
  H   H35       1.0  0.14905  0.73788  0.21324  1.0000
  C   C44       1.0  0.15900  0.91344  0.34981  1.0000
  C   C45       1.0  0.15033  0.91783  0.18112  1.0000
  H   H36       1.0  0.17303  0.94166  0.18413  1.0000
  H   H37       1.0  0.15447  0.90179  0.13615  1.0000
  C   C46       1.0  0.19404  0.93260  0.34402  1.0000
  C   C47       1.0  0.15899  0.74875  0.35097  1.0000
  C   C48       1.0  0.16365  0.76198  0.51957  1.0000
  H   H38       1.0  0.18578  0.75974  0.51757  1.0000
  H   H39       1.0  0.17086  0.78724  0.53913  1.0000
  H   H40       1.0  0.16054  0.90240  0.48660  1.0000
  C   C49       1.0  0.48814  0.24492  0.32087  1.0000
  C   C50       1.0  0.43423  0.19186  0.33992  1.0000
  C   C51       1.0  0.46821  0.20930  0.31510  1.0000
  O   O5        1.0  0.47998  0.18952  0.28605  1.0000
  H   H41       1.0  0.48442  0.19395  0.22142  1.0000
  C   C52       1.0  0.26530  0.24524  0.32092  1.0000
  C   C53       1.0  0.31837  0.24441  0.33991  1.0000
  C   C54       1.0  0.30091  0.26093  0.31511  1.0000
  C   C55       1.0  0.24693  0.26289  0.32098  1.0000
  C   C56       1.0  0.21132  0.24720  0.31520  1.0000
  O   O6        1.0  0.32069  0.29249  0.28609  1.0000
  H   H42       1.0  0.31626  0.29250  0.22146  1.0000
  C   C57       1.0  0.26497  0.02212  0.32085  1.0000
  C   C58       1.0  0.26580  0.07602  0.33994  1.0000
  C   C59       1.0  0.24928  0.04205  0.31510  1.0000
  C   C60       1.0  0.24731  0.48610  0.32080  1.0000
  C   C61       1.0  0.26300  0.46618  0.31505  1.0000
  C   C62       1.0  0.24648  0.43220  0.33988  1.0000
  O   O7        1.0  0.21772  0.03027  0.28605  1.0000
  O   O8        1.0  0.29457  0.47796  0.28607  1.0000
  H   H43       1.0  0.21772  0.02584  0.22142  1.0000
  H   H44       1.0  0.29459  0.48239  0.22143  1.0000
  C   C63       1.0  0.26254  0.35119  0.34996  1.0000
  C   C64       1.0  0.27070  0.37102  0.27077  1.0000
  C   C65       1.0  0.27041  0.40130  0.27279  1.0000
  H   H45       1.0  0.27238  0.41317  0.21319  1.0000
  C   C66       1.0  0.27563  0.35985  0.18126  1.0000
  H   H46       1.0  0.27672  0.33713  0.18428  1.0000
  H   H47       1.0  0.29891  0.37886  0.15218  1.0000
  H   H48       1.0  0.25545  0.35573  0.13628  1.0000
  C   C67       1.0  0.41549  0.26059  0.34982  1.0000
  C   C68       1.0  0.40377  0.26867  0.27065  1.0000
  C   C69       1.0  0.37319  0.26834  0.27280  1.0000
  H   H49       1.0  0.36325  0.27028  0.21322  1.0000
  C   C70       1.0  0.41985  0.27360  0.18112  1.0000
  H   H50       1.0  0.44368  0.27472  0.18411  1.0000
  H   H51       1.0  0.42408  0.29685  0.15198  1.0000
  H   H52       1.0  0.40379  0.25339  0.13619  1.0000
  C   C71       1.0  0.24966  0.15693  0.34997  1.0000
  C   C72       1.0  0.24155  0.13718  0.27068  1.0000
  C   C73       1.0  0.24187  0.10691  0.27277  1.0000
  H   H53       1.0  0.23993  0.09504  0.21318  1.0000
  C   C74       1.0  0.23663  0.14835  0.18117  1.0000
  H   H54       1.0  0.23551  0.17105  0.18420  1.0000
  H   H55       1.0  0.21338  0.12933  0.15203  1.0000
  H   H56       1.0  0.25684  0.15250  0.13624  1.0000
  C   C75       1.0  0.35328  0.09478  0.34983  1.0000
  C   C76       1.0  0.37310  0.10646  0.27066  1.0000
  C   C77       1.0  0.40336  0.13703  0.27277  1.0000
  H   H57       1.0  0.41525  0.14696  0.21320  1.0000
  C   C78       1.0  0.36195  0.09036  0.18115  1.0000
  H   H58       1.0  0.33923  0.06655  0.18415  1.0000
  H   H59       1.0  0.38096  0.08611  0.15209  1.0000
  H   H60       1.0  0.35783  0.10642  0.13616  1.0000
  C   C79       1.0  0.46937  0.26127  0.33407  1.0000
  C   C80       1.0  0.43464  0.24470  0.34405  1.0000
  C   C81       1.0  0.41804  0.21014  0.35195  1.0000
  H   H61       1.0  0.48057  0.28605  0.34308  1.0000
  H   H62       1.0  0.39288  0.19771  0.36148  1.0000
  C   C82       1.0  0.24895  0.21011  0.33406  1.0000
  C   C83       1.0  0.26553  0.19196  0.34413  1.0000
  C   C84       1.0  0.30010  0.20993  0.35195  1.0000
  H   H63       1.0  0.22419  0.19655  0.34329  1.0000
  H   H64       1.0  0.31253  0.19721  0.36159  1.0000
  C   C85       1.0  0.21213  0.29820  0.35205  1.0000
  C   C86       1.0  0.24670  0.31617  0.34418  1.0000
  C   C87       1.0  0.26327  0.29802  0.33417  1.0000
  H   H65       1.0  0.19969  0.31091  0.36168  1.0000
  H   H66       1.0  0.28806  0.31160  0.34308  1.0000
  C   C88       1.0  0.30009  0.04090  0.33405  1.0000
  C   C89       1.0  0.31825  0.07562  0.34406  1.0000
  C   C90       1.0  0.30028  0.09223  0.35198  1.0000
  H   H67       1.0  0.31367  0.02970  0.34305  1.0000
  H   H68       1.0  0.31300  0.11738  0.36153  1.0000
  C   C91       1.0  0.21199  0.41599  0.35175  1.0000
  C   C92       1.0  0.21219  0.46732  0.33397  1.0000
  H   H69       1.0  0.19927  0.39084  0.36142  1.0000
  H   H70       1.0  0.19862  0.47853  0.34319  1.0000
  C   C93       1.0  0.26144  0.41229  0.35081  1.0000
  C   C94       1.0  0.25629  0.39400  0.43178  1.0000
  C   C95       1.0  0.25694  0.36412  0.42982  1.0000
  H   H71       1.0  0.25002  0.34976  0.48670  1.0000
  C   C96       1.0  0.24819  0.40374  0.51942  1.0000
  H   H72       1.0  0.25045  0.42813  0.51737  1.0000
  H   H73       1.0  0.26508  0.40449  0.57129  1.0000
  H   H74       1.0  0.22293  0.38572  0.53896  1.0000
  C   C97       1.0  0.35323  0.25937  0.35087  1.0000
  C   C98       1.0  0.36645  0.25426  0.43176  1.0000
  C   C99       1.0  0.39700  0.25496  0.42977  1.0000
  H   H75       1.0  0.40447  0.24806  0.48664  1.0000
  C   C100      1.0  0.34862  0.24614  0.51944  1.0000
  H   H76       1.0  0.32647  0.24836  0.51744  1.0000
  H   H77       1.0  0.36477  0.26305  0.57128  1.0000
  H   H78       1.0  0.34143  0.22089  0.53898  1.0000
  C   C101      1.0  0.25084  0.09592  0.35084  1.0000
  C   C102      1.0  0.25596  0.11421  0.43183  1.0000
  C   C103      1.0  0.25527  0.14408  0.42992  1.0000
  H   H79       1.0  0.26218  0.15844  0.48678  1.0000
  C   C104      1.0  0.26405  0.10447  0.51948  1.0000
  H   H80       1.0  0.26181  0.08008  0.51743  1.0000
  H   H81       1.0  0.24714  0.10370  0.57134  1.0000
  H   H82       1.0  0.28931  0.12250  0.53906  1.0000
  C   C105      1.0  0.41433  0.15699  0.35083  1.0000
  C   C106      1.0  0.39601  0.14383  0.43176  1.0000
  C   C107      1.0  0.36614  0.11328  0.42977  1.0000
  H   H83       1.0  0.35176  0.10583  0.48662  1.0000
  C   C108      1.0  0.40572  0.16166  0.51942  1.0000
  H   H84       1.0  0.43011  0.18379  0.51743  1.0000
  H   H85       1.0  0.40646  0.14550  0.57130  1.0000
  H   H86       1.0  0.38769  0.16889  0.53894  1.0000
  C   C109      1.0  0.48814  0.74492  0.32087  1.0000
  C   C110      1.0  0.43423  0.69186  0.33992  1.0000
  C   C111      1.0  0.46821  0.70930  0.31510  1.0000
  O   O9        1.0  0.47999  0.68952  0.28605  1.0000
  H   H87       1.0  0.48442  0.69395  0.22142  1.0000
  C   C112      1.0  0.26530  0.74524  0.32092  1.0000
  C   C113      1.0  0.31837  0.74441  0.33991  1.0000
  C   C114      1.0  0.30091  0.76093  0.31511  1.0000
  C   C115      1.0  0.24693  0.76290  0.32098  1.0000
  C   C116      1.0  0.21132  0.74720  0.31520  1.0000
  O   O10       1.0  0.32069  0.79249  0.28609  1.0000
  H   H88       1.0  0.31626  0.79250  0.22146  1.0000
  C   C117      1.0  0.26497  0.52212  0.32085  1.0000
  C   C118      1.0  0.26580  0.57602  0.33994  1.0000
  C   C119      1.0  0.24928  0.54205  0.31510  1.0000
  C   C120      1.0  0.24731  0.98610  0.32080  1.0000
  C   C121      1.0  0.26300  0.96618  0.31505  1.0000
  C   C122      1.0  0.24648  0.93220  0.33988  1.0000
  O   O11       1.0  0.21772  0.53027  0.28605  1.0000
  O   O12       1.0  0.29457  0.97795  0.28607  1.0000
  H   H89       1.0  0.21772  0.52584  0.22142  1.0000
  H   H90       1.0  0.29459  0.98239  0.22143  1.0000
  C   C123      1.0  0.26254  0.85119  0.34996  1.0000
  C   C124      1.0  0.27070  0.87102  0.27077  1.0000
  C   C125      1.0  0.27041  0.90130  0.27279  1.0000
  H   H91       1.0  0.27238  0.91317  0.21319  1.0000
  C   C126      1.0  0.27563  0.85985  0.18126  1.0000
  H   H92       1.0  0.27672  0.83713  0.18428  1.0000
  H   H93       1.0  0.29891  0.87886  0.15218  1.0000
  H   H94       1.0  0.25545  0.85573  0.13628  1.0000
  C   C127      1.0  0.41549  0.76058  0.34982  1.0000
  C   C128      1.0  0.40378  0.76867  0.27065  1.0000
  C   C129      1.0  0.37319  0.76834  0.27280  1.0000
  H   H95       1.0  0.36325  0.77029  0.21322  1.0000
  C   C130      1.0  0.41985  0.77360  0.18112  1.0000
  H   H96       1.0  0.44368  0.77472  0.18411  1.0000
  H   H97       1.0  0.42408  0.79685  0.15198  1.0000
  H   H98       1.0  0.40379  0.75339  0.13619  1.0000
  C   C131      1.0  0.24966  0.65693  0.34997  1.0000
  C   C132      1.0  0.24155  0.63718  0.27068  1.0000
  C   C133      1.0  0.24187  0.60691  0.27277  1.0000
  H   H99       1.0  0.23993  0.59504  0.21318  1.0000
  C   C134      1.0  0.23663  0.64835  0.18117  1.0000
  H   H100      1.0  0.23551  0.67105  0.18420  1.0000
  H   H101      1.0  0.21338  0.62933  0.15203  1.0000
  H   H102      1.0  0.25684  0.65250  0.13624  1.0000
  C   C135      1.0  0.35328  0.59478  0.34983  1.0000
  C   C136      1.0  0.37310  0.60646  0.27066  1.0000
  C   C137      1.0  0.40336  0.63703  0.27277  1.0000
  H   H103      1.0  0.41525  0.64696  0.21320  1.0000
  C   C138      1.0  0.36195  0.59036  0.18115  1.0000
  H   H104      1.0  0.33923  0.56655  0.18415  1.0000
  H   H105      1.0  0.38096  0.58611  0.15209  1.0000
  H   H106      1.0  0.35783  0.60642  0.13616  1.0000
  C   C139      1.0  0.46937  0.76127  0.33407  1.0000
  C   C140      1.0  0.43465  0.74470  0.34405  1.0000
  C   C141      1.0  0.41804  0.71014  0.35195  1.0000
  H   H107      1.0  0.48057  0.78605  0.34308  1.0000
  H   H108      1.0  0.39288  0.69771  0.36148  1.0000
  C   C142      1.0  0.24895  0.71011  0.33406  1.0000
  C   C143      1.0  0.26553  0.69197  0.34413  1.0000
  C   C144      1.0  0.30010  0.70993  0.35195  1.0000
  H   H109      1.0  0.22419  0.69655  0.34329  1.0000
  H   H110      1.0  0.31253  0.69721  0.36159  1.0000
  C   C145      1.0  0.21213  0.79820  0.35205  1.0000
  C   C146      1.0  0.24670  0.81617  0.34418  1.0000
  C   C147      1.0  0.26327  0.79802  0.33417  1.0000
  H   H111      1.0  0.19969  0.81091  0.36168  1.0000
  H   H112      1.0  0.28806  0.81160  0.34308  1.0000
  C   C148      1.0  0.30009  0.54090  0.33405  1.0000
  C   C149      1.0  0.31825  0.57563  0.34406  1.0000
  C   C150      1.0  0.30028  0.59223  0.35198  1.0000
  H   H113      1.0  0.31367  0.52970  0.34305  1.0000
  H   H114      1.0  0.31300  0.61738  0.36153  1.0000
  C   C151      1.0  0.21199  0.91599  0.35175  1.0000
  C   C152      1.0  0.21219  0.96732  0.33397  1.0000
  H   H115      1.0  0.19927  0.89084  0.36142  1.0000
  H   H116      1.0  0.19862  0.97853  0.34319  1.0000
  C   C153      1.0  0.26144  0.91230  0.35081  1.0000
  C   C154      1.0  0.25629  0.89400  0.43178  1.0000
  C   C155      1.0  0.25694  0.86412  0.42982  1.0000
  H   H117      1.0  0.25002  0.84976  0.48670  1.0000
  C   C156      1.0  0.24819  0.90375  0.51942  1.0000
  H   H118      1.0  0.25045  0.92813  0.51737  1.0000
  H   H119      1.0  0.26508  0.90449  0.57129  1.0000
  H   H120      1.0  0.22293  0.88572  0.53896  1.0000
  C   C157      1.0  0.35323  0.75938  0.35087  1.0000
  C   C158      1.0  0.36645  0.75426  0.43176  1.0000
  C   C159      1.0  0.39701  0.75496  0.42977  1.0000
  H   H121      1.0  0.40447  0.74806  0.48664  1.0000
  C   C160      1.0  0.34862  0.74614  0.51944  1.0000
  H   H122      1.0  0.32647  0.74836  0.51744  1.0000
  H   H123      1.0  0.36477  0.76305  0.57128  1.0000
  H   H124      1.0  0.34143  0.72089  0.53898  1.0000
  C   C161      1.0  0.25084  0.59592  0.35084  1.0000
  C   C162      1.0  0.25596  0.61421  0.43183  1.0000
  C   C163      1.0  0.25527  0.64408  0.42992  1.0000
  H   H125      1.0  0.26218  0.65844  0.48678  1.0000
  C   C164      1.0  0.26406  0.60447  0.51948  1.0000
  H   H126      1.0  0.26181  0.58008  0.51743  1.0000
  H   H127      1.0  0.24714  0.60370  0.57134  1.0000
  H   H128      1.0  0.28931  0.62250  0.53906  1.0000
  C   C165      1.0  0.41433  0.65699  0.35083  1.0000
  C   C166      1.0  0.39601  0.64382  0.43176  1.0000
  C   C167      1.0  0.36614  0.61328  0.42977  1.0000
  H   H129      1.0  0.35176  0.60583  0.48662  1.0000
  C   C168      1.0  0.40573  0.66166  0.51942  1.0000
  H   H130      1.0  0.43011  0.68380  0.51743  1.0000
  H   H131      1.0  0.40646  0.64550  0.57130  1.0000
  H   H132      1.0  0.38769  0.66889  0.53894  1.0000
  C   C169      1.0  0.98815  0.24492  0.32087  1.0000
  C   C170      1.0  0.93423  0.19186  0.33992  1.0000
  C   C171      1.0  0.96821  0.20930  0.31510  1.0000
  C   C172      1.0  0.52416  0.26327  0.32085  1.0000
  C   C173      1.0  0.54410  0.29889  0.31509  1.0000
  C   C174      1.0  0.57807  0.31633  0.33996  1.0000
  O   O13       1.0  0.97998  0.18952  0.28605  1.0000
  O   O14       1.0  0.53233  0.31867  0.28608  1.0000
  H   H133      1.0  0.98442  0.19395  0.22142  1.0000
  H   H134      1.0  0.52789  0.31425  0.22144  1.0000
  C   C175      1.0  0.76530  0.24524  0.32092  1.0000
  C   C176      1.0  0.81837  0.24441  0.33991  1.0000
  C   C177      1.0  0.80092  0.26093  0.31511  1.0000
  C   C178      1.0  0.74693  0.26289  0.32098  1.0000
  C   C179      1.0  0.71132  0.24720  0.31520  1.0000
  C   C180      1.0  0.69386  0.26372  0.34003  1.0000
  O   O15       1.0  0.82069  0.29249  0.28609  1.0000
  O   O16       1.0  0.69155  0.21564  0.28616  1.0000
  H   H135      1.0  0.81626  0.29250  0.22146  1.0000
  H   H136      1.0  0.69597  0.21564  0.22152  1.0000
  C   C181      1.0  0.76497  0.02212  0.32085  1.0000
  C   C182      1.0  0.76580  0.07602  0.33994  1.0000
  C   C183      1.0  0.74928  0.04205  0.31510  1.0000
  C   C184      1.0  0.74731  0.48610  0.32080  1.0000
  C   C185      1.0  0.76300  0.46618  0.31505  1.0000
  C   C186      1.0  0.74648  0.43220  0.33988  1.0000
  O   O17       1.0  0.71772  0.03027  0.28605  1.0000
  O   O18       1.0  0.79457  0.47796  0.28607  1.0000
  H   H137      1.0  0.71772  0.02584  0.22142  1.0000
  H   H138      1.0  0.79459  0.48239  0.22143  1.0000
  C   C187      1.0  0.59681  0.24760  0.34986  1.0000
  C   C188      1.0  0.60852  0.23951  0.27067  1.0000
  C   C189      1.0  0.63909  0.23981  0.27280  1.0000
  H   H139      1.0  0.64905  0.23788  0.21324  1.0000
  C   C190      1.0  0.59246  0.23461  0.18112  1.0000
  H   H140      1.0  0.56864  0.23351  0.18410  1.0000
  H   H141      1.0  0.58822  0.21135  0.15197  1.0000
  H   H142      1.0  0.60853  0.25482  0.13623  1.0000
  C   C191      1.0  0.76254  0.35119  0.34996  1.0000
  C   C192      1.0  0.77070  0.37102  0.27077  1.0000
  C   C193      1.0  0.77041  0.40130  0.27279  1.0000
  H   H143      1.0  0.77238  0.41317  0.21319  1.0000
  C   C194      1.0  0.77563  0.35985  0.18126  1.0000
  H   H144      1.0  0.77672  0.33713  0.18428  1.0000
  H   H145      1.0  0.79891  0.37886  0.15218  1.0000
  H   H146      1.0  0.75545  0.35573  0.13628  1.0000
  C   C195      1.0  0.65900  0.41344  0.34981  1.0000
  C   C196      1.0  0.63919  0.40174  0.27064  1.0000
  C   C197      1.0  0.60894  0.37115  0.27276  1.0000
  H   H147      1.0  0.59704  0.36122  0.21319  1.0000
  C   C198      1.0  0.65033  0.41783  0.18112  1.0000
  H   H148      1.0  0.67303  0.44166  0.18413  1.0000
  H   H149      1.0  0.63130  0.42206  0.15205  1.0000
  H   H150      1.0  0.65447  0.40178  0.13615  1.0000
  C   C199      1.0  0.91549  0.26059  0.34982  1.0000
  C   C200      1.0  0.90378  0.26867  0.27065  1.0000
  C   C201      1.0  0.87319  0.26834  0.27280  1.0000
  H   H151      1.0  0.86325  0.27028  0.21322  1.0000
  C   C202      1.0  0.91985  0.27360  0.18112  1.0000
  H   H152      1.0  0.94368  0.27472  0.18411  1.0000
  H   H153      1.0  0.92407  0.29685  0.15198  1.0000
  H   H154      1.0  0.90379  0.25339  0.13619  1.0000
  C   C203      1.0  0.74966  0.15693  0.34997  1.0000
  C   C204      1.0  0.74155  0.13718  0.27068  1.0000
  C   C205      1.0  0.74187  0.10691  0.27277  1.0000
  H   H155      1.0  0.73993  0.09504  0.21318  1.0000
  C   C206      1.0  0.73663  0.14835  0.18117  1.0000
  H   H156      1.0  0.73551  0.17105  0.18420  1.0000
  H   H157      1.0  0.71338  0.12933  0.15203  1.0000
  H   H158      1.0  0.75684  0.15250  0.13624  1.0000
  C   C207      1.0  0.85328  0.09478  0.34983  1.0000
  C   C208      1.0  0.87310  0.10646  0.27066  1.0000
  C   C209      1.0  0.90336  0.13703  0.27277  1.0000
  H   H159      1.0  0.91525  0.14696  0.21320  1.0000
  C   C210      1.0  0.86195  0.09036  0.18115  1.0000
  H   H160      1.0  0.83923  0.06655  0.18415  1.0000
  H   H161      1.0  0.88096  0.08611  0.15209  1.0000
  H   H162      1.0  0.85783  0.10642  0.13616  1.0000
  C   C211      1.0  0.96937  0.26127  0.33407  1.0000
  C   C212      1.0  0.93464  0.24470  0.34405  1.0000
  C   C213      1.0  0.91804  0.21014  0.35195  1.0000
  H   H163      1.0  0.98057  0.28605  0.34308  1.0000
  H   H164      1.0  0.89288  0.19771  0.36148  1.0000
  C   C214      1.0  0.59427  0.29805  0.35185  1.0000
  C   C215      1.0  0.57766  0.26348  0.34411  1.0000
  C   C216      1.0  0.54293  0.24691  0.33403  1.0000
  H   H165      1.0  0.61943  0.31047  0.36153  1.0000
  H   H166      1.0  0.53172  0.22214  0.34324  1.0000
  C   C217      1.0  0.74896  0.21011  0.33406  1.0000
  C   C218      1.0  0.76553  0.19196  0.34413  1.0000
  C   C219      1.0  0.80010  0.20993  0.35195  1.0000
  H   H167      1.0  0.72419  0.19655  0.34329  1.0000
  H   H168      1.0  0.81253  0.19721  0.36159  1.0000
  C   C220      1.0  0.71213  0.29820  0.35205  1.0000
  C   C221      1.0  0.74670  0.31617  0.34418  1.0000
  C   C222      1.0  0.76327  0.29802  0.33417  1.0000
  H   H169      1.0  0.69969  0.31091  0.36168  1.0000
  H   H170      1.0  0.78805  0.31160  0.34308  1.0000
  C   C223      1.0  0.80009  0.04090  0.33405  1.0000
  C   C224      1.0  0.81825  0.07562  0.34406  1.0000
  C   C225      1.0  0.80028  0.09223  0.35198  1.0000
  H   H171      1.0  0.81367  0.02970  0.34305  1.0000
  H   H172      1.0  0.81300  0.11738  0.36153  1.0000
  C   C226      1.0  0.71200  0.41599  0.35175  1.0000
  C   C227      1.0  0.69403  0.43260  0.34402  1.0000
  C   C228      1.0  0.71219  0.46732  0.33397  1.0000
  H   H173      1.0  0.69927  0.39084  0.36142  1.0000
  H   H174      1.0  0.69862  0.47853  0.34319  1.0000
  C   C229      1.0  0.65899  0.24874  0.35097  1.0000
  C   C230      1.0  0.64582  0.25388  0.43190  1.0000
  C   C231      1.0  0.61528  0.25321  0.42984  1.0000
  H   H175      1.0  0.60781  0.26011  0.48670  1.0000
  C   C232      1.0  0.66365  0.26198  0.51957  1.0000
  H   H176      1.0  0.68578  0.25974  0.51757  1.0000
  H   H177      1.0  0.64749  0.24508  0.57142  1.0000
  H   H178      1.0  0.67086  0.28724  0.53913  1.0000
  C   C233      1.0  0.76144  0.41229  0.35081  1.0000
  C   C234      1.0  0.75629  0.39400  0.43178  1.0000
  C   C235      1.0  0.75694  0.36412  0.42982  1.0000
  H   H179      1.0  0.75002  0.34976  0.48670  1.0000
  C   C236      1.0  0.74819  0.40374  0.51942  1.0000
  H   H180      1.0  0.75045  0.42813  0.51737  1.0000
  H   H181      1.0  0.76508  0.40449  0.57129  1.0000
  H   H182      1.0  0.72293  0.38572  0.53896  1.0000
  C   C237      1.0  0.59799  0.35119  0.35082  1.0000
  C   C238      1.0  0.61631  0.36437  0.43175  1.0000
  C   C239      1.0  0.64616  0.39493  0.42975  1.0000
  H   H183      1.0  0.66053  0.40240  0.48660  1.0000
  C   C240      1.0  0.60661  0.34653  0.51941  1.0000
  H   H184      1.0  0.58223  0.32439  0.51743  1.0000
  H   H185      1.0  0.60586  0.36268  0.57128  1.0000
  H   H186      1.0  0.62466  0.33933  0.53892  1.0000
  C   C241      1.0  0.85323  0.25937  0.35087  1.0000
  C   C242      1.0  0.86645  0.25426  0.43176  1.0000
  C   C243      1.0  0.89701  0.25496  0.42977  1.0000
  H   H187      1.0  0.90447  0.24806  0.48664  1.0000
  C   C244      1.0  0.84862  0.24614  0.51944  1.0000
  H   H188      1.0  0.82647  0.24836  0.51744  1.0000
  H   H189      1.0  0.86477  0.26305  0.57128  1.0000
  H   H190      1.0  0.84142  0.22089  0.53898  1.0000
  C   C245      1.0  0.75084  0.09592  0.35084  1.0000
  C   C246      1.0  0.75596  0.11421  0.43183  1.0000
  C   C247      1.0  0.75527  0.14408  0.42992  1.0000
  H   H191      1.0  0.76219  0.15844  0.48678  1.0000
  C   C248      1.0  0.76405  0.10447  0.51948  1.0000
  H   H192      1.0  0.76181  0.08008  0.51743  1.0000
  H   H193      1.0  0.74715  0.10370  0.57134  1.0000
  H   H194      1.0  0.78931  0.12250  0.53906  1.0000
  C   C249      1.0  0.91433  0.15699  0.35083  1.0000
  C   C250      1.0  0.89601  0.14383  0.43176  1.0000
  C   C251      1.0  0.86614  0.11328  0.42977  1.0000
  H   H195      1.0  0.85176  0.10583  0.48662  1.0000
  C   C252      1.0  0.90572  0.16166  0.51942  1.0000
  H   H196      1.0  0.93011  0.18379  0.51743  1.0000
  H   H197      1.0  0.90646  0.14550  0.57130  1.0000
  H   H198      1.0  0.88769  0.16889  0.53894  1.0000
  C   C253      1.0  0.98815  0.74492  0.32087  1.0000
  C   C254      1.0  0.93423  0.69186  0.33992  1.0000
  C   C255      1.0  0.96821  0.70930  0.31510  1.0000
  C   C256      1.0  0.52416  0.76327  0.32085  1.0000
  C   C257      1.0  0.54410  0.79889  0.31509  1.0000
  C   C258      1.0  0.57807  0.81633  0.33996  1.0000
  O   O19       1.0  0.97998  0.68952  0.28605  1.0000
  O   O20       1.0  0.53233  0.81867  0.28608  1.0000
  H   H199      1.0  0.98442  0.69395  0.22142  1.0000
  H   H200      1.0  0.52789  0.81425  0.22144  1.0000
  C   C259      1.0  0.76530  0.74524  0.32092  1.0000
  C   C260      1.0  0.81837  0.74441  0.33991  1.0000
  C   C261      1.0  0.80092  0.76093  0.31511  1.0000
  C   C262      1.0  0.74693  0.76290  0.32098  1.0000
  C   C263      1.0  0.71132  0.74720  0.31520  1.0000
  C   C264      1.0  0.69386  0.76372  0.34003  1.0000
  O   O21       1.0  0.82069  0.79249  0.28609  1.0000
  O   O22       1.0  0.69155  0.71564  0.28616  1.0000
  H   H201      1.0  0.81627  0.79250  0.22146  1.0000
  H   H202      1.0  0.69597  0.71564  0.22152  1.0000
  C   C265      1.0  0.76497  0.52212  0.32085  1.0000
  C   C266      1.0  0.76580  0.57602  0.33994  1.0000
  C   C267      1.0  0.74928  0.54205  0.31510  1.0000
  C   C268      1.0  0.74731  0.98610  0.32080  1.0000
  C   C269      1.0  0.76300  0.96618  0.31505  1.0000
  C   C270      1.0  0.74648  0.93220  0.33988  1.0000
  O   O23       1.0  0.71772  0.53027  0.28605  1.0000
  O   O24       1.0  0.79457  0.97795  0.28607  1.0000
  H   H203      1.0  0.71772  0.52584  0.22142  1.0000
  H   H204      1.0  0.79459  0.98239  0.22143  1.0000
  C   C271      1.0  0.59680  0.74760  0.34986  1.0000
  C   C272      1.0  0.60852  0.73951  0.27067  1.0000
  C   C273      1.0  0.63909  0.73981  0.27280  1.0000
  H   H205      1.0  0.64905  0.73788  0.21324  1.0000
  C   C274      1.0  0.59246  0.73461  0.18112  1.0000
  H   H206      1.0  0.56864  0.73351  0.18410  1.0000
  H   H207      1.0  0.58822  0.71135  0.15197  1.0000
  H   H208      1.0  0.60854  0.75482  0.13623  1.0000
  C   C275      1.0  0.76254  0.85119  0.34996  1.0000
  C   C276      1.0  0.77070  0.87102  0.27077  1.0000
  C   C277      1.0  0.77041  0.90130  0.27279  1.0000
  H   H209      1.0  0.77238  0.91317  0.21319  1.0000
  C   C278      1.0  0.77563  0.85985  0.18126  1.0000
  H   H210      1.0  0.77672  0.83713  0.18428  1.0000
  H   H211      1.0  0.79891  0.87886  0.15218  1.0000
  H   H212      1.0  0.75545  0.85573  0.13628  1.0000
  C   C279      1.0  0.65900  0.91344  0.34981  1.0000
  C   C280      1.0  0.63919  0.90174  0.27064  1.0000
  C   C281      1.0  0.60894  0.87115  0.27276  1.0000
  H   H213      1.0  0.59704  0.86122  0.21319  1.0000
  C   C282      1.0  0.65033  0.91783  0.18112  1.0000
  H   H214      1.0  0.67303  0.94166  0.18413  1.0000
  H   H215      1.0  0.63130  0.92207  0.15205  1.0000
  H   H216      1.0  0.65447  0.90179  0.13615  1.0000
  C   C283      1.0  0.91549  0.76058  0.34982  1.0000
  C   C284      1.0  0.90378  0.76867  0.27065  1.0000
  C   C285      1.0  0.87319  0.76834  0.27280  1.0000
  H   H217      1.0  0.86325  0.77029  0.21322  1.0000
  C   C286      1.0  0.91985  0.77360  0.18112  1.0000
  H   H218      1.0  0.94368  0.77472  0.18411  1.0000
  H   H219      1.0  0.92408  0.79685  0.15198  1.0000
  H   H220      1.0  0.90379  0.75339  0.13619  1.0000
  C   C287      1.0  0.74967  0.65693  0.34997  1.0000
  C   C288      1.0  0.74156  0.63718  0.27068  1.0000
  C   C289      1.0  0.74187  0.60691  0.27277  1.0000
  H   H221      1.0  0.73993  0.59504  0.21318  1.0000
  C   C290      1.0  0.73663  0.64835  0.18117  1.0000
  H   H222      1.0  0.73551  0.67105  0.18420  1.0000
  H   H223      1.0  0.71338  0.62933  0.15203  1.0000
  H   H224      1.0  0.75684  0.65250  0.13624  1.0000
  C   C291      1.0  0.85328  0.59478  0.34983  1.0000
  C   C292      1.0  0.87310  0.60646  0.27066  1.0000
  C   C293      1.0  0.90336  0.63703  0.27277  1.0000
  H   H225      1.0  0.91525  0.64696  0.21320  1.0000
  C   C294      1.0  0.86195  0.59036  0.18115  1.0000
  H   H226      1.0  0.83923  0.56655  0.18415  1.0000
  H   H227      1.0  0.88096  0.58611  0.15209  1.0000
  H   H228      1.0  0.85783  0.60642  0.13616  1.0000
  C   C295      1.0  0.96937  0.76127  0.33407  1.0000
  C   C296      1.0  0.93464  0.74470  0.34405  1.0000
  C   C297      1.0  0.91804  0.71014  0.35195  1.0000
  H   H229      1.0  0.98058  0.78605  0.34308  1.0000
  H   H230      1.0  0.89288  0.69771  0.36148  1.0000
  C   C298      1.0  0.59427  0.79805  0.35185  1.0000
  C   C299      1.0  0.57765  0.76348  0.34411  1.0000
  C   C300      1.0  0.54293  0.74691  0.33403  1.0000
  H   H231      1.0  0.61943  0.81047  0.36153  1.0000
  H   H232      1.0  0.53172  0.72214  0.34324  1.0000
  C   C301      1.0  0.74896  0.71011  0.33406  1.0000
  C   C302      1.0  0.76553  0.69197  0.34413  1.0000
  C   C303      1.0  0.80010  0.70993  0.35195  1.0000
  H   H233      1.0  0.72419  0.69655  0.34329  1.0000
  H   H234      1.0  0.81253  0.69721  0.36159  1.0000
  C   C304      1.0  0.71213  0.79820  0.35205  1.0000
  C   C305      1.0  0.74670  0.81617  0.34418  1.0000
  C   C306      1.0  0.76327  0.79802  0.33417  1.0000
  H   H235      1.0  0.69969  0.81091  0.36168  1.0000
  H   H236      1.0  0.78805  0.81160  0.34308  1.0000
  C   C307      1.0  0.80009  0.54090  0.33405  1.0000
  C   C308      1.0  0.81825  0.57563  0.34406  1.0000
  C   C309      1.0  0.80028  0.59223  0.35198  1.0000
  H   H237      1.0  0.81367  0.52970  0.34305  1.0000
  H   H238      1.0  0.81300  0.61738  0.36153  1.0000
  C   C310      1.0  0.71200  0.91599  0.35175  1.0000
  C   C311      1.0  0.69404  0.93260  0.34402  1.0000
  C   C312      1.0  0.71219  0.96732  0.33397  1.0000
  H   H239      1.0  0.69927  0.89084  0.36142  1.0000
  H   H240      1.0  0.69863  0.97853  0.34319  1.0000
  C   C313      1.0  0.65899  0.74875  0.35097  1.0000
  C   C314      1.0  0.64582  0.75388  0.43190  1.0000
  C   C315      1.0  0.61528  0.75321  0.42984  1.0000
  H   H241      1.0  0.60781  0.76011  0.48670  1.0000
  C   C316      1.0  0.66365  0.76198  0.51957  1.0000
  H   H242      1.0  0.68578  0.75974  0.51757  1.0000
  H   H243      1.0  0.64749  0.74508  0.57142  1.0000
  H   H244      1.0  0.67086  0.78724  0.53913  1.0000
  C   C317      1.0  0.76144  0.91230  0.35081  1.0000
  C   C318      1.0  0.75629  0.89400  0.43178  1.0000
  C   C319      1.0  0.75694  0.86412  0.42982  1.0000
  H   H245      1.0  0.75002  0.84976  0.48670  1.0000
  C   C320      1.0  0.74819  0.90375  0.51942  1.0000
  H   H246      1.0  0.75045  0.92813  0.51737  1.0000
  H   H247      1.0  0.76508  0.90449  0.57129  1.0000
  H   H248      1.0  0.72293  0.88572  0.53896  1.0000
  C   C321      1.0  0.59799  0.85120  0.35082  1.0000
  C   C322      1.0  0.61631  0.86437  0.43175  1.0000
  C   C323      1.0  0.64616  0.89493  0.42975  1.0000
  H   H249      1.0  0.66054  0.90240  0.48660  1.0000
  C   C324      1.0  0.60661  0.84654  0.51941  1.0000
  H   H250      1.0  0.58224  0.82439  0.51743  1.0000
  H   H251      1.0  0.60586  0.86269  0.57128  1.0000
  H   H252      1.0  0.62466  0.83933  0.53892  1.0000
  C   C325      1.0  0.85323  0.75938  0.35087  1.0000
  C   C326      1.0  0.86645  0.75426  0.43176  1.0000
  C   C327      1.0  0.89701  0.75496  0.42977  1.0000
  H   H253      1.0  0.90447  0.74806  0.48664  1.0000
  C   C328      1.0  0.84862  0.74614  0.51944  1.0000
  H   H254      1.0  0.82647  0.74836  0.51744  1.0000
  H   H255      1.0  0.86477  0.76305  0.57128  1.0000
  H   H256      1.0  0.84143  0.72089  0.53898  1.0000
  C   C329      1.0  0.75084  0.59592  0.35084  1.0000
  C   C330      1.0  0.75596  0.61421  0.43183  1.0000
  C   C331      1.0  0.75527  0.64408  0.42992  1.0000
  H   H257      1.0  0.76219  0.65844  0.48678  1.0000
  C   C332      1.0  0.76406  0.60447  0.51948  1.0000
  H   H258      1.0  0.76181  0.58008  0.51743  1.0000
  H   H259      1.0  0.74715  0.60370  0.57134  1.0000
  H   H260      1.0  0.78931  0.62250  0.53906  1.0000
  C   C333      1.0  0.91433  0.65699  0.35083  1.0000
  C   C334      1.0  0.89601  0.64382  0.43176  1.0000
  C   C335      1.0  0.86614  0.61328  0.42977  1.0000
  H   H261      1.0  0.85176  0.60583  0.48662  1.0000
  C   C336      1.0  0.90573  0.66166  0.51942  1.0000
  H   H262      1.0  0.93011  0.68380  0.51743  1.0000
  H   H263      1.0  0.90646  0.64550  0.57130  1.0000
  H   H264      1.0  0.88769  0.66889  0.53894  1.0000
