data_image0
_chemical_formula_structural       H2C4HOHC2HC10H6C6H2C2H2C10H6C6H2C2H2C4H2C3HCOH3NC4H2C3HCOH3NC4H3NC8H7CHC8H7CHC5H3COH3NC5H3COH3NC3H2COH2N
_chemical_formula_sum              "H72 C96 O6 N6"
_cell_length_a       44.4687
_cell_length_b       44.4377
_cell_length_c       14.9456
_cell_angle_alpha    90
_cell_angle_beta     90
_cell_angle_gamma    120.015

_space_group_name_H-M_alt    "P 1"
_space_group_IT_number       1

loop_
  _space_group_symop_operation_xyz
  'x, y, z'

loop_
  _atom_site_type_symbol
  _atom_site_label
  _atom_site_symmetry_multiplicity
  _atom_site_fract_x
  _atom_site_fract_y
  _atom_site_fract_z
  _atom_site_occupancy
  H   H1        1.0  0.00597  0.53480  0.17999  1.0000
  H   H2        1.0  0.00948  0.53383  0.48687  1.0000
  C   C1        1.0  0.02135  0.51000  0.33948  1.0000
  C   C2        1.0  0.03947  0.54074  0.28685  1.0000
  C   C3        1.0  0.02023  0.55388  0.23216  1.0000
  C   C4        1.0  0.04030  0.49822  0.39015  1.0000
  H   H3        1.0  0.02765  0.47618  0.42821  1.0000
  O   O1        1.0  0.04069  0.58649  0.18739  1.0000
  H   H4        1.0  0.05047  0.60496  0.23302  1.0000
  C   C5        1.0  0.07628  0.55858  0.28711  1.0000
  C   C6        1.0  0.07681  0.51661  0.38983  1.0000
  H   H5        1.0  0.00122  0.55595  0.27438  1.0000
  C   C7        1.0  0.26222  0.63828  0.33970  1.0000
  C   C8        1.0  0.36692  0.62571  0.32917  1.0000
  C   C9        1.0  0.18821  0.60860  0.33283  1.0000
  C   C10       1.0  0.21049  0.63848  0.28224  1.0000
  C   C11       1.0  0.24674  0.65291  0.28533  1.0000
  C   C12       1.0  0.37117  0.76462  0.29541  1.0000
  C   C13       1.0  0.39281  0.80101  0.29507  1.0000
  C   C14       1.0  0.39622  0.58109  0.31734  1.0000
  C   C15       1.0  0.36769  0.57537  0.26339  1.0000
  C   C16       1.0  0.35342  0.59730  0.26899  1.0000
  H   H6        1.0  0.20054  0.65010  0.24220  1.0000
  H   H7        1.0  0.26174  0.67419  0.24639  1.0000
  H   H8        1.0  0.34967  0.75400  0.25518  1.0000
  H   H9        1.0  0.38623  0.81552  0.25507  1.0000
  H   H10       1.0  0.35684  0.55499  0.21935  1.0000
  H   H11       1.0  0.33303  0.59232  0.22795  1.0000
  C   C17       1.0  0.35156  0.64730  0.33643  1.0000
  C   C18       1.0  0.37243  0.68395  0.34016  1.0000
  C   C19       1.0  0.35787  0.70588  0.34554  1.0000
  C   C20       1.0  0.32122  0.68999  0.34721  1.0000
  C   C21       1.0  0.29923  0.65349  0.34264  1.0000
  C   C22       1.0  0.31502  0.63268  0.33800  1.0000
  H   H12       1.0  0.39882  0.69496  0.33511  1.0000
  H   H13       1.0  0.29951  0.60625  0.33447  1.0000
  C   C23       1.0  0.40850  0.55784  0.31298  1.0000
  C   C24       1.0  0.15262  0.59593  0.33055  1.0000
  H   H14       1.0  0.39192  0.53353  0.29459  1.0000
  H   H15       1.0  0.14449  0.61276  0.31891  1.0000
  C   C25       1.0  0.74318  0.36399  0.32642  1.0000
  C   C26       1.0  0.64013  0.37932  0.31939  1.0000
  C   C27       1.0  0.81712  0.39284  0.31462  1.0000
  C   C28       1.0  0.79397  0.36313  0.26447  1.0000
  C   C29       1.0  0.75780  0.34902  0.27024  1.0000
  C   C30       1.0  0.63155  0.23827  0.29228  1.0000
  C   C31       1.0  0.61095  0.20197  0.30190  1.0000
  C   C32       1.0  0.61102  0.42411  0.30254  1.0000
  C   C33       1.0  0.63914  0.42874  0.24833  1.0000
  C   C34       1.0  0.65337  0.40684  0.25656  1.0000
  H   H16       1.0  0.80321  0.35145  0.22228  1.0000
  H   H17       1.0  0.74223  0.32795  0.23123  1.0000
  H   H18       1.0  0.65150  0.24782  0.24707  1.0000
  H   H19       1.0  0.61707  0.18644  0.26469  1.0000
  H   H20       1.0  0.64957  0.44814  0.20147  1.0000
  H   H21       1.0  0.67324  0.41089  0.21461  1.0000
  C   C35       1.0  0.65477  0.35712  0.32718  1.0000
  C   C36       1.0  0.63327  0.32057  0.33325  1.0000
  C   C37       1.0  0.64720  0.29810  0.33780  1.0000
  C   C38       1.0  0.68376  0.31320  0.33674  1.0000
  C   C39       1.0  0.70631  0.34956  0.33081  1.0000
  C   C40       1.0  0.69122  0.37101  0.32654  1.0000
  H   H22       1.0  0.60687  0.30998  0.33073  1.0000
  H   H23       1.0  0.70718  0.39735  0.32168  1.0000
  C   C41       1.0  0.59759  0.44635  0.29188  1.0000
  C   C42       1.0  0.85283  0.40613  0.30626  1.0000
  H   H24       1.0  0.60926  0.46596  0.24887  1.0000
  H   H25       1.0  0.86102  0.39307  0.26906  1.0000
  C   C43       1.0  0.55414  0.46073  0.33333  1.0000
  C   C44       1.0  0.51418  0.49480  0.33600  1.0000
  C   C45       1.0  0.53646  0.49932  0.26346  1.0000
  C   C46       1.0  0.55596  0.48238  0.26182  1.0000
  H   H26       1.0  0.53828  0.51463  0.21017  1.0000
  H   H27       1.0  0.57101  0.48557  0.20702  1.0000
  C   C47       1.0  0.49431  0.51187  0.33149  1.0000
  C   C48       1.0  0.44523  0.51733  0.27896  1.0000
  C   C49       1.0  0.46337  0.49864  0.27954  1.0000
  H   H28       1.0  0.42365  0.50875  0.23994  1.0000
  C   C50       1.0  0.45032  0.46590  0.22629  1.0000
  O   O2        1.0  0.41743  0.45306  0.18255  1.0000
  H   H29       1.0  0.44876  0.44524  0.26933  1.0000
  H   H30       1.0  0.46918  0.47059  0.17364  1.0000
  H   H31       1.0  0.39923  0.44453  0.22883  1.0000
  N   N1        1.0  0.57095  0.44286  0.33495  1.0000
  C   C51       1.0  0.54286  0.09435  0.32521  1.0000
  C   C52       1.0  0.50900  0.02038  0.32721  1.0000
  C   C53       1.0  0.50735  0.03841  0.25106  1.0000
  C   C54       1.0  0.52446  0.07493  0.24969  1.0000
  H   H32       1.0  0.49383  0.02507  0.19541  1.0000
  H   H33       1.0  0.52306  0.08725  0.19334  1.0000
  C   C55       1.0  0.49125  0.98338  0.32405  1.0000
  C   C56       1.0  0.48638  0.92780  0.28394  1.0000
  C   C57       1.0  0.50540  0.96464  0.28073  1.0000
  H   H34       1.0  0.49564  0.91381  0.25179  1.0000
  C   C58       1.0  0.53945  0.98330  0.23270  1.0000
  O   O3        1.0  0.55264  0.96231  0.19632  1.0000
  H   H35       1.0  0.55919  0.00259  0.27737  1.0000
  H   H36       1.0  0.53651  0.99721  0.17629  1.0000
  H   H37       1.0  0.55979  0.95290  0.24645  1.0000
  N   N2        1.0  0.55951  0.12892  0.31987  1.0000
  C   C59       1.0  0.91040  0.45111  0.34246  1.0000
  C   C60       1.0  0.98441  0.49061  0.34403  1.0000
  C   C61       1.0  0.96639  0.46800  0.27221  1.0000
  C   C62       1.0  0.92993  0.44873  0.27109  1.0000
  H   H38       1.0  0.97969  0.46570  0.21921  1.0000
  H   H39       1.0  0.91783  0.43338  0.21689  1.0000
  H   H40       1.0  0.08967  0.58008  0.24784  1.0000
  N   N3        1.0  0.87575  0.43441  0.34420  1.0000
  C   C63       1.0  0.37946  0.74299  0.34700  1.0000
  C   C64       1.0  0.23982  0.60816  0.38973  1.0000
  C   C65       1.0  0.20347  0.59358  0.38650  1.0000
  C   C66       1.0  0.42368  0.81715  0.34637  1.0000
  C   C67       1.0  0.43201  0.79569  0.39823  1.0000
  C   C68       1.0  0.41024  0.75934  0.39882  1.0000
  C   C69       1.0  0.39578  0.63166  0.38231  1.0000
  C   C70       1.0  0.41017  0.60976  0.37668  1.0000
  H   H41       1.0  0.18829  0.57225  0.42514  1.0000
  H   H42       1.0  0.41712  0.74490  0.43811  1.0000
  H   H43       1.0  0.45415  0.80633  0.43616  1.0000
  H   H44       1.0  0.40600  0.65148  0.42795  1.0000
  H   H45       1.0  0.43043  0.61449  0.41796  1.0000
  H   H46       1.0  0.31025  0.70537  0.35353  1.0000
  H   H47       1.0  0.24984  0.59698  0.43096  1.0000
  C   C71       1.0  0.44649  0.85277  0.34339  1.0000
  H   H48       1.0  0.47176  0.86139  0.35114  1.0000
  C   C72       1.0  0.62517  0.26121  0.34402  1.0000
  C   C73       1.0  0.76628  0.39376  0.37647  1.0000
  C   C74       1.0  0.80253  0.40788  0.37088  1.0000
  C   C75       1.0  0.58319  0.18724  0.36393  1.0000
  C   C76       1.0  0.57649  0.21011  0.41485  1.0000
  C   C77       1.0  0.59696  0.24638  0.40471  1.0000
  C   C78       1.0  0.61190  0.37455  0.37343  1.0000
  C   C79       1.0  0.59764  0.39651  0.36531  1.0000
  H   H49       1.0  0.81816  0.42932  0.40862  1.0000
  H   H50       1.0  0.59183  0.26193  0.44485  1.0000
  H   H51       1.0  0.55690  0.20057  0.46118  1.0000
  H   H52       1.0  0.60174  0.35528  0.42056  1.0000
  H   H53       1.0  0.57739  0.39211  0.40618  1.0000
  H   H54       1.0  0.69428  0.29740  0.34283  1.0000
  H   H55       1.0  0.75687  0.40521  0.41876  1.0000
  C   C80       1.0  0.56415  0.15165  0.37983  1.0000
  H   H56       1.0  0.55359  0.14354  0.44010  1.0000
  C   C81       1.0  0.53204  0.45640  0.40590  1.0000
  C   C82       1.0  0.51194  0.47307  0.40888  1.0000
  C   C83       1.0  0.50590  0.54285  0.38103  1.0000
  C   C84       1.0  0.48721  0.56066  0.37998  1.0000
  C   C85       1.0  0.45643  0.54802  0.32974  1.0000
  H   H57       1.0  0.52808  0.55269  0.41863  1.0000
  H   H58       1.0  0.49619  0.58295  0.41680  1.0000
  H   H59       1.0  0.53031  0.44044  0.45758  1.0000
  C   C86       1.0  0.48907  0.46621  0.48820  1.0000
  O   O4        1.0  0.51020  0.48102  0.56600  1.0000
  H   H60       1.0  0.47195  0.47708  0.48070  1.0000
  H   H61       1.0  0.47249  0.43812  0.49678  1.0000
  H   H62       1.0  0.49460  0.47554  0.61772  1.0000
  N   N4        1.0  0.44009  0.56636  0.33129  1.0000
  C   C87       1.0  0.54471  0.07638  0.40115  1.0000
  C   C88       1.0  0.52812  0.03962  0.40368  1.0000
  C   C89       1.0  0.45889  0.96500  0.36835  1.0000
  C   C90       1.0  0.44060  0.92849  0.37067  1.0000
  C   C91       1.0  0.45440  0.90946  0.32992  1.0000
  H   H63       1.0  0.44842  0.97808  0.39995  1.0000
  H   H64       1.0  0.41735  0.91587  0.40376  1.0000
  H   H65       1.0  0.55906  0.09044  0.45509  1.0000
  C   C92       1.0  0.53243  0.02344  0.48650  1.0000
  O   O5        1.0  0.51533  0.02965  0.55932  1.0000
  H   H66       1.0  0.52181  0.99545  0.47954  1.0000
  H   H67       1.0  0.56015  0.03494  0.50110  1.0000
  H   H68       1.0  0.51922  0.01947  0.61353  1.0000
  N   N5        1.0  0.43604  0.87488  0.33401  1.0000
  C   C93       1.0  0.92840  0.47365  0.41412  1.0000
  C   C94       1.0  0.96519  0.49352  0.41656  1.0000
  C   C95       1.0  0.09531  0.54730  0.33941  1.0000
  H   H69       1.0  0.08983  0.50758  0.42758  1.0000
  H   H70       1.0  0.91435  0.47580  0.46557  1.0000
  C   C96       1.0  0.98152  0.51681  0.49507  1.0000
  O   O6        1.0  0.97534  0.49604  0.57354  1.0000
  H   H71       1.0  0.97014  0.53352  0.50317  1.0000
  H   H72       1.0  0.98571  0.51191  0.62471  1.0000
  N   N6        1.0  0.12996  0.56360  0.34162  1.0000
