data_image0
_chemical_formula_structural       C4NC2NHOHC4NC2NHOHC2H2OC2H2OC2H2OC2H2OC4NC2NHOHC4NC2NHOHC4NC2NHOHC4NC2NHOHC2H2OC2H2OC2H2OC2H2OC4NC2NHOHC4NC2NHOHC4NC2NHOHC4NC2NHOHCNCNCNCNCNCNCNCNCNCNCNCNCNCNCNCNCNCNCNCNCNCNCNCNCNCNCNCNCNCNCNCNCNCNCNCNC2H2C2H2C4NC2NH2C4NC2NH2C4NC2NH2C4NC2NH2C2H2C2H2C2H2C2H2C4NC2NH2C4NC2NH2C4NC2NH2C4NC2NH2C2H2C2H2C2H2C2H2
_chemical_formula_sum              "C180 N72 H72 O18"
_cell_length_a       33.9044
_cell_length_b       33.7446
_cell_length_c       14.8036
_cell_angle_alpha    90
_cell_angle_beta     90
_cell_angle_gamma    90.2782

_space_group_name_H-M_alt    "P 1"
_space_group_IT_number       1

loop_
  _space_group_symop_operation_xyz
  'x, y, z'

loop_
  _atom_site_type_symbol
  _atom_site_label
  _atom_site_symmetry_multiplicity
  _atom_site_fract_x
  _atom_site_fract_y
  _atom_site_fract_z
  _atom_site_occupancy
  C   C1        1.0  0.97434  0.53533  0.34332  1.0000
  C   C2        1.0  0.98995  0.52100  0.26027  1.0000
  C   C3        1.0  0.01991  0.49132  0.26174  1.0000
  C   C4        1.0  0.03438  0.47585  0.34424  1.0000
  N   N1        1.0  0.03431  0.47795  0.18161  1.0000
  C   C5        1.0  0.02175  0.49132  0.10045  1.0000
  C   C6        1.0  0.99238  0.52045  0.09829  1.0000
  N   N2        1.0  0.97747  0.53432  0.17750  1.0000
  H   H1        1.0  0.03357  0.48024  0.04229  1.0000
  O   O1        1.0  0.97923  0.53434  0.01806  1.0000
  H   H2        1.0  0.95711  0.55448  0.17350  1.0000
  C   C7        1.0  0.47414  0.97289  0.34324  1.0000
  C   C8        1.0  0.48898  0.98809  0.26014  1.0000
  C   C9        1.0  0.51892  0.01807  0.26159  1.0000
  C   C10       1.0  0.53418  0.03286  0.34412  1.0000
  N   N3        1.0  0.53268  0.03221  0.18142  1.0000
  C   C11       1.0  0.51947  0.01935  0.10026  1.0000
  C   C12       1.0  0.49011  0.98992  0.09814  1.0000
  N   N4        1.0  0.47584  0.97530  0.17737  1.0000
  H   H3        1.0  0.53083  0.03099  0.04209  1.0000
  O   O2        1.0  0.47637  0.97647  0.01793  1.0000
  H   H4        1.0  0.45550  0.95491  0.17342  1.0000
  C   C13       1.0  0.05777  0.27623  0.26728  1.0000
  C   C14       1.0  0.06624  0.31709  0.26861  1.0000
  H   H5        1.0  0.06935  0.33169  0.20838  1.0000
  H   H6        1.0  0.05478  0.26226  0.20625  1.0000
  O   O3        1.0  0.07213  0.33205  0.00964  1.0000
  C   C15       1.0  0.94912  0.73482  0.26722  1.0000
  C   C16       1.0  0.94033  0.69401  0.26871  1.0000
  H   H7        1.0  0.93617  0.67960  0.20858  1.0000
  H   H8        1.0  0.95123  0.74893  0.20616  1.0000
  O   O4        1.0  0.94062  0.67812  0.00977  1.0000
  C   C17       1.0  0.73311  0.05924  0.26689  1.0000
  C   C18       1.0  0.69248  0.06764  0.26816  1.0000
  H   H9        1.0  0.67818  0.07158  0.20794  1.0000
  H   H10       1.0  0.74719  0.05718  0.20589  1.0000
  O   O5        1.0  0.67640  0.06815  0.00912  1.0000
  C   C19       1.0  0.27597  0.95159  0.26653  1.0000
  C   C20       1.0  0.31633  0.94200  0.26817  1.0000
  H   H11       1.0  0.33093  0.93893  0.20806  1.0000
  H   H12       1.0  0.26234  0.95521  0.20537  1.0000
  O   O6        1.0  0.32986  0.93370  0.00918  1.0000
  C   C21       1.0  0.43558  0.83501  0.34360  1.0000
  C   C22       1.0  0.43963  0.81405  0.26069  1.0000
  C   C23       1.0  0.44890  0.77278  0.26262  1.0000
  C   C24       1.0  0.45410  0.75247  0.34546  1.0000
  N   N5        1.0  0.45254  0.75320  0.18272  1.0000
  C   C25       1.0  0.44785  0.77082  0.10135  1.0000
  C   C26       1.0  0.43875  0.81132  0.09873  1.0000
  N   N6        1.0  0.43493  0.83157  0.17773  1.0000
  H   H13       1.0  0.45092  0.75472  0.04338  1.0000
  O   O7        1.0  0.43387  0.82971  0.01831  1.0000
  H   H14       1.0  0.42862  0.85961  0.17345  1.0000
  C   C27       1.0  0.57186  0.17108  0.34269  1.0000
  C   C28       1.0  0.56670  0.19185  0.25987  1.0000
  C   C29       1.0  0.55790  0.23322  0.26196  1.0000
  C   C30       1.0  0.55435  0.25384  0.34488  1.0000
  N   N7        1.0  0.55329  0.25263  0.18212  1.0000
  C   C31       1.0  0.55660  0.23475  0.10068  1.0000
  C   C32       1.0  0.56528  0.19416  0.09792  1.0000
  N   N8        1.0  0.57003  0.17407  0.17685  1.0000
  H   H15       1.0  0.55289  0.25074  0.04275  1.0000
  O   O8        1.0  0.56888  0.17552  0.01743  1.0000
  H   H16       1.0  0.57603  0.14596  0.17248  1.0000
  C   C33       1.0  0.83675  0.57246  0.34366  1.0000
  C   C34       1.0  0.81594  0.56813  0.26068  1.0000
  C   C35       1.0  0.77469  0.55920  0.26246  1.0000
  C   C36       1.0  0.75418  0.55473  0.34524  1.0000
  N   N9        1.0  0.75530  0.55529  0.18245  1.0000
  C   C37       1.0  0.77308  0.55942  0.10115  1.0000
  C   C38       1.0  0.81354  0.56825  0.09870  1.0000
  N   N10       1.0  0.83362  0.57231  0.17779  1.0000
  H   H17       1.0  0.75711  0.55619  0.04310  1.0000
  O   O9        1.0  0.83209  0.57264  0.01835  1.0000
  H   H18       1.0  0.86165  0.57840  0.17362  1.0000
  C   C39       1.0  0.17172  0.43728  0.34334  1.0000
  C   C40       1.0  0.19266  0.44197  0.26064  1.0000
  C   C41       1.0  0.23413  0.44972  0.26298  1.0000
  C   C42       1.0  0.25471  0.45254  0.34601  1.0000
  N   N11       1.0  0.25368  0.45396  0.18326  1.0000
  C   C43       1.0  0.23586  0.45120  0.10172  1.0000
  C   C44       1.0  0.19518  0.44348  0.09870  1.0000
  N   N12       1.0  0.17495  0.43914  0.17750  1.0000
  H   H19       1.0  0.25196  0.45460  0.04390  1.0000
  O   O10       1.0  0.17661  0.44042  0.01809  1.0000
  H   H20       1.0  0.14677  0.43385  0.17296  1.0000
  C   C45       1.0  0.11081  0.10129  0.26552  1.0000
  C   C46       1.0  0.13447  0.06717  0.26592  1.0000
  H   H21       1.0  0.14135  0.05426  0.20536  1.0000
  H   H22       1.0  0.10131  0.11223  0.20481  1.0000
  O   O11       1.0  0.13756  0.04798  0.00623  1.0000
  C   C47       1.0  0.89716  0.90894  0.26730  1.0000
  C   C48       1.0  0.87364  0.94315  0.26797  1.0000
  H   H23       1.0  0.86591  0.95558  0.20743  1.0000
  H   H24       1.0  0.90576  0.89745  0.20641  1.0000
  O   O12       1.0  0.87594  0.96543  0.00761  1.0000
  C   C49       1.0  0.90817  0.11136  0.26551  1.0000
  C   C50       1.0  0.94298  0.13417  0.26630  1.0000
  H   H25       1.0  0.95645  0.14038  0.20600  1.0000
  H   H26       1.0  0.89743  0.10162  0.20475  1.0000
  O   O13       1.0  0.95948  0.13952  0.00714  1.0000
  C   C51       1.0  0.10023  0.89972  0.26489  1.0000
  C   C52       1.0  0.06555  0.87672  0.26621  1.0000
  H   H27       1.0  0.05200  0.87034  0.20608  1.0000
  H   H28       1.0  0.11080  0.90950  0.20399  1.0000
  O   O14       1.0  0.05020  0.87129  0.00732  1.0000
  C   C53       1.0  0.36396  0.54527  0.34580  1.0000
  C   C54       1.0  0.37569  0.56271  0.26242  1.0000
  C   C55       1.0  0.39930  0.59785  0.26362  1.0000
  C   C56       1.0  0.41100  0.61554  0.34620  1.0000
  N   N13       1.0  0.41164  0.61322  0.18339  1.0000
  C   C57       1.0  0.40232  0.59716  0.10237  1.0000
  C   C58       1.0  0.37899  0.56272  0.10049  1.0000
  N   N14       1.0  0.36661  0.54655  0.17984  1.0000
  H   H29       1.0  0.41234  0.60995  0.04416  1.0000
  O   O15       1.0  0.36932  0.54589  0.02048  1.0000
  H   H30       1.0  0.35050  0.52264  0.17612  1.0000
  C   C59       1.0  0.64546  0.46084  0.34360  1.0000
  C   C60       1.0  0.63278  0.44369  0.26063  1.0000
  C   C61       1.0  0.60904  0.40864  0.26246  1.0000
  C   C62       1.0  0.59803  0.39071  0.34527  1.0000
  N   N15       1.0  0.59590  0.39354  0.18263  1.0000
  C   C63       1.0  0.60453  0.40980  0.10142  1.0000
  C   C64       1.0  0.62796  0.44415  0.09891  1.0000
  N   N16       1.0  0.64115  0.46005  0.17787  1.0000
  H   H31       1.0  0.59393  0.39719  0.04352  1.0000
  O   O16       1.0  0.63696  0.46115  0.01867  1.0000
  H   H32       1.0  0.65735  0.48388  0.17371  1.0000
  C   C65       1.0  0.54768  0.64425  0.34345  1.0000
  C   C66       1.0  0.56456  0.63147  0.26043  1.0000
  C   C67       1.0  0.59968  0.60831  0.26210  1.0000
  C   C68       1.0  0.61800  0.59800  0.34477  1.0000
  N   N17       1.0  0.61452  0.59502  0.18228  1.0000
  C   C69       1.0  0.59795  0.60299  0.10120  1.0000
  C   C70       1.0  0.56352  0.62587  0.09883  1.0000
  N   N18       1.0  0.54788  0.63918  0.17780  1.0000
  H   H33       1.0  0.61036  0.59232  0.04331  1.0000
  O   O17       1.0  0.54621  0.63420  0.01874  1.0000
  H   H34       1.0  0.52399  0.65496  0.17375  1.0000
  C   C71       1.0  0.46116  0.36219  0.34504  1.0000
  C   C72       1.0  0.44335  0.37379  0.26216  1.0000
  C   C73       1.0  0.40812  0.39678  0.26431  1.0000
  C   C74       1.0  0.39065  0.40802  0.34731  1.0000
  N   N19       1.0  0.39243  0.40910  0.18452  1.0000
  C   C75       1.0  0.40825  0.40029  0.10310  1.0000
  C   C76       1.0  0.44276  0.37754  0.10030  1.0000
  N   N20       1.0  0.45925  0.36521  0.17918  1.0000
  H   H35       1.0  0.39522  0.41026  0.04526  1.0000
  O   O18       1.0  0.45934  0.36842  0.01984  1.0000
  H   H36       1.0  0.48321  0.34955  0.17483  1.0000
  C   C77       1.0  0.13110  0.42755  0.34614  1.0000
  N   N21       1.0  0.10278  0.45603  0.34508  1.0000
  C   C78       1.0  0.06378  0.44613  0.34661  1.0000
  N   N22       1.0  0.05336  0.40710  0.34796  1.0000
  C   C79       1.0  0.08128  0.37826  0.34823  1.0000
  N   N23       1.0  0.11999  0.38882  0.34755  1.0000
  C   C80       1.0  0.87724  0.58281  0.34704  1.0000
  N   N24       1.0  0.90582  0.55460  0.34577  1.0000
  C   C81       1.0  0.94473  0.56483  0.34696  1.0000
  N   N25       1.0  0.95481  0.60394  0.34808  1.0000
  C   C82       1.0  0.92666  0.63256  0.34865  1.0000
  N   N26       1.0  0.88802  0.62165  0.34812  1.0000
  C   C83       1.0  0.58203  0.13048  0.34574  1.0000
  N   N27       1.0  0.55380  0.10166  0.34491  1.0000
  C   C84       1.0  0.56380  0.06263  0.34651  1.0000
  N   N28       1.0  0.60267  0.05265  0.34775  1.0000
  C   C85       1.0  0.63130  0.08108  0.34778  1.0000
  N   N29       1.0  0.62064  0.11985  0.34694  1.0000
  C   C86       1.0  0.42554  0.87565  0.34689  1.0000
  N   N30       1.0  0.45399  0.90424  0.34574  1.0000
  C   C87       1.0  0.44434  0.94334  0.34685  1.0000
  N   N31       1.0  0.40557  0.95366  0.34768  1.0000
  C   C88       1.0  0.37668  0.92551  0.34822  1.0000
  N   N32       1.0  0.38700  0.88662  0.34787  1.0000
  C   C89       1.0  0.99962  0.16084  0.34512  1.0000
  N   N33       1.0  0.00767  0.20035  0.34587  1.0000
  C   C90       1.0  0.04569  0.21359  0.34514  1.0000
  N   N34       1.0  0.07572  0.18689  0.34520  1.0000
  C   C91       1.0  0.06795  0.14731  0.34437  1.0000
  N   N35       1.0  0.02990  0.13474  0.34510  1.0000
  C   C92       1.0  0.00928  0.84981  0.34577  1.0000
  N   N36       1.0  0.00113  0.81030  0.34597  1.0000
  C   C93       1.0  0.96307  0.79715  0.34492  1.0000
  N   N37       1.0  0.93311  0.82394  0.34525  1.0000
  C   C94       1.0  0.94100  0.86350  0.34507  1.0000
  N   N38       1.0  0.97906  0.87597  0.34606  1.0000
  C   C95       1.0  0.84783  0.00052  0.34557  1.0000
  N   N39       1.0  0.80846  0.00814  0.34607  1.0000
  C   C96       1.0  0.79518  0.04620  0.34483  1.0000
  N   N40       1.0  0.82170  0.07669  0.34470  1.0000
  C   C97       1.0  0.86111  0.06932  0.34415  1.0000
  N   N41       1.0  0.87367  0.03127  0.34539  1.0000
  C   C98       1.0  0.16139  0.01043  0.34366  1.0000
  N   N42       1.0  0.20071  0.00245  0.34454  1.0000
  C   C99       1.0  0.21364  0.96424  0.34382  1.0000
  N   N43       1.0  0.18682  0.93402  0.34398  1.0000
  C   C100      1.0  0.14751  0.94174  0.34296  1.0000
  N   N44       1.0  0.13527  0.97990  0.34364  1.0000
  C   C101      1.0  0.50896  0.65933  0.34762  1.0000
  N   N45       1.0  0.50075  0.69875  0.34734  1.0000
  C   C102      1.0  0.46267  0.71150  0.34841  1.0000
  N   N46       1.0  0.43275  0.68439  0.34822  1.0000
  C   C103      1.0  0.44069  0.64493  0.34851  1.0000
  N   N47       1.0  0.47875  0.63286  0.34751  1.0000
  C   C104      1.0  0.49991  0.34715  0.34816  1.0000
  N   N48       1.0  0.50802  0.30771  0.34741  1.0000
  C   C105      1.0  0.54606  0.29486  0.34801  1.0000
  N   N49       1.0  0.57605  0.32189  0.34782  1.0000
  C   C106      1.0  0.56824  0.36139  0.34854  1.0000
  N   N50       1.0  0.53019  0.37355  0.34798  1.0000
  C   C107      1.0  0.66090  0.49973  0.34742  1.0000
  N   N51       1.0  0.70021  0.50800  0.34716  1.0000
  C   C108      1.0  0.71327  0.54627  0.34810  1.0000
  N   N52       1.0  0.68653  0.57632  0.34780  1.0000
  C   C109      1.0  0.64716  0.56833  0.34811  1.0000
  N   N53       1.0  0.63484  0.53006  0.34714  1.0000
  C   C110      1.0  0.34837  0.50650  0.34964  1.0000
  N   N54       1.0  0.30903  0.49855  0.34862  1.0000
  C   C111      1.0  0.29570  0.46040  0.34939  1.0000
  N   N55       1.0  0.32218  0.43012  0.34946  1.0000
  C   C112      1.0  0.36162  0.43782  0.35045  1.0000
  N   N56       1.0  0.37422  0.47600  0.34981  1.0000
  C   C113      1.0  0.01840  0.49039  0.42573  1.0000
  C   C114      1.0  0.98894  0.51968  0.42526  1.0000
  H   H37       1.0  0.97814  0.52952  0.48578  1.0000
  H   H38       1.0  0.02816  0.47975  0.48649  1.0000
  C   C115      1.0  0.51912  0.01730  0.42568  1.0000
  C   C116      1.0  0.48955  0.98783  0.42521  1.0000
  H   H39       1.0  0.47930  0.97733  0.48575  1.0000
  H   H40       1.0  0.52951  0.02740  0.48644  1.0000
  C   C117      1.0  0.07084  0.33766  0.35109  1.0000
  C   C118      1.0  0.06704  0.31649  0.43382  1.0000
  C   C119      1.0  0.05844  0.27501  0.43153  1.0000
  C   C120      1.0  0.05385  0.25468  0.34847  1.0000
  N   N57       1.0  0.05495  0.25526  0.51129  1.0000
  C   C121      1.0  0.05919  0.27290  0.59281  1.0000
  C   C122      1.0  0.06770  0.31361  0.59575  1.0000
  N   N58       1.0  0.07137  0.33403  0.51692  1.0000
  H   H41       1.0  0.05625  0.25667  0.65066  1.0000
  H   H42       1.0  0.07720  0.36224  0.52142  1.0000
  C   C123      1.0  0.93695  0.67322  0.35123  1.0000
  C   C124      1.0  0.94233  0.69415  0.43385  1.0000
  C   C125      1.0  0.95126  0.73556  0.43139  1.0000
  C   C126      1.0  0.95471  0.75609  0.34828  1.0000
  N   N59       1.0  0.95610  0.75511  0.51105  1.0000
  C   C127      1.0  0.95290  0.73732  0.59264  1.0000
  C   C128      1.0  0.94409  0.69668  0.59579  1.0000
  N   N60       1.0  0.93910  0.67646  0.51704  1.0000
  H   H43       1.0  0.95680  0.75341  0.65042  1.0000
  H   H44       1.0  0.93302  0.64831  0.52167  1.0000
  C   C129      1.0  0.67173  0.07098  0.35057  1.0000
  C   C130      1.0  0.69252  0.06599  0.43330  1.0000
  C   C131      1.0  0.73376  0.05746  0.43107  1.0000
  C   C132      1.0  0.75425  0.05403  0.34808  1.0000
  N   N61       1.0  0.75317  0.05303  0.51087  1.0000
  C   C133      1.0  0.73540  0.05625  0.59236  1.0000
  C   C134      1.0  0.69494  0.06466  0.59525  1.0000
  N   N62       1.0  0.67486  0.06925  0.51638  1.0000
  H   H45       1.0  0.75138  0.05266  0.65024  1.0000
  H   H46       1.0  0.64683  0.07506  0.52085  1.0000
  C   C135      1.0  0.33639  0.93624  0.35076  1.0000
  C   C136      1.0  0.31523  0.94027  0.43327  1.0000
  C   C137      1.0  0.27427  0.95003  0.43065  1.0000
  C   C138      1.0  0.25443  0.95573  0.34749  1.0000
  N   N63       1.0  0.25452  0.95366  0.51022  1.0000
  C   C139      1.0  0.27170  0.94855  0.59186  1.0000
  C   C140      1.0  0.31189  0.93897  0.59515  1.0000
  N   N64       1.0  0.33229  0.93511  0.51650  1.0000
  H   H47       1.0  0.25550  0.95166  0.64956  1.0000
  H   H48       1.0  0.36012  0.92849  0.52125  1.0000
  C   C141      1.0  0.44986  0.77380  0.42681  1.0000
  C   C142      1.0  0.44072  0.81444  0.42586  1.0000
  H   H49       1.0  0.43767  0.82891  0.48622  1.0000
  H   H50       1.0  0.45322  0.75984  0.48773  1.0000
  C   C143      1.0  0.55975  0.23271  0.42614  1.0000
  C   C144      1.0  0.56845  0.19197  0.42502  1.0000
  H   H51       1.0  0.57247  0.17767  0.48529  1.0000
  H   H52       1.0  0.55759  0.24688  0.48709  1.0000
  C   C145      1.0  0.77535  0.55932  0.42665  1.0000
  C   C146      1.0  0.81598  0.56812  0.42584  1.0000
  H   H53       1.0  0.83029  0.57156  0.48626  1.0000
  H   H54       1.0  0.76127  0.55649  0.48753  1.0000
  C   C147      1.0  0.23342  0.44759  0.42713  1.0000
  C   C148      1.0  0.19258  0.43993  0.42577  1.0000
  H   H55       1.0  0.17818  0.43610  0.48595  1.0000
  H   H56       1.0  0.24754  0.44937  0.48816  1.0000
  C   C149      1.0  0.14589  0.04914  0.34793  1.0000
  C   C150      1.0  0.13311  0.06588  0.43113  1.0000
  C   C151      1.0  0.10906  0.10049  0.42979  1.0000
  C   C152      1.0  0.09783  0.11835  0.34720  1.0000
  N   N65       1.0  0.09584  0.11519  0.50982  1.0000
  C   C153      1.0  0.10466  0.09892  0.59083  1.0000
  C   C154      1.0  0.12838  0.06499  0.59288  1.0000
  N   N66       1.0  0.14165  0.04950  0.51370  1.0000
  H   H57       1.0  0.09399  0.11120  0.64889  1.0000
  H   H58       1.0  0.15806  0.02596  0.51755  1.0000
  C   C155      1.0  0.86357  0.96196  0.35000  1.0000
  C   C156      1.0  0.87738  0.94585  0.43298  1.0000
  C   C157      1.0  0.90127  0.91114  0.43134  1.0000
  C   C158      1.0  0.91126  0.89255  0.34873  1.0000
  N   N67       1.0  0.91544  0.89697  0.51102  1.0000
  C   C159      1.0  0.90770  0.91384  0.59195  1.0000
  C   C160      1.0  0.88411  0.94786  0.59431  1.0000
  N   N68       1.0  0.86991  0.96284  0.51547  1.0000
  H   H59       1.0  0.91904  0.90193  0.64974  1.0000
  H   H60       1.0  0.85359  0.98643  0.51953  1.0000
  C   C161      1.0  0.96088  0.14552  0.34856  1.0000
  C   C162      1.0  0.94313  0.13389  0.43162  1.0000
  C   C163      1.0  0.90780  0.11071  0.42982  1.0000
  C   C164      1.0  0.89013  0.09937  0.34698  1.0000
  N   N69       1.0  0.89218  0.09835  0.50977  1.0000
  C   C165      1.0  0.90815  0.10729  0.59104  1.0000
  C   C166      1.0  0.94275  0.13024  0.59352  1.0000
  N   N70       1.0  0.95918  0.14260  0.51446  1.0000
  H   H61       1.0  0.89516  0.09728  0.64902  1.0000
  H   H62       1.0  0.98321  0.15840  0.51858  1.0000
  C   C167      1.0  0.04801  0.86519  0.34874  1.0000
  C   C168      1.0  0.06585  0.87698  0.43157  1.0000
  C   C169      1.0  0.10102  0.90040  0.42928  1.0000
  C   C170      1.0  0.11834  0.91184  0.34615  1.0000
  N   N71       1.0  0.11679  0.91287  0.50898  1.0000
  C   C171      1.0  0.10110  0.90382  0.59048  1.0000
  C   C172      1.0  0.06665  0.88067  0.59344  1.0000
  N   N72       1.0  0.05008  0.86818  0.51463  1.0000
  H   H63       1.0  0.11419  0.91391  0.64826  1.0000
  H   H64       1.0  0.02616  0.85222  0.51909  1.0000
  C   C173      1.0  0.39895  0.59780  0.42800  1.0000
  C   C174      1.0  0.37572  0.56317  0.42778  1.0000
  H   H65       1.0  0.36940  0.54989  0.48830  1.0000
  H   H66       1.0  0.40876  0.60872  0.48857  1.0000
  C   C175      1.0  0.61094  0.40820  0.42669  1.0000
  C   C176      1.0  0.63430  0.44275  0.42585  1.0000
  H   H67       1.0  0.64118  0.45587  0.48625  1.0000
  H   H68       1.0  0.60158  0.39722  0.48758  1.0000
  C   C177      1.0  0.60075  0.61096  0.42623  1.0000
  C   C178      1.0  0.56614  0.63377  0.42556  1.0000
  H   H69       1.0  0.55326  0.64070  0.48607  1.0000
  H   H70       1.0  0.61196  0.60199  0.48710  1.0000
  C   C179      1.0  0.40884  0.39621  0.42862  1.0000
  C   C180      1.0  0.44355  0.37357  0.42747  1.0000
  H   H71       1.0  0.45710  0.36744  0.48766  1.0000
  H   H72       1.0  0.39825  0.40591  0.48949  1.0000
