data_image0
_chemical_formula_structural       C3NC3NC5NC5NC20H18C4H4CNCNO2NCNCNO2NC8H8NC2HN2C2HN
_chemical_formula_sum              "C56 N14 H32 O4"
_cell_length_a       25.5838
_cell_length_b       25.5836
_cell_length_c       14.5928
_cell_angle_alpha    90
_cell_angle_beta     90
_cell_angle_gamma    90.0372

_space_group_name_H-M_alt    "P 1"
_space_group_IT_number       1

loop_
  _space_group_symop_operation_xyz
  'x, y, z'

loop_
  _atom_site_type_symbol
  _atom_site_label
  _atom_site_symmetry_multiplicity
  _atom_site_fract_x
  _atom_site_fract_y
  _atom_site_fract_z
  _atom_site_occupancy
  C   C1        1.0  0.91840  0.87595  0.34659  1.0000
  C   C2        1.0  0.87941  0.91323  0.34688  1.0000
  C   C3        1.0  0.90274  0.96265  0.34858  1.0000
  N   N1        1.0  0.95497  0.95327  0.35136  1.0000
  C   C4        1.0  0.96668  0.90149  0.34930  1.0000
  C   C5        1.0  0.01621  0.87598  0.34808  1.0000
  C   C6        1.0  0.06513  0.90248  0.34886  1.0000
  N   N2        1.0  0.07422  0.95461  0.35097  1.0000
  C   C7        1.0  0.12590  0.96598  0.34915  1.0000
  C   C8        1.0  0.15164  0.91787  0.34602  1.0000
  C   C9        1.0  0.11432  0.87887  0.34652  1.0000
  C   C10       1.0  0.15014  0.01605  0.34816  1.0000
  C   C11       1.0  0.12242  0.06441  0.34881  1.0000
  N   N3        1.0  0.07019  0.07383  0.35155  1.0000
  C   C12       1.0  0.05849  0.12559  0.34823  1.0000
  C   C13       1.0  0.10678  0.15110  0.34487  1.0000
  C   C14       1.0  0.14577  0.11379  0.34583  1.0000
  C   C15       1.0  0.00894  0.15106  0.34653  1.0000
  C   C16       1.0  0.96001  0.12453  0.34779  1.0000
  N   N4        1.0  0.95090  0.07240  0.34974  1.0000
  C   C17       1.0  0.89920  0.06104  0.34816  1.0000
  C   C18       1.0  0.87345  0.10912  0.34533  1.0000
  C   C19       1.0  0.91078  0.14811  0.34590  1.0000
  C   C20       1.0  0.87496  0.01098  0.34701  1.0000
  C   C21       1.0  0.81917  0.00912  0.33819  1.0000
  C   C22       1.0  0.70784  0.00163  0.31951  1.0000
  C   C23       1.0  0.74150  0.99253  0.24406  1.0000
  C   C24       1.0  0.79614  0.99651  0.25300  1.0000
  C   C25       1.0  0.00796  0.20686  0.33758  1.0000
  C   C26       1.0  0.00108  0.31822  0.31908  1.0000
  C   C27       1.0  0.99212  0.28466  0.24343  1.0000
  C   C28       1.0  0.99580  0.23000  0.25229  1.0000
  C   C29       1.0  0.20591  0.01769  0.33931  1.0000
  C   C30       1.0  0.22890  0.02822  0.25328  1.0000
  C   C31       1.0  0.28359  0.02903  0.24300  1.0000
  C   C32       1.0  0.31742  0.01898  0.31794  1.0000
  C   C33       1.0  0.01702  0.82020  0.33917  1.0000
  C   C34       1.0  0.02718  0.79715  0.25306  1.0000
  C   C35       1.0  0.01778  0.70868  0.31790  1.0000
  C   C36       1.0  0.02770  0.74245  0.24282  1.0000
  H   H1        1.0  0.03526  0.72752  0.17907  1.0000
  H   H2        1.0  0.03425  0.82012  0.19695  1.0000
  H   H3        1.0  0.91176  0.83660  0.34402  1.0000
  H   H4        1.0  0.84038  0.90482  0.34495  1.0000
  H   H5        1.0  0.98088  0.98036  0.35280  1.0000
  H   H6        1.0  0.04428  0.04675  0.35376  1.0000
  H   H7        1.0  0.12242  0.83977  0.34425  1.0000
  H   H8        1.0  0.19102  0.91145  0.34311  1.0000
  H   H9        1.0  0.20589  0.03526  0.19722  1.0000
  H   H10       1.0  0.29849  0.03680  0.17929  1.0000
  H   H11       1.0  0.18481  0.12213  0.34333  1.0000
  H   H12       1.0  0.11338  0.19043  0.34106  1.0000
  H   H13       1.0  0.83406  0.11551  0.34267  1.0000
  H   H14       1.0  0.90262  0.18719  0.34391  1.0000
  H   H15       1.0  0.98850  0.20706  0.19622  1.0000
  H   H16       1.0  0.98237  0.29973  0.18070  1.0000
  H   H17       1.0  0.81914  0.98926  0.19700  1.0000
  H   H18       1.0  0.72650  0.98256  0.18136  1.0000
  C   C37       1.0  0.99475  0.37206  0.30817  1.0000
  C   C38       1.0  0.37152  0.01924  0.30392  1.0000
  C   C39       1.0  0.01789  0.65457  0.30394  1.0000
  C   C40       1.0  0.65401  0.99531  0.30843  1.0000
  H   H19       1.0  0.97184  0.38440  0.25747  1.0000
  H   H20       1.0  0.38448  0.02304  0.23990  1.0000
  H   H21       1.0  0.02123  0.64160  0.23984  1.0000
  H   H22       1.0  0.64165  0.97247  0.25762  1.0000
  C   C41       1.0  0.01511  0.45859  0.35569  1.0000
  N   N5        1.0  0.01822  0.54204  0.28267  1.0000
  C   C42       1.0  0.01882  0.48891  0.27455  1.0000
  N   N6        1.0  0.02466  0.46553  0.18778  1.0000
  O   O1        1.0  0.98777  0.47891  0.13609  1.0000
  O   O2        1.0  0.06673  0.47992  0.15131  1.0000
  N   N7        1.0  0.01688  0.40649  0.35968  1.0000
  C   C43       1.0  0.56749  0.01577  0.35581  1.0000
  N   N8        1.0  0.48409  0.01918  0.28267  1.0000
  C   C44       1.0  0.53722  0.01972  0.27465  1.0000
  N   N9        1.0  0.56067  0.02571  0.18796  1.0000
  O   O3        1.0  0.54721  0.98896  0.13600  1.0000
  O   O4        1.0  0.54642  0.06788  0.15175  1.0000
  N   N10       1.0  0.61958  0.01745  0.35988  1.0000
  C   C45       1.0  0.78589  0.01869  0.41372  1.0000
  C   C46       1.0  0.73109  0.01522  0.40440  1.0000
  C   C47       1.0  0.01749  0.24005  0.41326  1.0000
  C   C48       1.0  0.01429  0.29487  0.40405  1.0000
  C   C49       1.0  0.29405  0.00833  0.40407  1.0000
  C   C50       1.0  0.23921  0.00778  0.41465  1.0000
  C   C51       1.0  0.00723  0.78696  0.41466  1.0000
  C   C52       1.0  0.00751  0.73211  0.40412  1.0000
  H   H23       1.0  0.99985  0.70944  0.46029  1.0000
  H   H24       1.0  0.99954  0.80255  0.47781  1.0000
  H   H25       1.0  0.22367  0.99971  0.47771  1.0000
  H   H26       1.0  0.31676  0.00054  0.46014  1.0000
  H   H27       1.0  0.02607  0.22442  0.47604  1.0000
  H   H28       1.0  0.02050  0.31756  0.46077  1.0000
  H   H29       1.0  0.70834  0.02155  0.46100  1.0000
  H   H30       1.0  0.80144  0.02767  0.47639  1.0000
  N   N11       1.0  0.01228  0.48475  0.43671  1.0000
  C   C53       1.0  0.01151  0.53775  0.44374  1.0000
  C   C54       1.0  0.01440  0.56827  0.36355  1.0000
  H   H31       1.0  0.00923  0.55477  0.50697  1.0000
  N   N12       1.0  0.01440  0.62039  0.36861  1.0000
  N   N13       1.0  0.54128  0.01277  0.43676  1.0000
  C   C55       1.0  0.48828  0.01207  0.44370  1.0000
  C   C56       1.0  0.45781  0.01522  0.36349  1.0000
  H   H32       1.0  0.47122  0.00962  0.50689  1.0000
  N   N14       1.0  0.40569  0.01523  0.36850  1.0000
