data_image0
_chemical_formula_structural       NC3O2HNC3O2HCNC2O2HCNC2O2HNC3O2HNC3O2HCNC2O2HCNC2O2HNC3O2HNC3O2HNC3O2HNC3O2HCNC2O2HCNC2O2HNC3O2HNC3O2HCNC2O2HCNC2O2HNC3O2HNC3O2HCNC2O2HCNC2O2HNC3O2HNC3O2HCNCNCNCNCNCNCNCNCNCNCNCNCNCNCNCNCNCNCNCNCNCNCNCNCNCNCNCNCNCNCNCNCNCNCNCNCNCNCNCNCNCNCNCNCNCNCNCNCNC2O2HCNC2O2HNC3O2HNC3O2HCNC2O2HCNC2O2HNC3O2HNC3O2HCNC2O2HCNC2O2HCNC2O2HCNC2O2HNC3O2HNC3O2HCNC2O2HCNC2O2HNC3O2HNC3O2HCNC2O2HCNC2O2HNC3O2HNC3O2HCNC2O2HCNC2O2H
_chemical_formula_sum              "N96 C192 O96 H48"
_cell_length_a       43.7565
_cell_length_b       34.3117
_cell_length_c       14.8477
_cell_angle_alpha    90
_cell_angle_beta     90
_cell_angle_gamma    90

_space_group_name_H-M_alt    "P 1"
_space_group_IT_number       1

loop_
  _space_group_symop_operation_xyz
  'x, y, z'

loop_
  _atom_site_type_symbol
  _atom_site_label
  _atom_site_symmetry_multiplicity
  _atom_site_fract_x
  _atom_site_fract_y
  _atom_site_fract_z
  _atom_site_occupancy
  N   N1        1.0  0.02783  0.98277  0.31408  1.0000
  C   C1        1.0  0.03085  0.02229  0.30808  1.0000
  C   C2        1.0  0.00657  0.04630  0.33953  1.0000
  C   C3        1.0  0.05629  0.03649  0.26342  1.0000
  O   O1        1.0  0.08125  0.02326  0.28425  1.0000
  O   O2        1.0  0.05441  0.04670  0.18371  1.0000
  H   H1        1.0  0.03741  0.05460  0.15683  1.0000
  N   N2        1.0  0.52852  0.48323  0.31566  1.0000
  C   C4        1.0  0.53160  0.52281  0.30998  1.0000
  C   C5        1.0  0.50702  0.54688  0.33950  1.0000
  C   C6        1.0  0.55787  0.53706  0.26950  1.0000
  O   O3        1.0  0.58238  0.52278  0.29128  1.0000
  O   O4        1.0  0.55727  0.55010  0.19181  1.0000
  H   H2        1.0  0.54067  0.55852  0.16370  1.0000
  C   C7        1.0  0.06044  0.17208  0.34073  1.0000
  N   N3        1.0  0.11325  0.18810  0.31557  1.0000
  C   C8        1.0  0.08998  0.16152  0.30897  1.0000
  C   C9        1.0  0.09557  0.12712  0.26329  1.0000
  O   O5        1.0  0.11865  0.10899  0.28305  1.0000
  O   O6        1.0  0.08783  0.12357  0.18358  1.0000
  H   H3        1.0  0.07283  0.13669  0.15732  1.0000
  C   C10       1.0  0.95010  0.83756  0.35015  1.0000
  N   N4        1.0  0.89755  0.82125  0.32274  1.0000
  C   C11       1.0  0.92081  0.84785  0.31600  1.0000
  C   C12       1.0  0.91548  0.88206  0.26890  1.0000
  O   O7        1.0  0.89137  0.89911  0.28210  1.0000
  O   O8        1.0  0.92641  0.88735  0.19301  1.0000
  H   H4        1.0  0.94222  0.87453  0.17028  1.0000
  N   N5        1.0  0.95143  0.20563  0.30002  1.0000
  C   C13       1.0  0.92810  0.23163  0.29194  1.0000
  C   C14       1.0  0.89936  0.22227  0.33163  1.0000
  C   C15       1.0  0.93376  0.26472  0.24065  1.0000
  O   O9        1.0  0.95830  0.28135  0.24941  1.0000
  O   O10       1.0  0.92134  0.26977  0.16672  1.0000
  H   H5        1.0  0.90483  0.25729  0.14765  1.0000
  N   N6        1.0  0.05869  0.80379  0.30235  1.0000
  C   C16       1.0  0.08200  0.77779  0.29402  1.0000
  C   C17       1.0  0.11124  0.78802  0.32927  1.0000
  C   C18       1.0  0.07568  0.74365  0.24732  1.0000
  O   O11       1.0  0.05145  0.72701  0.26164  1.0000
  O   O12       1.0  0.08688  0.73715  0.17230  1.0000
  H   H6        1.0  0.10297  0.74932  0.14950  1.0000
  C   C19       1.0  0.56033  0.67340  0.32612  1.0000
  N   N7        1.0  0.58750  0.73231  0.29588  1.0000
  C   C20       1.0  0.56085  0.71206  0.29133  1.0000
  C   C21       1.0  0.53643  0.73030  0.24913  1.0000
  O   O13       1.0  0.52810  0.71639  0.17746  1.0000
  O   O14       1.0  0.53130  0.76557  0.25708  1.0000
  H   H7        1.0  0.53671  0.77968  0.30435  1.0000
  C   C22       1.0  0.45045  0.33712  0.33489  1.0000
  N   N8        1.0  0.42332  0.27800  0.30668  1.0000
  C   C23       1.0  0.45000  0.29813  0.30204  1.0000
  C   C24       1.0  0.47441  0.27931  0.26125  1.0000
  O   O15       1.0  0.48240  0.29182  0.18789  1.0000
  O   O16       1.0  0.47969  0.24426  0.27272  1.0000
  H   H8        1.0  0.47447  0.23106  0.32157  1.0000
  N   N9        1.0  0.42394  0.65845  0.32489  1.0000
  C   C25       1.0  0.39697  0.67889  0.32212  1.0000
  C   C26       1.0  0.39668  0.71812  0.35294  1.0000
  C   C27       1.0  0.37188  0.66176  0.28159  1.0000
  O   O17       1.0  0.36535  0.62854  0.30415  1.0000
  O   O18       1.0  0.36517  0.66959  0.20271  1.0000
  H   H9        1.0  0.37030  0.69136  0.17430  1.0000
  N   N10       1.0  0.58682  0.35183  0.32210  1.0000
  C   C28       1.0  0.61373  0.33127  0.31885  1.0000
  C   C29       1.0  0.61421  0.29246  0.35236  1.0000
  C   C30       1.0  0.63857  0.34779  0.27561  1.0000
  O   O19       1.0  0.64495  0.38154  0.29397  1.0000
  O   O20       1.0  0.64520  0.33822  0.19769  1.0000
  H   H10       1.0  0.64009  0.31584  0.17195  1.0000
  N   N11       1.0  0.40104  0.10458  0.29184  1.0000
  C   C31       1.0  0.39487  0.14317  0.28596  1.0000
  C   C32       1.0  0.36685  0.15621  0.32325  1.0000
  C   C33       1.0  0.41603  0.16670  0.24222  1.0000
  O   O21       1.0  0.44318  0.16069  0.25579  1.0000
  O   O22       1.0  0.41004  0.18216  0.16908  1.0000
  H   H11       1.0  0.39142  0.18535  0.14683  1.0000
  N   N12       1.0  0.61092  0.90653  0.28365  1.0000
  C   C34       1.0  0.61704  0.86797  0.27543  1.0000
  C   C35       1.0  0.64473  0.85428  0.31355  1.0000
  C   C36       1.0  0.59598  0.84492  0.22996  1.0000
  O   O23       1.0  0.56875  0.85147  0.24059  1.0000
  O   O24       1.0  0.60235  0.82923  0.15732  1.0000
  H   H12       1.0  0.62110  0.82568  0.13634  1.0000
  C   C37       1.0  0.62934  0.07779  0.36713  1.0000
  N   N13       1.0  0.66300  0.13018  0.33311  1.0000
  C   C38       1.0  0.65731  0.09111  0.33028  1.0000
  C   C39       1.0  0.67733  0.06726  0.28344  1.0000
  O   O25       1.0  0.70454  0.07081  0.29999  1.0000
  O   O26       1.0  0.67142  0.05678  0.20563  1.0000
  H   H13       1.0  0.65287  0.05594  0.18168  1.0000
  C   C40       1.0  0.38194  0.93237  0.36016  1.0000
  N   N14       1.0  0.34914  0.87977  0.32192  1.0000
  C   C41       1.0  0.35509  0.91874  0.31728  1.0000
  C   C42       1.0  0.33708  0.94195  0.26230  1.0000
  O   O27       1.0  0.30941  0.93775  0.26830  1.0000
  O   O28       1.0  0.34598  0.95220  0.18688  1.0000
  H   H14       1.0  0.36535  0.95306  0.16951  1.0000
  N   N15       1.0  0.85872  0.58561  0.31981  1.0000
  C   C43       1.0  0.84767  0.62265  0.31367  1.0000
  C   C44       1.0  0.86378  0.65263  0.35963  1.0000
  C   C45       1.0  0.82393  0.62961  0.25386  1.0000
  O   O29       1.0  0.80202  0.60755  0.25611  1.0000
  O   O30       1.0  0.82864  0.64528  0.18013  1.0000
  H   H15       1.0  0.84495  0.65941  0.16641  1.0000
  N   N16       1.0  0.15169  0.42438  0.31862  1.0000
  C   C46       1.0  0.16255  0.38741  0.30787  1.0000
  C   C47       1.0  0.14688  0.35674  0.35263  1.0000
  C   C48       1.0  0.18599  0.38125  0.24664  1.0000
  O   O31       1.0  0.20749  0.40400  0.24679  1.0000
  O   O32       1.0  0.18139  0.36508  0.17341  1.0000
  H   H16       1.0  0.16525  0.35056  0.16031  1.0000
  C   C49       1.0  0.12894  0.57743  0.32420  1.0000
  N   N17       1.0  0.12410  0.64415  0.28258  1.0000
  C   C50       1.0  0.11440  0.60695  0.27200  1.0000
  C   C51       1.0  0.09095  0.60036  0.21057  1.0000
  O   O33       1.0  0.09625  0.57764  0.14916  1.0000
  O   O34       1.0  0.07037  0.62421  0.19574  1.0000
  H   H17       1.0  0.06441  0.64233  0.23430  1.0000
  C   C52       1.0  0.88230  0.43287  0.30884  1.0000
  N   N18       1.0  0.88590  0.36539  0.27278  1.0000
  C   C53       1.0  0.89552  0.40229  0.25690  1.0000
  C   C54       1.0  0.91707  0.40747  0.18926  1.0000
  O   O35       1.0  0.90942  0.42893  0.12753  1.0000
  O   O36       1.0  0.93553  0.38190  0.16733  1.0000
  H   H18       1.0  0.94294  0.36418  0.20473  1.0000
  N   N19       1.0  0.52307  0.97649  0.31084  1.0000
  C   C55       1.0  0.49239  0.97291  0.30142  1.0000
  C   C56       1.0  0.47409  0.00279  0.33924  1.0000
  C   C57       1.0  0.48115  0.94228  0.24992  1.0000
  O   O37       1.0  0.49321  0.91034  0.25799  1.0000
  O   O38       1.0  0.46865  0.94812  0.17638  1.0000
  H   H19       1.0  0.46135  0.97083  0.15776  1.0000
  N   N20       1.0  0.02426  0.48159  0.29866  1.0000
  C   C58       1.0  0.99381  0.47868  0.28399  1.0000
  C   C59       1.0  0.97455  0.50491  0.33119  1.0000
  C   C60       1.0  0.98403  0.45322  0.21750  1.0000
  O   O39       1.0  0.99658  0.42147  0.21211  1.0000
  O   O40       1.0  0.97457  0.46578  0.14450  1.0000
  H   H20       1.0  0.96701  0.48943  0.13546  1.0000
  C   C61       1.0  0.22219  0.25743  0.34258  1.0000
  N   N21       1.0  0.26781  0.22147  0.31629  1.0000
  C   C62       1.0  0.23666  0.22279  0.31304  1.0000
  C   C63       1.0  0.22099  0.19163  0.27548  1.0000
  O   O41       1.0  0.22925  0.15882  0.29621  1.0000
  O   O42       1.0  0.20927  0.19434  0.19990  1.0000
  H   H21       1.0  0.20457  0.21650  0.17251  1.0000
  C   C64       1.0  0.78861  0.75221  0.34533  1.0000
  N   N22       1.0  0.74336  0.78844  0.31565  1.0000
  C   C65       1.0  0.77453  0.78704  0.31534  1.0000
  C   C66       1.0  0.79067  0.81831  0.28022  1.0000
  O   O43       1.0  0.78203  0.85098  0.30106  1.0000
  O   O44       1.0  0.80302  0.81636  0.20547  1.0000
  H   H22       1.0  0.80803  0.79444  0.17758  1.0000
  N   N23       1.0  0.76961  0.28644  0.31732  1.0000
  C   C67       1.0  0.73854  0.28578  0.31465  1.0000
  C   C68       1.0  0.72376  0.25132  0.34370  1.0000
  C   C69       1.0  0.72340  0.31761  0.27841  1.0000
  O   O45       1.0  0.73117  0.34993  0.30427  1.0000
  O   O46       1.0  0.71364  0.31641  0.20029  1.0000
  H   H23       1.0  0.70911  0.29480  0.17038  1.0000
  N   N24       1.0  0.24123  0.72448  0.31401  1.0000
  C   C70       1.0  0.27230  0.72502  0.31177  1.0000
  C   C71       1.0  0.28712  0.75940  0.34114  1.0000
  C   C72       1.0  0.28744  0.69317  0.27585  1.0000
  O   O47       1.0  0.27936  0.66073  0.30016  1.0000
  O   O48       1.0  0.29765  0.69426  0.19820  1.0000
  H   H24       1.0  0.30242  0.71584  0.16852  1.0000
  C   C73       1.0  0.97805  0.14827  0.34383  1.0000
  N   N25       1.0  0.97920  0.10846  0.34368  1.0000
  C   C74       1.0  0.00615  0.08821  0.33968  1.0000
  N   N26       1.0  0.03255  0.10953  0.33747  1.0000
  C   C75       1.0  0.03296  0.14927  0.33858  1.0000
  N   N27       1.0  0.00531  0.16749  0.34141  1.0000
  C   C76       1.0  0.03241  0.86167  0.34468  1.0000
  N   N28       1.0  0.03106  0.90146  0.34586  1.0000
  C   C77       1.0  0.00402  0.92152  0.34838  1.0000
  N   N29       1.0  0.97771  0.90006  0.34859  1.0000
  C   C78       1.0  0.97752  0.86035  0.34734  1.0000
  N   N30       1.0  0.00522  0.84223  0.34564  1.0000
  C   C79       1.0  0.47846  0.64911  0.34996  1.0000
  N   N31       1.0  0.47957  0.60925  0.34796  1.0000
  C   C80       1.0  0.50651  0.58893  0.34008  1.0000
  N   N32       1.0  0.53288  0.61035  0.33396  1.0000
  C   C81       1.0  0.53319  0.65008  0.33324  1.0000
  N   N33       1.0  0.50565  0.66786  0.34166  1.0000
  C   C82       1.0  0.53252  0.36166  0.35123  1.0000
  N   N34       1.0  0.53137  0.40151  0.35020  1.0000
  C   C83       1.0  0.50427  0.42172  0.34749  1.0000
  N   N35       1.0  0.47781  0.40037  0.34314  1.0000
  C   C84       1.0  0.47757  0.36062  0.34063  1.0000
  N   N36       1.0  0.50525  0.34295  0.34566  1.0000
  C   C85       1.0  0.39511  0.96984  0.35156  1.0000
  N   N37       1.0  0.37993  0.00457  0.34423  1.0000
  C   C86       1.0  0.39568  0.03884  0.33522  1.0000
  N   N38       1.0  0.42668  0.03721  0.33366  1.0000
  C   C87       1.0  0.44215  0.00334  0.33893  1.0000
  N   N39       1.0  0.42604  0.97022  0.34845  1.0000
  C   C88       1.0  0.61656  0.03987  0.36000  1.0000
  N   N40       1.0  0.63175  0.00557  0.34554  1.0000
  C   C89       1.0  0.61612  0.97129  0.33497  1.0000
  N   N41       1.0  0.58513  0.97238  0.33920  1.0000
  C   C90       1.0  0.56942  0.00555  0.35430  1.0000
  N   N42       1.0  0.58564  0.03861  0.36342  1.0000
  C   C91       1.0  0.89560  0.47037  0.31713  1.0000
  N   N43       1.0  0.88027  0.50390  0.33889  1.0000
  C   C92       1.0  0.89590  0.53771  0.35573  1.0000
  N   N44       1.0  0.92675  0.53699  0.34959  1.0000
  C   C93       1.0  0.94254  0.50453  0.32887  1.0000
  N   N45       1.0  0.92657  0.47153  0.31449  1.0000
  C   C94       1.0  0.11576  0.54034  0.33855  1.0000
  N   N46       1.0  0.13110  0.50588  0.35006  1.0000
  C   C95       1.0  0.11533  0.47204  0.36579  1.0000
  N   N47       1.0  0.08439  0.47360  0.36672  1.0000
  C   C96       1.0  0.06902  0.50735  0.35930  1.0000
  N   N48       1.0  0.08491  0.54024  0.34515  1.0000
  C   C97       1.0  0.13668  0.25038  0.34985  1.0000
  N   N49       1.0  0.16673  0.23904  0.34461  1.0000
  C   C98       1.0  0.19020  0.26566  0.34248  1.0000
  N   N50       1.0  0.18270  0.30402  0.34389  1.0000
  C   C99       1.0  0.15357  0.31663  0.34708  1.0000
  N   N51       1.0  0.13118  0.28941  0.35109  1.0000
  C   C100      1.0  0.87404  0.75919  0.35877  1.0000
  N   N52       1.0  0.84405  0.77052  0.35139  1.0000
  C   C101      1.0  0.82059  0.74393  0.34832  1.0000
  N   N53       1.0  0.82811  0.70559  0.35077  1.0000
  C   C102      1.0  0.85719  0.69288  0.35618  1.0000
  N   N54       1.0  0.87958  0.72014  0.36085  1.0000
  C   C103      1.0  0.87387  0.24873  0.33619  1.0000
  N   N55       1.0  0.84374  0.23779  0.34246  1.0000
  C   C104      1.0  0.82049  0.26473  0.34519  1.0000
  N   N56       1.0  0.82831  0.30296  0.34351  1.0000
  C   C105      1.0  0.85749  0.31522  0.33931  1.0000
  N   N57       1.0  0.87969  0.28774  0.33444  1.0000
  C   C106      1.0  0.13691  0.76183  0.33382  1.0000
  N   N58       1.0  0.16702  0.77303  0.33863  1.0000
  C   C107      1.0  0.19038  0.74626  0.34206  1.0000
  N   N59       1.0  0.18269  0.70800  0.34274  1.0000
  C   C108      1.0  0.15356  0.69551  0.34013  1.0000
  N   N60       1.0  0.13124  0.72279  0.33465  1.0000
  C   C109      1.0  0.63922  0.74709  0.33125  1.0000
  N   N61       1.0  0.66964  0.73835  0.33945  1.0000
  C   C110      1.0  0.69190  0.76653  0.33816  1.0000
  N   N62       1.0  0.68279  0.80417  0.32889  1.0000
  C   C111      1.0  0.65311  0.81448  0.32012  1.0000
  N   N63       1.0  0.63203  0.78547  0.32169  1.0000
  C   C112      1.0  0.37152  0.26344  0.34032  1.0000
  N   N64       1.0  0.34101  0.27194  0.34624  1.0000
  C   C113      1.0  0.31893  0.24351  0.34420  1.0000
  N   N65       1.0  0.32828  0.20590  0.33630  1.0000
  C   C114      1.0  0.35809  0.19586  0.32990  1.0000
  N   N66       1.0  0.37895  0.22509  0.33215  1.0000
  C   C115      1.0  0.37197  0.74579  0.35157  1.0000
  N   N67       1.0  0.34147  0.73722  0.34414  1.0000
  C   C116      1.0  0.31935  0.76565  0.34471  1.0000
  N   N68       1.0  0.32866  0.80322  0.35220  1.0000
  C   C117      1.0  0.35836  0.81329  0.36001  1.0000
  N   N69       1.0  0.37937  0.78420  0.35969  1.0000
  C   C118      1.0  0.63890  0.26479  0.35177  1.0000
  N   N70       1.0  0.66941  0.27335  0.34476  1.0000
  C   C119      1.0  0.69152  0.24496  0.34675  1.0000
  N   N71       1.0  0.68222  0.20742  0.35551  1.0000
  C   C120      1.0  0.65251  0.19730  0.36299  1.0000
  N   N72       1.0  0.63153  0.22643  0.36103  1.0000
  C   C121      1.0  0.00342  0.96338  0.34906  1.0000
  N   N73       1.0  0.98210  0.02688  0.37423  1.0000
  C   C122      1.0  0.97905  0.98732  0.38025  1.0000
  C   C123      1.0  0.95312  0.97285  0.42244  1.0000
  O   O49       1.0  0.92848  0.98723  0.40253  1.0000
  O   O50       1.0  0.95454  0.95884  0.49910  1.0000
  H   H25       1.0  0.97144  0.95022  0.52533  1.0000
  C   C124      1.0  0.50375  0.46369  0.34806  1.0000
  N   N74       1.0  0.48225  0.52728  0.37189  1.0000
  C   C125      1.0  0.47911  0.48768  0.37729  1.0000
  C   C126      1.0  0.45285  0.47312  0.41738  1.0000
  O   O51       1.0  0.42848  0.48800  0.39631  1.0000
  O   O52       1.0  0.45338  0.45900  0.49396  1.0000
  H   H26       1.0  0.46997  0.45015  0.52145  1.0000
  N   N75       1.0  0.05846  0.20797  0.37893  1.0000
  C   C127      1.0  0.08156  0.23430  0.38724  1.0000
  C   C128      1.0  0.11099  0.22426  0.35313  1.0000
  C   C129      1.0  0.07482  0.26848  0.43334  1.0000
  O   O53       1.0  0.05082  0.28512  0.41611  1.0000
  O   O54       1.0  0.08524  0.27477  0.50938  1.0000
  H   H27       1.0  0.10111  0.26256  0.53343  1.0000
  N   N76       1.0  0.95190  0.80215  0.39070  1.0000
  C   C130      1.0  0.92874  0.77593  0.39933  1.0000
  C   C131      1.0  0.89960  0.78549  0.36244  1.0000
  C   C132      1.0  0.93495  0.74244  0.44860  1.0000
  O   O55       1.0  0.95943  0.72601  0.43701  1.0000
  O   O56       1.0  0.92340  0.73692  0.52358  1.0000
  H   H28       1.0  0.90709  0.74920  0.54468  1.0000
  C   C133      1.0  0.95029  0.17058  0.34250  1.0000
  N   N77       1.0  0.89789  0.18687  0.37338  1.0000
  C   C134      1.0  0.92138  0.16048  0.37959  1.0000
  C   C135      1.0  0.91674  0.12666  0.42889  1.0000
  O   O57       1.0  0.89257  0.10943  0.41831  1.0000
  O   O58       1.0  0.92855  0.12239  0.50397  1.0000
  H   H29       1.0  0.94456  0.13554  0.52432  1.0000
  C   C136      1.0  0.06029  0.83965  0.34092  1.0000
  N   N78       1.0  0.11314  0.82420  0.36702  1.0000
  C   C137      1.0  0.08968  0.85059  0.37326  1.0000
  C   C138      1.0  0.09489  0.88532  0.41838  1.0000
  O   O59       1.0  0.11876  0.90241  0.40197  1.0000
  O   O60       1.0  0.08489  0.89084  0.49521  1.0000
  H   H30       1.0  0.06942  0.87800  0.51976  1.0000
  N   N79       1.0  0.58734  0.66005  0.36026  1.0000
  C   C139      1.0  0.61421  0.68060  0.36310  1.0000
  C   C140      1.0  0.61448  0.71956  0.33056  1.0000
  C   C141      1.0  0.63911  0.66392  0.40583  1.0000
  O   O61       1.0  0.64588  0.63069  0.38399  1.0000
  O   O62       1.0  0.64485  0.67227  0.48507  1.0000
  H   H31       1.0  0.63950  0.69428  0.51212  1.0000
  N   N80       1.0  0.42328  0.35084  0.36719  1.0000
  C   C142      1.0  0.39637  0.33033  0.37021  1.0000
  C   C143      1.0  0.39621  0.29106  0.33974  1.0000
  C   C144      1.0  0.37120  0.34751  0.41024  1.0000
  O   O63       1.0  0.36492  0.38087  0.38815  1.0000
  O   O64       1.0  0.36421  0.33951  0.48882  1.0000
  H   H32       1.0  0.36916  0.31764  0.51706  1.0000
  C   C145      1.0  0.45107  0.67213  0.35758  1.0000
  N   N81       1.0  0.42374  0.73114  0.38638  1.0000
  C   C146      1.0  0.45045  0.71105  0.39107  1.0000
  C   C147      1.0  0.47485  0.72997  0.43199  1.0000
  O   O65       1.0  0.48340  0.71661  0.50398  1.0000
  O   O66       1.0  0.47975  0.76518  0.42153  1.0000
  H   H33       1.0  0.47404  0.77873  0.37369  1.0000
  C   C148      1.0  0.55992  0.33860  0.35739  1.0000
  N   N82       1.0  0.58740  0.27990  0.38836  1.0000
  C   C149      1.0  0.56076  0.30011  0.39341  1.0000
  C   C150      1.0  0.53669  0.28183  0.43735  1.0000
  O   O67       1.0  0.52950  0.29593  0.50990  1.0000
  O   O68       1.0  0.53182  0.24646  0.43106  1.0000
  H   H34       1.0  0.53674  0.23221  0.38354  1.0000
  C   C151      1.0  0.38284  0.07677  0.32918  1.0000
  N   N83       1.0  0.34816  0.12856  0.35965  1.0000
  C   C152      1.0  0.35435  0.08961  0.36352  1.0000
  C   C153      1.0  0.33413  0.06540  0.40847  1.0000
  O   O69       1.0  0.30691  0.06914  0.39215  1.0000
  O   O70       1.0  0.33963  0.05389  0.48577  1.0000
  H   H35       1.0  0.35804  0.05288  0.51058  1.0000
  C   C154      1.0  0.62911  0.93373  0.32338  1.0000
  N   N84       1.0  0.66336  0.88139  0.35229  1.0000
  C   C155      1.0  0.65742  0.92034  0.35784  1.0000
  C   C156      1.0  0.67739  0.94371  0.40602  1.0000
  O   O71       1.0  0.70468  0.94038  0.39021  1.0000
  O   O72       1.0  0.67156  0.95361  0.48430  1.0000
  H   H36       1.0  0.65306  0.95408  0.50855  1.0000
  N   N85       1.0  0.61122  0.10533  0.40604  1.0000
  C   C157      1.0  0.61696  0.14403  0.41109  1.0000
  C   C158      1.0  0.64431  0.15753  0.37082  1.0000
  C   C159      1.0  0.59600  0.16735  0.45612  1.0000
  O   O73       1.0  0.56877  0.16101  0.44511  1.0000
  O   O74       1.0  0.60237  0.18301  0.52875  1.0000
  H   H37       1.0  0.62112  0.18656  0.54965  1.0000
  N   N86       1.0  0.39888  0.90552  0.40558  1.0000
  C   C160      1.0  0.39273  0.86695  0.41239  1.0000
  C   C161      1.0  0.36651  0.85304  0.36664  1.0000
  C   C162      1.0  0.41205  0.84406  0.46445  1.0000
  O   O75       1.0  0.43953  0.85039  0.46140  1.0000
  O   O76       1.0  0.40322  0.82899  0.53552  1.0000
  H   H38       1.0  0.38384  0.82567  0.55108  1.0000
  C   C163      1.0  0.88284  0.57484  0.37176  1.0000
  N   N87       1.0  0.88758  0.64176  0.41230  1.0000
  C   C164      1.0  0.89774  0.60467  0.42210  1.0000
  C   C165      1.0  0.92203  0.59850  0.48075  1.0000
  O   O77       1.0  0.91766  0.57626  0.54373  1.0000
  O   O78       1.0  0.94269  0.62252  0.49290  1.0000
  H   H39       1.0  0.94817  0.64041  0.45315  1.0000
  C   C166      1.0  0.12804  0.43420  0.37353  1.0000
  N   N88       1.0  0.12374  0.36670  0.40856  1.0000
  C   C167      1.0  0.11371  0.40353  0.42254  1.0000
  C   C168      1.0  0.09040  0.40848  0.48511  1.0000
  O   O79       1.0  0.09599  0.42893  0.55046  1.0000
  O   O80       1.0  0.06972  0.38444  0.49662  1.0000
  H   H40       1.0  0.06346  0.36773  0.45517  1.0000
  N   N89       1.0  0.15237  0.58846  0.37848  1.0000
  C   C169      1.0  0.16300  0.62566  0.38545  1.0000
  C   C170      1.0  0.14710  0.65532  0.33779  1.0000
  C   C171      1.0  0.18621  0.63311  0.44668  1.0000
  O   O81       1.0  0.20800  0.61082  0.44841  1.0000
  O   O82       1.0  0.18113  0.64988  0.51890  1.0000
  H   H41       1.0  0.16478  0.66424  0.53065  1.0000
  N   N90       1.0  0.85973  0.42293  0.36744  1.0000
  C   C172      1.0  0.84906  0.38596  0.37964  1.0000
  C   C173      1.0  0.86407  0.35532  0.33290  1.0000
  C   C174      1.0  0.82640  0.37982  0.44339  1.0000
  O   O83       1.0  0.80481  0.40240  0.44509  1.0000
  O   O84       1.0  0.83183  0.36360  0.51604  1.0000
  H   H42       1.0  0.84814  0.34915  0.52750  1.0000
  C   C175      1.0  0.53733  0.00596  0.35517  1.0000
  N   N91       1.0  0.48821  0.03224  0.38370  1.0000
  C   C176      1.0  0.51887  0.03565  0.39363  1.0000
  C   C177      1.0  0.52965  0.06637  0.44546  1.0000
  O   O85       1.0  0.54140  0.05781  0.51748  1.0000
  O   O86       1.0  0.51757  0.09894  0.44451  1.0000
  H   H43       1.0  0.50760  0.10874  0.39789  1.0000
  C   C178      1.0  0.03730  0.50754  0.35562  1.0000
  N   N92       1.0  0.98783  0.53131  0.38722  1.0000
  C   C179      1.0  0.01832  0.53445  0.40094  1.0000
  C   C180      1.0  0.02898  0.56182  0.46166  1.0000
  O   O87       1.0  0.02184  0.55703  0.54045  1.0000
  O   O88       1.0  0.03150  0.59636  0.43933  1.0000
  H   H44       1.0  0.03480  0.60449  0.38361  1.0000
  N   N93       1.0  0.24118  0.28607  0.37326  1.0000
  C   C181      1.0  0.27222  0.28476  0.37690  1.0000
  C   C182      1.0  0.28674  0.25030  0.34660  1.0000
  C   C183      1.0  0.28751  0.31589  0.41555  1.0000
  O   O89       1.0  0.28003  0.34875  0.39262  1.0000
  O   O90       1.0  0.29711  0.31375  0.49375  1.0000
  H   H45       1.0  0.30142  0.29177  0.52242  1.0000
  N   N94       1.0  0.76924  0.72346  0.37326  1.0000
  C   C184      1.0  0.73818  0.72486  0.37392  1.0000
  C   C185      1.0  0.72403  0.75953  0.34332  1.0000
  C   C186      1.0  0.72243  0.69350  0.40986  1.0000
  O   O91       1.0  0.72990  0.66083  0.38555  1.0000
  O   O92       1.0  0.71243  0.69491  0.48771  1.0000
  H   H46       1.0  0.70801  0.71663  0.51731  1.0000
  C   C187      1.0  0.78840  0.25716  0.34595  1.0000
  N   N95       1.0  0.74250  0.22189  0.37196  1.0000
  C   C188      1.0  0.77366  0.22256  0.37432  1.0000
  C   C189      1.0  0.78907  0.19073  0.40953  1.0000
  O   O93       1.0  0.78020  0.15820  0.38843  1.0000
  O   O94       1.0  0.80127  0.19228  0.48464  1.0000
  H   H47       1.0  0.80644  0.21402  0.51305  1.0000
  C   C190      1.0  0.22246  0.75384  0.34235  1.0000
  N   N96       1.0  0.26839  0.78890  0.36920  1.0000
  C   C191      1.0  0.23723  0.78837  0.37102  1.0000
  C   C192      1.0  0.22183  0.82014  0.40658  1.0000
  O   O95       1.0  0.23077  0.85269  0.38603  1.0000
  O   O96       1.0  0.20959  0.81841  0.48162  1.0000
  H   H48       1.0  0.20438  0.79661  0.50972  1.0000
