data_image0
_chemical_formula_structural       C4NH3C4NH3C4NH3C4NH3C4NH3C4NH3N12C4NH3C4NH3C4NH3C4NH3C4NH3C4NH3CNCNCNCNCNCNCNCNCNCNCNCNCNCNCNCNCNCNCNCNCNCNCNCNCNCNCNCNCNCNCNCNCNCNCNCN13C4NH3C4NH3C4NH3C4NH3C4NH3C4NH3N12
_chemical_formula_sum              "C108 N90 H54"
_cell_length_a       39.2633
_cell_length_b       39.2633
_cell_length_c       14.9167
_cell_angle_alpha    90
_cell_angle_beta     90
_cell_angle_gamma    120

_space_group_name_H-M_alt    "P 1"
_space_group_IT_number       1

loop_
  _space_group_symop_operation_xyz
  'x, y, z'

loop_
  _atom_site_type_symbol
  _atom_site_label
  _atom_site_symmetry_multiplicity
  _atom_site_fract_x
  _atom_site_fract_y
  _atom_site_fract_z
  _atom_site_occupancy
  C   C1        1.0  0.26685  0.45739  0.32194  1.0000
  C   C2        1.0  0.23210  0.42064  0.31291  1.0000
  C   C3        1.0  0.19451  0.41783  0.31019  1.0000
  C   C4        1.0  0.19284  0.45328  0.31819  1.0000
  N   N1        1.0  0.16255  0.38146  0.29919  1.0000
  H   H1        1.0  0.16523  0.35824  0.29298  1.0000
  H   H2        1.0  0.13623  0.37728  0.29399  1.0000
  H   H3        1.0  0.23425  0.39579  0.30751  1.0000
  C   C5        1.0  0.56812  0.82937  0.32200  1.0000
  C   C6        1.0  0.60488  0.83138  0.31295  1.0000
  C   C7        1.0  0.60770  0.79660  0.31029  1.0000
  C   C8        1.0  0.57225  0.75947  0.31829  1.0000
  N   N2        1.0  0.64407  0.80101  0.29936  1.0000
  H   H4        1.0  0.66729  0.82691  0.29320  1.0000
  H   H5        1.0  0.64827  0.77887  0.29439  1.0000
  H   H6        1.0  0.62972  0.85837  0.30754  1.0000
  C   C9        1.0  0.19605  0.75858  0.32175  1.0000
  C   C10       1.0  0.19405  0.79334  0.31297  1.0000
  C   C11       1.0  0.22883  0.83094  0.31041  1.0000
  C   C12       1.0  0.26595  0.83259  0.31822  1.0000
  N   N3        1.0  0.22442  0.86292  0.29979  1.0000
  H   H7        1.0  0.19853  0.86026  0.29379  1.0000
  H   H8        1.0  0.24656  0.88926  0.29501  1.0000
  H   H9        1.0  0.16706  0.79122  0.30773  1.0000
  C   C13       1.0  0.75385  0.57281  0.32182  1.0000
  C   C14       1.0  0.78860  0.60957  0.31294  1.0000
  C   C15       1.0  0.82620  0.61239  0.31039  1.0000
  C   C16       1.0  0.82787  0.57693  0.31834  1.0000
  N   N4        1.0  0.85817  0.64878  0.29960  1.0000
  H   H10       1.0  0.85549  0.67201  0.29369  1.0000
  H   H11       1.0  0.88452  0.65301  0.29495  1.0000
  H   H12       1.0  0.78645  0.63441  0.30756  1.0000
  C   C17       1.0  0.45256  0.20086  0.32201  1.0000
  C   C18       1.0  0.41580  0.19884  0.31299  1.0000
  C   C19       1.0  0.41298  0.23362  0.31034  1.0000
  C   C20       1.0  0.44843  0.27074  0.31837  1.0000
  N   N5        1.0  0.37661  0.22921  0.29938  1.0000
  H   H13       1.0  0.35339  0.20331  0.29318  1.0000
  H   H14       1.0  0.37241  0.25134  0.29433  1.0000
  H   H15       1.0  0.39096  0.17185  0.30756  1.0000
  C   C21       1.0  0.82466  0.27164  0.32190  1.0000
  C   C22       1.0  0.82666  0.23688  0.31299  1.0000
  C   C23       1.0  0.79187  0.19928  0.31032  1.0000
  C   C24       1.0  0.75475  0.19763  0.31817  1.0000
  N   N6        1.0  0.79628  0.16731  0.29955  1.0000
  H   H16       1.0  0.82217  0.16998  0.29350  1.0000
  H   H17       1.0  0.77414  0.14098  0.29461  1.0000
  H   H18       1.0  0.85365  0.23901  0.30770  1.0000
  N   N7        1.0  0.11347  0.58290  0.32277  1.0000
  N   N8        1.0  0.11155  0.54895  0.31851  1.0000
  N   N9        1.0  0.44252  0.55051  0.32249  1.0000
  N   N10       1.0  0.47647  0.58254  0.31815  1.0000
  N   N11       1.0  0.47492  0.91182  0.32259  1.0000
  N   N12       1.0  0.44288  0.91373  0.31822  1.0000
  N   N13       1.0  0.90724  0.44732  0.32330  1.0000
  N   N14       1.0  0.90917  0.48128  0.31904  1.0000
  N   N15       1.0  0.57816  0.47968  0.32259  1.0000
  N   N16       1.0  0.54418  0.44767  0.31839  1.0000
  N   N17       1.0  0.54580  0.11843  0.32218  1.0000
  N   N18       1.0  0.57783  0.11650  0.31788  1.0000
  C   C25       1.0  0.96659  0.36912  0.34055  1.0000
  C   C26       1.0  0.98557  0.35091  0.29826  1.0000
  C   C27       1.0  0.02742  0.37082  0.29160  1.0000
  C   C28       1.0  0.04941  0.40887  0.33122  1.0000
  N   N19       1.0  0.04447  0.35395  0.24357  1.0000
  H   H19       1.0  0.02874  0.32846  0.21500  1.0000
  H   H20       1.0  0.07254  0.36745  0.23257  1.0000
  H   H21       1.0  0.96886  0.32458  0.26637  1.0000
  C   C29       1.0  0.65621  0.61714  0.33960  1.0000
  C   C30       1.0  0.67466  0.65457  0.29843  1.0000
  C   C31       1.0  0.65478  0.67655  0.29188  1.0000
  C   C32       1.0  0.61650  0.66024  0.33041  1.0000
  N   N20       1.0  0.67190  0.71074  0.24481  1.0000
  H   H22       1.0  0.69755  0.72065  0.21689  1.0000
  H   H23       1.0  0.65843  0.72533  0.23372  1.0000
  H   H24       1.0  0.70117  0.66439  0.26725  1.0000
  C   C33       1.0  0.40834  0.05890  0.33953  1.0000
  C   C34       1.0  0.37086  0.03991  0.29857  1.0000
  C   C35       1.0  0.34887  0.99805  0.29202  1.0000
  C   C36       1.0  0.36524  0.97608  0.33030  1.0000
  N   N21       1.0  0.31463  0.98099  0.24517  1.0000
  H   H25       1.0  0.30469  0.99672  0.21741  1.0000
  H   H26       1.0  0.30004  0.95294  0.23403  1.0000
  H   H27       1.0  0.36099  0.05661  0.26759  1.0000
  C   C37       1.0  0.05412  0.66112  0.34045  1.0000
  C   C38       1.0  0.03513  0.67931  0.29813  1.0000
  C   C39       1.0  0.99327  0.65937  0.29155  1.0000
  C   C40       1.0  0.97131  0.62137  0.33144  1.0000
  N   N22       1.0  0.97619  0.67616  0.24333  1.0000
  H   H28       1.0  0.99189  0.70171  0.21493  1.0000
  H   H29       1.0  0.94809  0.66275  0.23277  1.0000
  H   H30       1.0  0.05182  0.70555  0.26590  1.0000
  C   C41       1.0  0.36437  0.41297  0.34031  1.0000
  C   C42       1.0  0.34609  0.37570  0.29837  1.0000
  C   C43       1.0  0.36598  0.35373  0.29178  1.0000
  C   C44       1.0  0.40409  0.36986  0.33111  1.0000
  N   N23       1.0  0.34902  0.31972  0.24409  1.0000
  H   H31       1.0  0.32348  0.30992  0.21571  1.0000
  H   H32       1.0  0.36249  0.30512  0.23311  1.0000
  H   H33       1.0  0.31970  0.36601  0.26670  1.0000
  C   C45       1.0  0.61238  0.97133  0.33971  1.0000
  C   C46       1.0  0.64984  0.99030  0.29865  1.0000
  C   C47       1.0  0.67182  0.03216  0.29202  1.0000
  C   C48       1.0  0.65548  0.05415  0.33034  1.0000
  N   N24       1.0  0.70604  0.04921  0.24510  1.0000
  H   H34       1.0  0.71598  0.03347  0.21731  1.0000
  H   H35       1.0  0.72063  0.07727  0.23393  1.0000
  H   H36       1.0  0.65969  0.97360  0.26765  1.0000
  C   C49       1.0  0.09042  0.43679  0.32470  1.0000
  N   N25       1.0  0.12088  0.42938  0.32184  1.0000
  C   C50       1.0  0.15939  0.45884  0.31922  1.0000
  N   N26       1.0  0.16637  0.49665  0.32094  1.0000
  C   C51       1.0  0.13732  0.50572  0.32351  1.0000
  N   N27       1.0  0.10009  0.47516  0.32548  1.0000
  C   C52       1.0  0.58867  0.67347  0.32434  1.0000
  N   N28       1.0  0.59611  0.71136  0.32159  1.0000
  C   C53       1.0  0.56668  0.72046  0.31925  1.0000
  N   N29       1.0  0.52885  0.68964  0.32100  1.0000
  C   C54       1.0  0.51974  0.65152  0.32340  1.0000
  N   N30       1.0  0.55028  0.64482  0.32512  1.0000
  C   C55       1.0  0.35198  0.93500  0.32429  1.0000
  N   N31       1.0  0.31409  0.90457  0.32153  1.0000
  C   C56       1.0  0.30497  0.86603  0.31923  1.0000
  N   N32       1.0  0.33578  0.85900  0.32100  1.0000
  C   C57       1.0  0.37390  0.88800  0.32338  1.0000
  N   N33       1.0  0.38062  0.92525  0.32508  1.0000
  C   C58       1.0  0.93030  0.59344  0.32509  1.0000
  N   N34       1.0  0.89984  0.60084  0.32206  1.0000
  C   C59       1.0  0.86132  0.57138  0.31946  1.0000
  N   N35       1.0  0.85436  0.53357  0.32127  1.0000
  C   C60       1.0  0.88340  0.52451  0.32394  1.0000
  N   N36       1.0  0.92063  0.55507  0.32589  1.0000
  C   C61       1.0  0.43198  0.35672  0.32468  1.0000
  N   N37       1.0  0.42454  0.31884  0.32190  1.0000
  C   C62       1.0  0.45399  0.30975  0.31935  1.0000
  N   N38       1.0  0.49181  0.34058  0.32106  1.0000
  C   C63       1.0  0.50090  0.37869  0.32355  1.0000
  N   N39       1.0  0.47036  0.38539  0.32545  1.0000
  C   C64       1.0  0.66873  0.09521  0.32424  1.0000
  N   N40       1.0  0.70662  0.12565  0.32149  1.0000
  C   C65       1.0  0.71573  0.16419  0.31913  1.0000
  N   N41       1.0  0.68492  0.17122  0.32086  1.0000
  C   C66       1.0  0.64680  0.14221  0.32325  1.0000
  N   N42       1.0  0.64009  0.10497  0.32498  1.0000
  C   C67       1.0  0.43634  0.09971  0.33692  1.0000
  N   N43       1.0  0.42866  0.12983  0.32887  1.0000
  C   C68       1.0  0.45859  0.16810  0.32624  1.0000
  N   N44       1.0  0.49637  0.17530  0.32979  1.0000
  C   C69       1.0  0.50559  0.14644  0.33707  1.0000
  N   N45       1.0  0.47465  0.10927  0.34037  1.0000
  C   C70       1.0  0.66899  0.58911  0.33691  1.0000
  N   N46       1.0  0.70677  0.59675  0.32877  1.0000
  C   C71       1.0  0.71508  0.56680  0.32606  1.0000
  N   N47       1.0  0.68447  0.52903  0.32967  1.0000
  C   C72       1.0  0.64641  0.51985  0.33703  1.0000
  N   N48       1.0  0.64022  0.55081  0.34041  1.0000
  C   C73       1.0  0.92582  0.35645  0.33767  1.0000
  N   N49       1.0  0.89568  0.31868  0.32922  1.0000
  C   C74       1.0  0.85743  0.31040  0.32631  1.0000
  N   N50       1.0  0.85029  0.34102  0.32999  1.0000
  C   C75       1.0  0.87917  0.37906  0.33768  1.0000
  N   N51       1.0  0.91632  0.38524  0.34122  1.0000
  C   C76       1.0  0.58438  0.93052  0.33721  1.0000
  N   N52       1.0  0.59204  0.90039  0.32898  1.0000
  C   C77       1.0  0.56210  0.86213  0.32631  1.0000
  N   N53       1.0  0.52432  0.85494  0.32999  1.0000
  C   C78       1.0  0.51512  0.88380  0.33746  1.0000
  N   N54       1.0  0.54607  0.92096  0.34074  1.0000
  C   C79       1.0  0.35169  0.44106  0.33741  1.0000
  N   N55       1.0  0.31391  0.43343  0.32914  1.0000
  C   C80       1.0  0.30562  0.46338  0.32629  1.0000
  N   N56       1.0  0.33624  0.50115  0.32985  1.0000
  C   C81       1.0  0.37429  0.51032  0.33733  1.0000
  N   N57       1.0  0.38048  0.47935  0.34085  1.0000
  C   C82       1.0  0.09488  0.67377  0.33737  1.0000
  N   N58       1.0  0.12503  0.71154  0.32904  1.0000
  C   C83       1.0  0.16327  0.71982  0.32607  1.0000
  N   N59       1.0  0.17041  0.68920  0.32965  1.0000
  C   C84       1.0  0.14152  0.65115  0.33722  1.0000
  N   N60       1.0  0.10437  0.64497  0.34084  1.0000
  N   N61       1.0  0.22808  0.48706  0.32675  1.0000
  N   N62       1.0  0.26223  0.48925  0.32847  1.0000
  N   N63       1.0  0.53847  0.76094  0.32686  1.0000
  N   N64       1.0  0.53627  0.79288  0.32856  1.0000
  N   N65       1.0  0.26448  0.79734  0.32650  1.0000
  N   N66       1.0  0.23253  0.76320  0.32814  1.0000
  N   N67       1.0  0.79263  0.54316  0.32673  1.0000
  N   N68       1.0  0.75848  0.54095  0.32833  1.0000
  N   N69       1.0  0.48220  0.26928  0.32692  1.0000
  N   N70       1.0  0.48441  0.23735  0.32859  1.0000
  N   N71       1.0  0.75623  0.23288  0.32659  1.0000
  N   N72       1.0  0.78817  0.26702  0.32830  1.0000
  C   C85       1.0  0.14342  0.54444  0.32679  1.0000
  C   C86       1.0  0.17992  0.57897  0.34097  1.0000
  C   C87       1.0  0.18237  0.61631  0.34751  1.0000
  C   C88       1.0  0.14698  0.61782  0.33676  1.0000
  N   N73       1.0  0.21800  0.64816  0.36619  1.0000
  H   H37       1.0  0.24114  0.64555  0.37537  1.0000
  H   H38       1.0  0.22114  0.67377  0.37827  1.0000
  H   H39       1.0  0.20461  0.57674  0.34933  1.0000
  C   C89       1.0  0.48100  0.61892  0.32664  1.0000
  C   C90       1.0  0.44650  0.62090  0.34113  1.0000
  C   C91       1.0  0.40916  0.58601  0.34775  1.0000
  C   C92       1.0  0.40762  0.54911  0.33676  1.0000
  N   N74       1.0  0.37734  0.58980  0.36672  1.0000
  H   H40       1.0  0.37991  0.61556  0.37549  1.0000
  H   H41       1.0  0.35165  0.56734  0.37811  1.0000
  H   H42       1.0  0.44876  0.64782  0.34977  1.0000
  C   C93       1.0  0.40651  0.88187  0.32668  1.0000
  C   C94       1.0  0.40454  0.84540  0.34121  1.0000
  C   C95       1.0  0.43943  0.84296  0.34787  1.0000
  C   C96       1.0  0.47633  0.87833  0.33691  1.0000
  N   N75       1.0  0.43567  0.80735  0.36681  1.0000
  H   H43       1.0  0.40993  0.78422  0.37612  1.0000
  H   H44       1.0  0.45815  0.80424  0.37892  1.0000
  H   H45       1.0  0.37762  0.82072  0.34974  1.0000
  C   C97       1.0  0.87730  0.48579  0.32721  1.0000
  C   C98       1.0  0.84079  0.45125  0.34127  1.0000
  C   C99       1.0  0.83833  0.41391  0.34782  1.0000
  C   C100      1.0  0.87372  0.41240  0.33717  1.0000
  N   N76       1.0  0.80268  0.38205  0.36637  1.0000
  H   H46       1.0  0.77953  0.38467  0.37547  1.0000
  H   H47       1.0  0.79953  0.35644  0.37842  1.0000
  H   H48       1.0  0.81609  0.45349  0.34955  1.0000
  C   C101      1.0  0.53965  0.41129  0.32678  1.0000
  C   C102      1.0  0.57416  0.40928  0.34100  1.0000
  C   C103      1.0  0.61151  0.44416  0.34746  1.0000
  C   C104      1.0  0.61306  0.48107  0.33660  1.0000
  N   N77       1.0  0.64335  0.44035  0.36614  1.0000
  H   H49       1.0  0.64072  0.41459  0.37537  1.0000
  H   H50       1.0  0.66898  0.46281  0.37807  1.0000
  H   H51       1.0  0.57190  0.38235  0.34944  1.0000
  C   C105      1.0  0.61420  0.14835  0.32645  1.0000
  C   C106      1.0  0.61617  0.18483  0.34099  1.0000
  C   C107      1.0  0.58128  0.18728  0.34757  1.0000
  C   C108      1.0  0.54438  0.15192  0.33650  1.0000
  N   N78       1.0  0.58506  0.22288  0.36657  1.0000
  H   H52       1.0  0.61081  0.24607  0.37539  1.0000
  H   H53       1.0  0.56259  0.22611  0.37789  1.0000
  H   H54       1.0  0.64309  0.20949  0.34970  1.0000
  N   N79       1.0  0.02827  0.42293  0.37344  1.0000
  N   N80       1.0  0.99022  0.40488  0.37760  1.0000
  N   N81       1.0  0.60231  0.62490  0.37199  1.0000
  N   N82       1.0  0.62033  0.60488  0.37608  1.0000
  N   N83       1.0  0.40062  0.99723  0.37169  1.0000
  N   N84       1.0  0.42064  0.03528  0.37579  1.0000
  N   N85       1.0  0.99247  0.60736  0.37372  1.0000
  N   N86       1.0  0.03052  0.62541  0.37773  1.0000
  N   N87       1.0  0.41822  0.40513  0.37299  1.0000
  N   N88       1.0  0.40019  0.42515  0.37710  1.0000
  N   N89       1.0  0.62011  0.03301  0.37181  1.0000
  N   N90       1.0  0.60009  0.99496  0.37598  1.0000
