data_image0
_chemical_formula_structural       C3NC3NC5NC5NC20H18C4H4C4NCONH2NC4NCONH2NC8H8C3H2NC3H2N
_chemical_formula_sum              "C64 N12 H38 O2"
_cell_length_a       25.6396
_cell_length_b       25.6394
_cell_length_c       14.581
_cell_angle_alpha    90
_cell_angle_beta     90
_cell_angle_gamma    90.0371

_space_group_name_H-M_alt    "P 1"
_space_group_IT_number       1

loop_
  _space_group_symop_operation_xyz
  'x, y, z'

loop_
  _atom_site_type_symbol
  _atom_site_label
  _atom_site_symmetry_multiplicity
  _atom_site_fract_x
  _atom_site_fract_y
  _atom_site_fract_z
  _atom_site_occupancy
  C   C1        1.0  0.91888  0.87694  0.34631  1.0000
  C   C2        1.0  0.87989  0.91407  0.34681  1.0000
  C   C3        1.0  0.90298  0.96349  0.34708  1.0000
  N   N1        1.0  0.95517  0.95417  0.34874  1.0000
  C   C4        1.0  0.96703  0.90249  0.34786  1.0000
  C   C5        1.0  0.01651  0.87702  0.34721  1.0000
  C   C6        1.0  0.06525  0.90378  0.34800  1.0000
  N   N2        1.0  0.07428  0.95586  0.34878  1.0000
  C   C7        1.0  0.12587  0.96740  0.34830  1.0000
  C   C8        1.0  0.15165  0.91945  0.34717  1.0000
  C   C9        1.0  0.11449  0.88045  0.34806  1.0000
  C   C10       1.0  0.15011  0.01739  0.34762  1.0000
  C   C11       1.0  0.12215  0.06555  0.34815  1.0000
  N   N3        1.0  0.06995  0.07485  0.34873  1.0000
  C   C12       1.0  0.05810  0.12654  0.34744  1.0000
  C   C13       1.0  0.10624  0.15210  0.34684  1.0000
  C   C14       1.0  0.14522  0.11498  0.34832  1.0000
  C   C15       1.0  0.00863  0.15199  0.34562  1.0000
  C   C16       1.0  0.95988  0.12525  0.34609  1.0000
  N   N4        1.0  0.95084  0.07318  0.34761  1.0000
  C   C17       1.0  0.89926  0.06165  0.34644  1.0000
  C   C18       1.0  0.87350  0.10960  0.34410  1.0000
  C   C19       1.0  0.91065  0.14860  0.34489  1.0000
  C   C20       1.0  0.87503  0.01166  0.34579  1.0000
  C   C21       1.0  0.81909  0.00967  0.33982  1.0000
  C   C22       1.0  0.70784  0.00012  0.32865  1.0000
  C   C23       1.0  0.73994  0.98898  0.25214  1.0000
  C   C24       1.0  0.79456  0.99423  0.25729  1.0000
  C   C25       1.0  0.00751  0.20794  0.33955  1.0000
  C   C26       1.0  0.99862  0.31922  0.32844  1.0000
  C   C27       1.0  0.98801  0.28723  0.25153  1.0000
  C   C28       1.0  0.99296  0.23259  0.25666  1.0000
  C   C29       1.0  0.20609  0.01940  0.34315  1.0000
  C   C30       1.0  0.23141  0.03526  0.26157  1.0000
  C   C31       1.0  0.28605  0.04090  0.25829  1.0000
  C   C32       1.0  0.31732  0.02950  0.33568  1.0000
  C   C33       1.0  0.01769  0.82101  0.34258  1.0000
  C   C34       1.0  0.03334  0.79557  0.26102  1.0000
  C   C35       1.0  0.02747  0.70977  0.33549  1.0000
  C   C36       1.0  0.03878  0.74091  0.25790  1.0000
  H   H1        1.0  0.05191  0.72411  0.19850  1.0000
  H   H2        1.0  0.04269  0.81692  0.20401  1.0000
  H   H3        1.0  0.91231  0.83764  0.34484  1.0000
  H   H4        1.0  0.84097  0.90551  0.34628  1.0000
  H   H5        1.0  0.98099  0.98131  0.34925  1.0000
  H   H6        1.0  0.04412  0.04772  0.34825  1.0000
  H   H7        1.0  0.12285  0.84149  0.34804  1.0000
  H   H8        1.0  0.19098  0.91309  0.34607  1.0000
  H   H9        1.0  0.20998  0.04451  0.20461  1.0000
  H   H10       1.0  0.30277  0.05403  0.19881  1.0000
  H   H11       1.0  0.18414  0.12357  0.34867  1.0000
  H   H12       1.0  0.11281  0.19140  0.34545  1.0000
  H   H13       1.0  0.83418  0.11595  0.34211  1.0000
  H   H14       1.0  0.90233  0.18757  0.34391  1.0000
  H   H15       1.0  0.98424  0.21071  0.19996  1.0000
  H   H16       1.0  0.97588  0.30344  0.19098  1.0000
  H   H17       1.0  0.81652  0.98524  0.20082  1.0000
  H   H18       1.0  0.72383  0.97628  0.19186  1.0000
  C   C37       1.0  0.98929  0.37257  0.32301  1.0000
  C   C38       1.0  0.37059  0.03924  0.33260  1.0000
  C   C39       1.0  0.03737  0.65653  0.33280  1.0000
  C   C40       1.0  0.65447  0.99072  0.32325  1.0000
  H   H19       1.0  0.95671  0.38417  0.29181  1.0000
  H   H20       1.0  0.38231  0.07395  0.30975  1.0000
  H   H21       1.0  0.07215  0.64493  0.31016  1.0000
  H   H22       1.0  0.64285  0.95813  0.29209  1.0000
  C   C41       1.0  0.01756  0.45924  0.34472  1.0000
  C   C42       1.0  0.01538  0.48683  0.25988  1.0000
  C   C43       1.0  0.00840  0.54235  0.25965  1.0000
  C   C44       1.0  0.00319  0.56656  0.17254  1.0000
  N   N5        1.0  0.00702  0.53824  0.09460  1.0000
  C   C45       1.0  0.01593  0.48640  0.09623  1.0000
  O   O1        1.0  0.99272  0.61777  0.16059  1.0000
  N   N6        1.0  0.01991  0.46121  0.17768  1.0000
  H   H23       1.0  0.01898  0.46651  0.03568  1.0000
  H   H24       1.0  0.02663  0.42392  0.17527  1.0000
  N   N7        1.0  0.02200  0.40727  0.35114  1.0000
  C   C46       1.0  0.56782  0.01906  0.34475  1.0000
  C   C47       1.0  0.54021  0.01676  0.25993  1.0000
  C   C48       1.0  0.48467  0.00988  0.25977  1.0000
  C   C49       1.0  0.46043  0.00451  0.17270  1.0000
  N   N8        1.0  0.48875  0.00814  0.09473  1.0000
  C   C50       1.0  0.54062  0.01699  0.09628  1.0000
  O   O2        1.0  0.40920  0.99407  0.16085  1.0000
  N   N9        1.0  0.56583  0.02109  0.17770  1.0000
  H   H25       1.0  0.56051  0.01988  0.03570  1.0000
  H   H26       1.0  0.60314  0.02774  0.17523  1.0000
  N   N10       1.0  0.61980  0.02348  0.35114  1.0000
  C   C51       1.0  0.78706  0.02133  0.41618  1.0000
  C   C52       1.0  0.73224  0.01695  0.41056  1.0000
  C   C53       1.0  0.01864  0.23985  0.41633  1.0000
  C   C54       1.0  0.01456  0.29469  0.41075  1.0000
  C   C55       1.0  0.29222  0.01227  0.41660  1.0000
  C   C56       1.0  0.23738  0.00762  0.42041  1.0000
  C   C57       1.0  0.00584  0.78984  0.41997  1.0000
  C   C58       1.0  0.01031  0.73498  0.41634  1.0000
  H   H27       1.0  0.00292  0.71377  0.47439  1.0000
  H   H28       1.0  0.99500  0.80705  0.48035  1.0000
  H   H29       1.0  0.22027  0.99649  0.48073  1.0000
  H   H30       1.0  0.31353  0.00469  0.47446  1.0000
  H   H31       1.0  0.02877  0.22320  0.47758  1.0000
  H   H32       1.0  0.02153  0.31645  0.46832  1.0000
  H   H33       1.0  0.71041  0.02434  0.46788  1.0000
  H   H34       1.0  0.80360  0.03220  0.47714  1.0000
  C   C59       1.0  0.00680  0.57031  0.34415  1.0000
  C   C60       1.0  0.01002  0.54221  0.42710  1.0000
  C   C61       1.0  0.01543  0.48766  0.42739  1.0000
  H   H35       1.0  0.01735  0.46861  0.48903  1.0000
  H   H36       1.0  0.00862  0.56148  0.48858  1.0000
  N   N11       1.0  0.00202  0.62219  0.35035  1.0000
  C   C62       1.0  0.45672  0.00852  0.34429  1.0000
  C   C63       1.0  0.48484  0.01185  0.42721  1.0000
  C   C64       1.0  0.53941  0.01715  0.42744  1.0000
  H   H37       1.0  0.55847  0.01917  0.48906  1.0000
  H   H38       1.0  0.46558  0.01062  0.48870  1.0000
  N   N12       1.0  0.40482  0.00390  0.35055  1.0000
