data_image0
_chemical_formula_structural       NHC3HNHC3HC2H2C2HC2H2C2HNCN2CNC2NCNC2H3CH3C2NCNC2H3CH3C2NC2H3C2NCNCNCNC2HC6H3C2HC6H3C2HCHC2NCNC2H3CH3C2NCNC2H3CH3C2NC2H3C2NCNCNCNC2HC6H3C2HC6H3C2HCHC2NCNC2H3CH3C2NCNC2H3CH3C2NCNC2H3CH3CNCNCNCNCNCNC2HC6H3C2HC6H3C2HC6H3C2NCNC2H3CH3C2NCNC2H3CH3C2NCNC2H3CH3CNCNCNCNCNCNC2HC6H3C2HC6H3C2HC6H3
_chemical_formula_sum              "N48 H120 C192"
_cell_length_a       43.6887
_cell_length_b       43.6887
_cell_length_c       14.8881
_cell_angle_alpha    90
_cell_angle_beta     90
_cell_angle_gamma    120

_space_group_name_H-M_alt    "P 1"
_space_group_IT_number       1

loop_
  _space_group_symop_operation_xyz
  'x, y, z'

loop_
  _atom_site_type_symbol
  _atom_site_label
  _atom_site_symmetry_multiplicity
  _atom_site_fract_x
  _atom_site_fract_y
  _atom_site_fract_z
  _atom_site_occupancy
  N   N1        1.0  0.04323  0.27256  0.26403  1.0000
  H   H1        1.0  0.07609  0.28898  0.11629  1.0000
  C   C1        1.0  0.02435  0.26311  0.34174  1.0000
  C   C2        1.0  0.04297  0.27242  0.42459  1.0000
  C   C3        1.0  0.02384  0.26286  0.50601  1.0000
  H   H2        1.0  0.03680  0.26934  0.56638  1.0000
  N   N2        1.0  0.04324  0.77256  0.26403  1.0000
  H   H3        1.0  0.07609  0.78899  0.11629  1.0000
  C   C4        1.0  0.02435  0.76311  0.34174  1.0000
  C   C5        1.0  0.04297  0.77243  0.42459  1.0000
  C   C6        1.0  0.02384  0.76286  0.50601  1.0000
  H   H4        1.0  0.03681  0.76934  0.56638  1.0000
  C   C7        1.0  0.07920  0.29054  0.25958  1.0000
  C   C8        1.0  0.09589  0.29889  0.16966  1.0000
  H   H5        1.0  0.11234  0.28676  0.16183  1.0000
  H   H6        1.0  0.11234  0.32745  0.16183  1.0000
  C   C9        1.0  0.09894  0.30041  0.34067  1.0000
  C   C10       1.0  0.08031  0.29110  0.42293  1.0000
  H   H7        1.0  0.09407  0.29797  0.48227  1.0000
  C   C11       1.0  0.07919  0.79054  0.25958  1.0000
  C   C12       1.0  0.09589  0.79889  0.16966  1.0000
  H   H8        1.0  0.11234  0.78676  0.16183  1.0000
  H   H9        1.0  0.11234  0.82746  0.16183  1.0000
  C   C13       1.0  0.09894  0.80041  0.34067  1.0000
  C   C14       1.0  0.08031  0.79110  0.42293  1.0000
  H   H10       1.0  0.09407  0.79797  0.48227  1.0000
  N   N3        1.0  0.15440  0.35499  0.34166  1.0000
  C   C15       1.0  0.13625  0.31906  0.34178  1.0000
  N   N4        1.0  0.15440  0.30129  0.34166  1.0000
  N   N5        1.0  0.15440  0.85499  0.34166  1.0000
  C   C16       1.0  0.13625  0.81906  0.34178  1.0000
  N   N6        1.0  0.15440  0.80129  0.34166  1.0000
  C   C17       1.0  0.30229  0.20710  0.33776  1.0000
  C   C18       1.0  0.29222  0.21717  0.25718  1.0000
  N   N7        1.0  0.27426  0.23513  0.26297  1.0000
  C   C19       1.0  0.26499  0.24440  0.34118  1.0000
  N   N8        1.0  0.23683  0.27256  0.26403  1.0000
  C   C20       1.0  0.21885  0.29054  0.25958  1.0000
  C   C21       1.0  0.29970  0.20970  0.16525  1.0000
  H   H11       1.0  0.31410  0.19529  0.16448  1.0000
  H   H12       1.0  0.31546  0.23454  0.12932  1.0000
  H   H13       1.0  0.27485  0.19394  0.12933  1.0000
  C   C22       1.0  0.21051  0.29889  0.16966  1.0000
  H   H14       1.0  0.22041  0.28898  0.11629  1.0000
  H   H15       1.0  0.22263  0.32745  0.16183  1.0000
  H   H16       1.0  0.18194  0.28676  0.16183  1.0000
  C   C23       1.0  0.30229  0.09707  0.33776  1.0000
  C   C24       1.0  0.29222  0.07693  0.25718  1.0000
  N   N9        1.0  0.27426  0.04100  0.26297  1.0000
  C   C25       1.0  0.26499  0.02246  0.34118  1.0000
  N   N10       1.0  0.23683  0.46616  0.26403  1.0000
  C   C26       1.0  0.21886  0.43020  0.25958  1.0000
  C   C27       1.0  0.29970  0.09188  0.16525  1.0000
  H   H17       1.0  0.31410  0.12069  0.16448  1.0000
  H   H18       1.0  0.27485  0.08279  0.12932  1.0000
  H   H19       1.0  0.31546  0.08279  0.12933  1.0000
  C   C28       1.0  0.21051  0.41350  0.16966  1.0000
  H   H20       1.0  0.22041  0.43330  0.11629  1.0000
  H   H21       1.0  0.18194  0.39705  0.16183  1.0000
  H   H22       1.0  0.22263  0.39705  0.16183  1.0000
  C   C29       1.0  0.41232  0.20710  0.33776  1.0000
  C   C30       1.0  0.43246  0.21717  0.25718  1.0000
  N   N11       1.0  0.46839  0.23513  0.26297  1.0000
  C   C31       1.0  0.48693  0.24440  0.34118  1.0000
  C   C32       1.0  0.41752  0.20970  0.16525  1.0000
  H   H23       1.0  0.38870  0.19529  0.16448  1.0000
  H   H24       1.0  0.42660  0.19394  0.12933  1.0000
  H   H25       1.0  0.42660  0.23454  0.12933  1.0000
  C   C33       1.0  0.19033  0.37315  0.34178  1.0000
  C   C34       1.0  0.19033  0.31906  0.34178  1.0000
  N   N12       1.0  0.20811  0.35499  0.34166  1.0000
  C   C35       1.0  0.32094  0.13437  0.33865  1.0000
  N   N13       1.0  0.35687  0.15252  0.33854  1.0000
  C   C36       1.0  0.37503  0.18845  0.33865  1.0000
  N   N14       1.0  0.35687  0.20623  0.33854  1.0000
  C   C37       1.0  0.32094  0.18845  0.33865  1.0000
  N   N15       1.0  0.30316  0.15252  0.33854  1.0000
  C   C38       1.0  0.27449  0.23490  0.42343  1.0000
  C   C39       1.0  0.29316  0.21624  0.42056  1.0000
  H   H26       1.0  0.30016  0.20923  0.47954  1.0000
  C   C40       1.0  0.24628  0.26311  0.34174  1.0000
  C   C41       1.0  0.20898  0.30041  0.34067  1.0000
  C   C42       1.0  0.21830  0.29110  0.42293  1.0000
  C   C43       1.0  0.23697  0.27242  0.42459  1.0000
  C   C44       1.0  0.24654  0.26286  0.50601  1.0000
  C   C45       1.0  0.26512  0.24427  0.50543  1.0000
  H   H27       1.0  0.24005  0.26934  0.56637  1.0000
  H   H28       1.0  0.27175  0.23764  0.56539  1.0000
  H   H29       1.0  0.21142  0.29797  0.48227  1.0000
  C   C46       1.0  0.27449  0.04147  0.42343  1.0000
  C   C47       1.0  0.29315  0.07880  0.42056  1.0000
  H   H30       1.0  0.30016  0.09280  0.47954  1.0000
  C   C48       1.0  0.24628  0.48504  0.34174  1.0000
  C   C49       1.0  0.20899  0.41046  0.34067  1.0000
  C   C50       1.0  0.21830  0.42908  0.42293  1.0000
  C   C51       1.0  0.23697  0.46642  0.42459  1.0000
  C   C52       1.0  0.24653  0.48556  0.50601  1.0000
  C   C53       1.0  0.26512  0.02273  0.50543  1.0000
  H   H31       1.0  0.24005  0.47259  0.56637  1.0000
  H   H32       1.0  0.27175  0.03599  0.56540  1.0000
  H   H33       1.0  0.21142  0.41532  0.48227  1.0000
  C   C54       1.0  0.46792  0.23490  0.42343  1.0000
  C   C55       1.0  0.43060  0.21624  0.42056  1.0000
  H   H34       1.0  0.41659  0.20923  0.47954  1.0000
  C   C56       1.0  0.48666  0.24427  0.50543  1.0000
  H   H35       1.0  0.47341  0.23764  0.56540  1.0000
  C   C57       1.0  0.30229  0.70710  0.33776  1.0000
  C   C58       1.0  0.29222  0.71717  0.25718  1.0000
  N   N16       1.0  0.27426  0.73513  0.26297  1.0000
  C   C59       1.0  0.26499  0.74440  0.34118  1.0000
  N   N17       1.0  0.23683  0.77256  0.26403  1.0000
  C   C60       1.0  0.21885  0.79054  0.25958  1.0000
  C   C61       1.0  0.29970  0.70970  0.16525  1.0000
  H   H36       1.0  0.31410  0.69529  0.16448  1.0000
  H   H37       1.0  0.31546  0.73455  0.12932  1.0000
  H   H38       1.0  0.27485  0.69393  0.12933  1.0000
  C   C62       1.0  0.21051  0.79888  0.16966  1.0000
  H   H39       1.0  0.22041  0.78899  0.11629  1.0000
  H   H40       1.0  0.22263  0.82745  0.16183  1.0000
  H   H41       1.0  0.18194  0.78676  0.16183  1.0000
  C   C63       1.0  0.30229  0.59707  0.33776  1.0000
  C   C64       1.0  0.29222  0.57693  0.25718  1.0000
  N   N18       1.0  0.27426  0.54100  0.26297  1.0000
  C   C65       1.0  0.26499  0.52246  0.34118  1.0000
  N   N19       1.0  0.23684  0.96616  0.26403  1.0000
  C   C66       1.0  0.21885  0.93020  0.25958  1.0000
  C   C67       1.0  0.29970  0.59188  0.16525  1.0000
  H   H42       1.0  0.31410  0.62069  0.16448  1.0000
  H   H43       1.0  0.27485  0.58279  0.12932  1.0000
  H   H44       1.0  0.31546  0.58279  0.12933  1.0000
  C   C68       1.0  0.21051  0.91350  0.16966  1.0000
  H   H45       1.0  0.22041  0.93330  0.11629  1.0000
  H   H46       1.0  0.18194  0.89706  0.16183  1.0000
  H   H47       1.0  0.22263  0.89706  0.16183  1.0000
  C   C69       1.0  0.41232  0.70710  0.33776  1.0000
  C   C70       1.0  0.43246  0.71717  0.25718  1.0000
  N   N20       1.0  0.46839  0.73513  0.26297  1.0000
  C   C71       1.0  0.48693  0.74440  0.34118  1.0000
  C   C72       1.0  0.41751  0.70969  0.16525  1.0000
  H   H48       1.0  0.38870  0.69529  0.16448  1.0000
  H   H49       1.0  0.42660  0.69393  0.12933  1.0000
  H   H50       1.0  0.42660  0.73454  0.12933  1.0000
  C   C73       1.0  0.19033  0.87315  0.34178  1.0000
  C   C74       1.0  0.19033  0.81906  0.34178  1.0000
  N   N21       1.0  0.20811  0.85499  0.34166  1.0000
  C   C75       1.0  0.32094  0.63437  0.33865  1.0000
  N   N22       1.0  0.35687  0.65252  0.33854  1.0000
  C   C76       1.0  0.37502  0.68845  0.33865  1.0000
  N   N23       1.0  0.35687  0.70623  0.33854  1.0000
  C   C77       1.0  0.32094  0.68845  0.33865  1.0000
  N   N24       1.0  0.30316  0.65252  0.33854  1.0000
  C   C78       1.0  0.27449  0.73490  0.42343  1.0000
  C   C79       1.0  0.29315  0.71624  0.42056  1.0000
  H   H51       1.0  0.30016  0.70923  0.47954  1.0000
  C   C80       1.0  0.24628  0.76311  0.34174  1.0000
  C   C81       1.0  0.20898  0.80041  0.34067  1.0000
  C   C82       1.0  0.21830  0.79110  0.42293  1.0000
  C   C83       1.0  0.23697  0.77243  0.42459  1.0000
  C   C84       1.0  0.24653  0.76286  0.50601  1.0000
  C   C85       1.0  0.26512  0.74427  0.50543  1.0000
  H   H52       1.0  0.24005  0.76934  0.56637  1.0000
  H   H53       1.0  0.27175  0.73764  0.56539  1.0000
  H   H54       1.0  0.21142  0.79797  0.48227  1.0000
  C   C86       1.0  0.27449  0.54147  0.42343  1.0000
  C   C87       1.0  0.29315  0.57880  0.42056  1.0000
  H   H55       1.0  0.30016  0.59281  0.47954  1.0000
  C   C88       1.0  0.24628  0.98504  0.34174  1.0000
  C   C89       1.0  0.20898  0.91045  0.34067  1.0000
  C   C90       1.0  0.21830  0.92908  0.42293  1.0000
  C   C91       1.0  0.23697  0.96642  0.42459  1.0000
  C   C92       1.0  0.24653  0.98556  0.50601  1.0000
  C   C93       1.0  0.26512  0.52273  0.50543  1.0000
  H   H56       1.0  0.24005  0.97259  0.56637  1.0000
  H   H57       1.0  0.27175  0.53599  0.56540  1.0000
  H   H58       1.0  0.21142  0.91532  0.48227  1.0000
  C   C94       1.0  0.46792  0.73490  0.42343  1.0000
  C   C95       1.0  0.43060  0.71624  0.42056  1.0000
  H   H59       1.0  0.41659  0.70923  0.47954  1.0000
  C   C96       1.0  0.48666  0.74427  0.50543  1.0000
  H   H60       1.0  0.47341  0.73764  0.56540  1.0000
  C   C97       1.0  0.80229  0.20710  0.33776  1.0000
  C   C98       1.0  0.79222  0.21717  0.25718  1.0000
  N   N25       1.0  0.77426  0.23513  0.26297  1.0000
  C   C99       1.0  0.76499  0.24440  0.34118  1.0000
  N   N26       1.0  0.73684  0.27256  0.26403  1.0000
  C   C100      1.0  0.71886  0.29054  0.25958  1.0000
  C   C101      1.0  0.79970  0.20970  0.16525  1.0000
  H   H61       1.0  0.81410  0.19529  0.16448  1.0000
  H   H62       1.0  0.81546  0.23454  0.12932  1.0000
  H   H63       1.0  0.77485  0.19394  0.12933  1.0000
  C   C102      1.0  0.71051  0.29889  0.16966  1.0000
  H   H64       1.0  0.72040  0.28898  0.11629  1.0000
  H   H65       1.0  0.72263  0.32745  0.16183  1.0000
  H   H66       1.0  0.68194  0.28676  0.16183  1.0000
  C   C103      1.0  0.80229  0.09707  0.33776  1.0000
  C   C104      1.0  0.79222  0.07693  0.25718  1.0000
  N   N27       1.0  0.77426  0.04100  0.26297  1.0000
  C   C105      1.0  0.76499  0.02246  0.34118  1.0000
  N   N28       1.0  0.73684  0.46616  0.26403  1.0000
  C   C106      1.0  0.71886  0.43020  0.25958  1.0000
  C   C107      1.0  0.79970  0.09188  0.16525  1.0000
  H   H67       1.0  0.81410  0.12069  0.16448  1.0000
  H   H68       1.0  0.77485  0.08279  0.12932  1.0000
  H   H69       1.0  0.81546  0.08279  0.12933  1.0000
  C   C108      1.0  0.71051  0.41350  0.16966  1.0000
  H   H70       1.0  0.72041  0.43330  0.11629  1.0000
  H   H71       1.0  0.68194  0.39705  0.16183  1.0000
  H   H72       1.0  0.72263  0.39705  0.16183  1.0000
  C   C109      1.0  0.91232  0.20710  0.33776  1.0000
  C   C110      1.0  0.93246  0.21717  0.25718  1.0000
  N   N29       1.0  0.96839  0.23513  0.26297  1.0000
  C   C111      1.0  0.98693  0.24440  0.34118  1.0000
  N   N30       1.0  0.54324  0.27256  0.26403  1.0000
  C   C112      1.0  0.57920  0.29054  0.25958  1.0000
  C   C113      1.0  0.91752  0.20970  0.16525  1.0000
  H   H73       1.0  0.88871  0.19529  0.16448  1.0000
  H   H74       1.0  0.92660  0.19394  0.12933  1.0000
  H   H75       1.0  0.92660  0.23454  0.12933  1.0000
  C   C114      1.0  0.59589  0.29889  0.16966  1.0000
  H   H76       1.0  0.57609  0.28898  0.11629  1.0000
  H   H77       1.0  0.61234  0.28676  0.16183  1.0000
  H   H78       1.0  0.61234  0.32745  0.16183  1.0000
  C   C115      1.0  0.69033  0.37315  0.34178  1.0000
  N   N31       1.0  0.65440  0.35499  0.34166  1.0000
  C   C116      1.0  0.63625  0.31906  0.34178  1.0000
  N   N32       1.0  0.65440  0.30129  0.34166  1.0000
  C   C117      1.0  0.69033  0.31906  0.34178  1.0000
  N   N33       1.0  0.70810  0.35499  0.34166  1.0000
  C   C118      1.0  0.82094  0.13437  0.33865  1.0000
  N   N34       1.0  0.85687  0.15252  0.33854  1.0000
  C   C119      1.0  0.87503  0.18845  0.33865  1.0000
  N   N35       1.0  0.85687  0.20623  0.33854  1.0000
  C   C120      1.0  0.82094  0.18845  0.33865  1.0000
  N   N36       1.0  0.80316  0.15252  0.33854  1.0000
  C   C121      1.0  0.77449  0.23490  0.42343  1.0000
  C   C122      1.0  0.79316  0.21624  0.42056  1.0000
  H   H79       1.0  0.80016  0.20923  0.47954  1.0000
  C   C123      1.0  0.74628  0.26311  0.34174  1.0000
  C   C124      1.0  0.70898  0.30041  0.34067  1.0000
  C   C125      1.0  0.71830  0.29110  0.42293  1.0000
  C   C126      1.0  0.73697  0.27242  0.42459  1.0000
  C   C127      1.0  0.74653  0.26286  0.50601  1.0000
  C   C128      1.0  0.76512  0.24427  0.50543  1.0000
  H   H80       1.0  0.74005  0.26934  0.56637  1.0000
  H   H81       1.0  0.77175  0.23764  0.56539  1.0000
  H   H82       1.0  0.71142  0.29797  0.48227  1.0000
  C   C129      1.0  0.77449  0.04147  0.42343  1.0000
  C   C130      1.0  0.79316  0.07880  0.42056  1.0000
  H   H83       1.0  0.80016  0.09280  0.47954  1.0000
  C   C131      1.0  0.74628  0.48504  0.34174  1.0000
  C   C132      1.0  0.70898  0.41046  0.34067  1.0000
  C   C133      1.0  0.71830  0.42908  0.42293  1.0000
  C   C134      1.0  0.73697  0.46642  0.42459  1.0000
  C   C135      1.0  0.74653  0.48556  0.50601  1.0000
  C   C136      1.0  0.76512  0.02273  0.50543  1.0000
  H   H84       1.0  0.74005  0.47259  0.56637  1.0000
  H   H85       1.0  0.77175  0.03599  0.56540  1.0000
  H   H86       1.0  0.71142  0.41532  0.48227  1.0000
  C   C137      1.0  0.96792  0.23490  0.42343  1.0000
  C   C138      1.0  0.93060  0.21624  0.42056  1.0000
  H   H87       1.0  0.91659  0.20923  0.47954  1.0000
  C   C139      1.0  0.52435  0.26311  0.34174  1.0000
  C   C140      1.0  0.59894  0.30041  0.34067  1.0000
  C   C141      1.0  0.58031  0.29110  0.42293  1.0000
  C   C142      1.0  0.54297  0.27242  0.42459  1.0000
  C   C143      1.0  0.52384  0.26286  0.50601  1.0000
  C   C144      1.0  0.98666  0.24427  0.50543  1.0000
  H   H88       1.0  0.53680  0.26934  0.56638  1.0000
  H   H89       1.0  0.97341  0.23764  0.56540  1.0000
  H   H90       1.0  0.59407  0.29797  0.48227  1.0000
  C   C145      1.0  0.80229  0.70710  0.33776  1.0000
  C   C146      1.0  0.79222  0.71717  0.25718  1.0000
  N   N37       1.0  0.77426  0.73513  0.26297  1.0000
  C   C147      1.0  0.76499  0.74440  0.34118  1.0000
  N   N38       1.0  0.73684  0.77256  0.26403  1.0000
  C   C148      1.0  0.71886  0.79054  0.25958  1.0000
  C   C149      1.0  0.79970  0.70970  0.16525  1.0000
  H   H91       1.0  0.81410  0.69529  0.16448  1.0000
  H   H92       1.0  0.81546  0.73455  0.12932  1.0000
  H   H93       1.0  0.77485  0.69393  0.12933  1.0000
  C   C150      1.0  0.71051  0.79888  0.16966  1.0000
  H   H94       1.0  0.72041  0.78899  0.11629  1.0000
  H   H95       1.0  0.72263  0.82745  0.16183  1.0000
  H   H96       1.0  0.68194  0.78676  0.16183  1.0000
  C   C151      1.0  0.80229  0.59707  0.33776  1.0000
  C   C152      1.0  0.79222  0.57693  0.25718  1.0000
  N   N39       1.0  0.77426  0.54100  0.26297  1.0000
  C   C153      1.0  0.76499  0.52246  0.34118  1.0000
  N   N40       1.0  0.73683  0.96616  0.26403  1.0000
  C   C154      1.0  0.71885  0.93020  0.25958  1.0000
  C   C155      1.0  0.79969  0.59188  0.16525  1.0000
  H   H97       1.0  0.81410  0.62069  0.16448  1.0000
  H   H98       1.0  0.77485  0.58279  0.12932  1.0000
  H   H99       1.0  0.81546  0.58279  0.12933  1.0000
  C   C156      1.0  0.71051  0.91350  0.16966  1.0000
  H   H100      1.0  0.72041  0.93330  0.11629  1.0000
  H   H101      1.0  0.68194  0.89706  0.16183  1.0000
  H   H102      1.0  0.72263  0.89706  0.16183  1.0000
  C   C157      1.0  0.91232  0.70710  0.33776  1.0000
  C   C158      1.0  0.93246  0.71717  0.25718  1.0000
  N   N41       1.0  0.96839  0.73513  0.26297  1.0000
  C   C159      1.0  0.98693  0.74440  0.34118  1.0000
  N   N42       1.0  0.54323  0.77256  0.26403  1.0000
  C   C160      1.0  0.57920  0.79054  0.25958  1.0000
  C   C161      1.0  0.91751  0.70969  0.16525  1.0000
  H   H103      1.0  0.88870  0.69529  0.16448  1.0000
  H   H104      1.0  0.92660  0.69393  0.12933  1.0000
  H   H105      1.0  0.92660  0.73454  0.12933  1.0000
  C   C162      1.0  0.59589  0.79889  0.16966  1.0000
  H   H106      1.0  0.57609  0.78899  0.11629  1.0000
  H   H107      1.0  0.61234  0.78676  0.16183  1.0000
  H   H108      1.0  0.61234  0.82746  0.16183  1.0000
  C   C163      1.0  0.69033  0.87315  0.34178  1.0000
  N   N43       1.0  0.65440  0.85499  0.34166  1.0000
  C   C164      1.0  0.63625  0.81906  0.34178  1.0000
  N   N44       1.0  0.65440  0.80129  0.34166  1.0000
  C   C165      1.0  0.69033  0.81906  0.34178  1.0000
  N   N45       1.0  0.70811  0.85499  0.34166  1.0000
  C   C166      1.0  0.82094  0.63437  0.33865  1.0000
  N   N46       1.0  0.85687  0.65252  0.33854  1.0000
  C   C167      1.0  0.87503  0.68845  0.33865  1.0000
  N   N47       1.0  0.85687  0.70623  0.33854  1.0000
  C   C168      1.0  0.82094  0.68845  0.33865  1.0000
  N   N48       1.0  0.80316  0.65252  0.33854  1.0000
  C   C169      1.0  0.77449  0.73490  0.42343  1.0000
  C   C170      1.0  0.79315  0.71624  0.42056  1.0000
  H   H109      1.0  0.80016  0.70923  0.47954  1.0000
  C   C171      1.0  0.74628  0.76311  0.34174  1.0000
  C   C172      1.0  0.70898  0.80041  0.34067  1.0000
  C   C173      1.0  0.71830  0.79110  0.42293  1.0000
  C   C174      1.0  0.73697  0.77243  0.42459  1.0000
  C   C175      1.0  0.74653  0.76286  0.50601  1.0000
  C   C176      1.0  0.76512  0.74427  0.50543  1.0000
  H   H110      1.0  0.74005  0.76934  0.56637  1.0000
  H   H111      1.0  0.77175  0.73764  0.56539  1.0000
  H   H112      1.0  0.71142  0.79797  0.48227  1.0000
  C   C177      1.0  0.77449  0.54147  0.42343  1.0000
  C   C178      1.0  0.79316  0.57880  0.42056  1.0000
  H   H113      1.0  0.80016  0.59281  0.47954  1.0000
  C   C179      1.0  0.74628  0.98504  0.34174  1.0000
  C   C180      1.0  0.70898  0.91045  0.34067  1.0000
  C   C181      1.0  0.71830  0.92908  0.42293  1.0000
  C   C182      1.0  0.73697  0.96642  0.42459  1.0000
  C   C183      1.0  0.74653  0.98556  0.50601  1.0000
  C   C184      1.0  0.76512  0.52273  0.50543  1.0000
  H   H114      1.0  0.74005  0.97259  0.56637  1.0000
  H   H115      1.0  0.77175  0.53599  0.56540  1.0000
  H   H116      1.0  0.71142  0.91532  0.48227  1.0000
  C   C185      1.0  0.96792  0.73490  0.42343  1.0000
  C   C186      1.0  0.93059  0.71624  0.42056  1.0000
  H   H117      1.0  0.91659  0.70923  0.47954  1.0000
  C   C187      1.0  0.52435  0.76311  0.34174  1.0000
  C   C188      1.0  0.59894  0.80041  0.34067  1.0000
  C   C189      1.0  0.58031  0.79110  0.42293  1.0000
  C   C190      1.0  0.54297  0.77243  0.42459  1.0000
  C   C191      1.0  0.52384  0.76286  0.50601  1.0000
  C   C192      1.0  0.98666  0.74427  0.50543  1.0000
  H   H118      1.0  0.53680  0.76934  0.56638  1.0000
  H   H119      1.0  0.97341  0.73764  0.56540  1.0000
  H   H120      1.0  0.59407  0.79797  0.48227  1.0000
