data_image0
_chemical_formula_structural       CNC2NC4NC18H14C2NC16H12C3NC2NC5NC4NC18H14CNC16H12C11H11CNCNC4NC16H13N24C7NC12H12C2NC3NC3NC18H14C12H12C3NC3NC3NC18H14C3NC3NC2NC5NC20H15C8NC14H13C4HC2H3OC4HC2H3OC4HC2H3OC4HC2H3OC4HC2H3OC4HC2H3OC4HC2H3OC4HC2H3OC4HC2H3OC4HC2H3OC4HC2H3OC4HC2H3O
_chemical_formula_sum              "C336 N48 H204 O12"
_cell_length_a       56.8891
_cell_length_b       56.889
_cell_length_c       14.9821
_cell_angle_alpha    90.0018
_cell_angle_beta     89.9654
_cell_angle_gamma    120

_space_group_name_H-M_alt    "P 1"
_space_group_IT_number       1

loop_
  _space_group_symop_operation_xyz
  'x, y, z'

loop_
  _atom_site_type_symbol
  _atom_site_label
  _atom_site_symmetry_multiplicity
  _atom_site_fract_x
  _atom_site_fract_y
  _atom_site_fract_z
  _atom_site_occupancy
  C   C1        1.0  0.28797  0.53053  0.34476  1.0000
  N   N1        1.0  0.27935  0.48884  0.32328  1.0000
  C   C2        1.0  0.30672  0.50400  0.33117  1.0000
  C   C3        1.0  0.32674  0.49596  0.32854  1.0000
  N   N2        1.0  0.29618  0.44584  0.32179  1.0000
  C   C4        1.0  0.29813  0.42310  0.32154  1.0000
  C   C5        1.0  0.32589  0.43196  0.32519  1.0000
  C   C6        1.0  0.33986  0.45995  0.32542  1.0000
  C   C7        1.0  0.27670  0.39565  0.31891  1.0000
  N   N3        1.0  0.23638  0.40265  0.31986  1.0000
  C   C8        1.0  0.20892  0.38740  0.31715  1.0000
  C   C9        1.0  0.22744  0.36057  0.30953  1.0000
  C   C10       1.0  0.21753  0.46838  0.32544  1.0000
  C   C11       1.0  0.23894  0.49569  0.32942  1.0000
  C   C12       1.0  0.23186  0.51637  0.33629  1.0000
  C   C13       1.0  0.23334  0.53192  0.26086  1.0000
  C   C14       1.0  0.22936  0.55431  0.26963  1.0000
  C   C15       1.0  0.22419  0.56206  0.35402  1.0000
  C   C16       1.0  0.14433  0.36782  0.24873  1.0000
  C   C17       1.0  0.11614  0.35020  0.25668  1.0000
  C   C18       1.0  0.28406  0.37505  0.32266  1.0000
  C   C19       1.0  0.30534  0.33921  0.34081  1.0000
  C   C20       1.0  0.30804  0.35317  0.25971  1.0000
  C   C21       1.0  0.29743  0.37070  0.25047  1.0000
  C   C22       1.0  0.35454  0.51682  0.33445  1.0000
  C   C23       1.0  0.36711  0.53513  0.26300  1.0000
  C   C24       1.0  0.39322  0.55783  0.27304  1.0000
  C   C25       1.0  0.40763  0.56284  0.35441  1.0000
  H   H1        1.0  0.40102  0.57143  0.22152  1.0000
  H   H2        1.0  0.35679  0.53280  0.20470  1.0000
  H   H3        1.0  0.28627  0.54738  0.35513  1.0000
  H   H4        1.0  0.26982  0.46971  0.31062  1.0000
  H   H5        1.0  0.24605  0.42201  0.32751  1.0000
  H   H6        1.0  0.36051  0.47171  0.32833  1.0000
  H   H7        1.0  0.33494  0.42035  0.32734  1.0000
  H   H8        1.0  0.30085  0.38143  0.19242  1.0000
  H   H9        1.0  0.31902  0.35181  0.20783  1.0000
  H   H10       1.0  0.22903  0.34350  0.30439  1.0000
  H   H11       1.0  0.15228  0.37626  0.18792  1.0000
  H   H12       1.0  0.10443  0.34645  0.20088  1.0000
  H   H13       1.0  0.23175  0.56577  0.21407  1.0000
  H   H14       1.0  0.23828  0.52763  0.19963  1.0000
  C   C26       1.0  0.53829  0.75776  0.34528  1.0000
  C   C27       1.0  0.56481  0.80303  0.33129  1.0000
  N   N4        1.0  0.62297  0.85066  0.32211  1.0000
  C   C28       1.0  0.64570  0.87534  0.32183  1.0000
  C   C29       1.0  0.63683  0.89424  0.32521  1.0000
  C   C30       1.0  0.60884  0.88022  0.32542  1.0000
  C   C31       1.0  0.67316  0.88138  0.31943  1.0000
  C   C32       1.0  0.68142  0.82185  0.31774  1.0000
  C   C33       1.0  0.70826  0.86722  0.31060  1.0000
  C   C34       1.0  0.60044  0.74948  0.32577  1.0000
  C   C35       1.0  0.53686  0.70178  0.26116  1.0000
  C   C36       1.0  0.51448  0.67540  0.26993  1.0000
  C   C37       1.0  0.70106  0.77688  0.24906  1.0000
  C   C38       1.0  0.71868  0.76632  0.25702  1.0000
  C   C39       1.0  0.69374  0.90934  0.32312  1.0000
  C   C40       1.0  0.71569  0.95517  0.25990  1.0000
  C   C41       1.0  0.69816  0.92702  0.25078  1.0000
  C   C42       1.0  0.53365  0.83221  0.26313  1.0000
  C   C43       1.0  0.51095  0.83563  0.27314  1.0000
  H   H15       1.0  0.49736  0.82983  0.22161  1.0000
  H   H16       1.0  0.53600  0.82422  0.20482  1.0000
  H   H17       1.0  0.52149  0.73924  0.35654  1.0000
  H   H18       1.0  0.59707  0.88910  0.32798  1.0000
  H   H19       1.0  0.64843  0.91491  0.32724  1.0000
  H   H20       1.0  0.68744  0.91969  0.19276  1.0000
  H   H21       1.0  0.71703  0.96749  0.20799  1.0000
  H   H22       1.0  0.72534  0.88587  0.30556  1.0000
  H   H23       1.0  0.69270  0.77647  0.18818  1.0000
  H   H24       1.0  0.72249  0.75841  0.20118  1.0000
  H   H25       1.0  0.50300  0.66635  0.21442  1.0000
  H   H26       1.0  0.54113  0.71104  0.19999  1.0000
  C   C44       1.0  0.28685  0.75661  0.34493  1.0000
  C   C45       1.0  0.31105  0.78085  0.34451  1.0000
  C   C46       1.0  0.30536  0.80180  0.33113  1.0000
  N   N5        1.0  0.27799  0.78947  0.32280  1.0000
  C   C47       1.0  0.26577  0.76210  0.33073  1.0000
  C   C48       1.0  0.23772  0.74208  0.32796  1.0000
  N   N6        1.0  0.21815  0.77264  0.32135  1.0000
  C   C49       1.0  0.19347  0.77069  0.32097  1.0000
  C   C50       1.0  0.17458  0.74292  0.32435  1.0000
  C   C51       1.0  0.18860  0.72896  0.32465  1.0000
  C   C52       1.0  0.18745  0.79212  0.31856  1.0000
  C   C53       1.0  0.20731  0.82022  0.31654  1.0000
  N   N7        1.0  0.23476  0.83244  0.31979  1.0000
  C   C54       1.0  0.24697  0.85991  0.31722  1.0000
  C   C55       1.0  0.22586  0.86566  0.31095  1.0000
  C   C56       1.0  0.20161  0.84139  0.31014  1.0000
  C   C57       1.0  0.27504  0.87976  0.31985  1.0000
  N   N8        1.0  0.29465  0.84926  0.32245  1.0000
  C   C58       1.0  0.31934  0.85129  0.32529  1.0000
  C   C59       1.0  0.32524  0.82987  0.32913  1.0000
  C   C60       1.0  0.35300  0.83695  0.33611  1.0000
  C   C61       1.0  0.36709  0.83545  0.26076  1.0000
  C   C62       1.0  0.39346  0.83943  0.26963  1.0000
  C   C63       1.0  0.40636  0.84465  0.35403  1.0000
  C   C64       1.0  0.28237  0.90762  0.32461  1.0000
  C   C65       1.0  0.29196  0.92452  0.24862  1.0000
  C   C66       1.0  0.30248  0.95270  0.25659  1.0000
  C   C67       1.0  0.30405  0.96483  0.34067  1.0000
  C   C68       1.0  0.15948  0.78474  0.32234  1.0000
  C   C69       1.0  0.10235  0.76343  0.34042  1.0000
  C   C70       1.0  0.11365  0.76085  0.25923  1.0000
  C   C71       1.0  0.14180  0.77146  0.25006  1.0000
  C   C72       1.0  0.23078  0.71428  0.33394  1.0000
  C   C73       1.0  0.23657  0.70173  0.26256  1.0000
  C   C74       1.0  0.23320  0.67564  0.27274  1.0000
  C   C75       1.0  0.22371  0.66119  0.35407  1.0000
  H   H27       1.0  0.23899  0.66783  0.22122  1.0000
  H   H28       1.0  0.24462  0.71207  0.20430  1.0000
  H   H29       1.0  0.32957  0.78255  0.35556  1.0000
  H   H30       1.0  0.26841  0.79900  0.30973  1.0000
  H   H31       1.0  0.24447  0.82276  0.32629  1.0000
  H   H32       1.0  0.17971  0.70830  0.32722  1.0000
  H   H33       1.0  0.15391  0.73386  0.32633  1.0000
  H   H34       1.0  0.14914  0.76810  0.19195  1.0000
  H   H35       1.0  0.10134  0.74988  0.20734  1.0000
  H   H36       1.0  0.18296  0.83981  0.30515  1.0000
  H   H37       1.0  0.29242  0.91659  0.18774  1.0000
  H   H38       1.0  0.31046  0.96443  0.20081  1.0000
  H   H39       1.0  0.40255  0.83704  0.21412  1.0000
  H   H40       1.0  0.35788  0.83049  0.19953  1.0000
  C   C76       1.0  0.78479  0.54209  0.33169  1.0000
  N   N9        1.0  0.79535  0.60026  0.32254  1.0000
  C   C77       1.0  0.79341  0.62300  0.32212  1.0000
  C   C78       1.0  0.76565  0.61414  0.32553  1.0000
  C   C79       1.0  0.75168  0.58616  0.32604  1.0000
  C   C80       1.0  0.81485  0.65045  0.31956  1.0000
  C   C81       1.0  0.88263  0.65869  0.31781  1.0000
  C   C82       1.0  0.86411  0.68554  0.31079  1.0000
  C   C83       1.0  0.87398  0.57769  0.32590  1.0000
  C   C84       1.0  0.85817  0.51415  0.26129  1.0000
  C   C85       1.0  0.86211  0.49173  0.27013  1.0000
  C   C86       1.0  0.94721  0.67831  0.24890  1.0000
  C   C87       1.0  0.97540  0.69593  0.25678  1.0000
  C   C88       1.0  0.80748  0.67105  0.32318  1.0000
  C   C89       1.0  0.78356  0.69294  0.25994  1.0000
  C   C90       1.0  0.79423  0.67545  0.25079  1.0000
  C   C91       1.0  0.72443  0.51097  0.26371  1.0000
  C   C92       1.0  0.69831  0.48827  0.27378  1.0000
  H   H41       1.0  0.69053  0.47467  0.22228  1.0000
  H   H42       1.0  0.73478  0.51329  0.20542  1.0000
  H   H43       1.0  0.80522  0.49871  0.35599  1.0000
  H   H44       1.0  0.73102  0.57439  0.32840  1.0000
  H   H45       1.0  0.75659  0.62576  0.32740  1.0000
  H   H46       1.0  0.79081  0.66469  0.19284  1.0000
  H   H47       1.0  0.77260  0.69428  0.20801  1.0000
  H   H48       1.0  0.86255  0.70262  0.30580  1.0000
  H   H49       1.0  0.93927  0.66988  0.18810  1.0000
  H   H50       1.0  0.98712  0.69968  0.20094  1.0000
  H   H51       1.0  0.85978  0.48030  0.21457  1.0000
  H   H52       1.0  0.85323  0.51843  0.20008  1.0000
  C   C93       1.0  0.44583  0.17075  0.32216  1.0000
  C   C94       1.0  0.45469  0.15186  0.32580  1.0000
  C   C95       1.0  0.48268  0.16587  0.32611  1.0000
  C   C96       1.0  0.55465  0.34436  0.26184  1.0000
  C   C97       1.0  0.57703  0.37074  0.27063  1.0000
  C   C98       1.0  0.39054  0.26925  0.24930  1.0000
  C   C99       1.0  0.37293  0.27982  0.25718  1.0000
  C   C100      1.0  0.37592  0.09094  0.25988  1.0000
  C   C101      1.0  0.39346  0.11909  0.25079  1.0000
  C   C102      1.0  0.55785  0.21381  0.26377  1.0000
  C   C103      1.0  0.58056  0.21040  0.27378  1.0000
  H   H53       1.0  0.59415  0.21620  0.22224  1.0000
  H   H54       1.0  0.55553  0.22182  0.20548  1.0000
  H   H55       1.0  0.57009  0.30688  0.35609  1.0000
  H   H56       1.0  0.49445  0.15699  0.32903  1.0000
  H   H57       1.0  0.40422  0.12644  0.19278  1.0000
  H   H58       1.0  0.37459  0.07864  0.20793  1.0000
  H   H59       1.0  0.36623  0.16024  0.30486  1.0000
  H   H60       1.0  0.39898  0.26972  0.18850  1.0000
  H   H61       1.0  0.36917  0.28777  0.20133  1.0000
  H   H62       1.0  0.58850  0.37982  0.21510  1.0000
  H   H63       1.0  0.55038  0.33515  0.20062  1.0000
  C   C104      1.0  0.78049  0.26524  0.34538  1.0000
  N   N10       1.0  0.81355  0.25662  0.32344  1.0000
  C   C105      1.0  0.82576  0.28400  0.33137  1.0000
  N   N11       1.0  0.87338  0.27346  0.32205  1.0000
  C   C106      1.0  0.89806  0.27541  0.32174  1.0000
  C   C107      1.0  0.91696  0.30317  0.32518  1.0000
  C   C108      1.0  0.90294  0.31713  0.32547  1.0000
  C   C109      1.0  0.90409  0.25397  0.31922  1.0000
  N   N12       1.0  0.85677  0.21365  0.32027  1.0000
  C   C110      1.0  0.84456  0.18619  0.31756  1.0000
  C   C111      1.0  0.88993  0.20471  0.31030  1.0000
  C   C112      1.0  0.77219  0.19481  0.32586  1.0000
  C   C113      1.0  0.76629  0.21622  0.32983  1.0000
  C   C114      1.0  0.72448  0.21068  0.26141  1.0000
  C   C115      1.0  0.69811  0.20669  0.27025  1.0000
  C   C116      1.0  0.68517  0.20147  0.35465  1.0000
  C   C117      1.0  0.79960  0.12160  0.24896  1.0000
  C   C118      1.0  0.78903  0.09342  0.25693  1.0000
  C   C119      1.0  0.93206  0.26135  0.32288  1.0000
  C   C120      1.0  0.98918  0.28263  0.34072  1.0000
  C   C121      1.0  0.97789  0.28526  0.25961  1.0000
  C   C122      1.0  0.94974  0.27465  0.25054  1.0000
  C   C123      1.0  0.86075  0.33182  0.33461  1.0000
  C   C124      1.0  0.85495  0.34436  0.26329  1.0000
  C   C125      1.0  0.85836  0.37047  0.27336  1.0000
  H   H64       1.0  0.85256  0.37827  0.22186  1.0000
  H   H65       1.0  0.84697  0.33404  0.20496  1.0000
  H   H66       1.0  0.76197  0.26353  0.35666  1.0000
  H   H67       1.0  0.82313  0.24711  0.31008  1.0000
  H   H68       1.0  0.91183  0.33779  0.32808  1.0000
  H   H69       1.0  0.93763  0.31222  0.32720  1.0000
  H   H70       1.0  0.94241  0.27806  0.19255  1.0000
  H   H71       1.0  0.99021  0.29625  0.20773  1.0000
  H   H72       1.0  0.90858  0.20629  0.30519  1.0000
  H   H73       1.0  0.79919  0.12955  0.18808  1.0000
  H   H74       1.0  0.78113  0.08170  0.20109  1.0000
  H   H75       1.0  0.68905  0.20911  0.21477  1.0000
  H   H76       1.0  0.73373  0.21566  0.20020  1.0000
  N   N13       1.0  0.21389  0.61826  0.29547  1.0000
  N   N14       1.0  0.21387  0.59530  0.29418  1.0000
  N   N15       1.0  0.45054  0.59597  0.29569  1.0000
  N   N16       1.0  0.47351  0.61891  0.29439  1.0000
  N   N17       1.0  0.47286  0.85491  0.29568  1.0000
  N   N18       1.0  0.44993  0.85495  0.29431  1.0000
  N   N19       1.0  0.87764  0.42783  0.29606  1.0000
  N   N20       1.0  0.87766  0.45079  0.29473  1.0000
  N   N21       1.0  0.64097  0.45014  0.29647  1.0000
  N   N22       1.0  0.61801  0.42720  0.29516  1.0000
  N   N23       1.0  0.61867  0.19117  0.29637  1.0000
  N   N24       1.0  0.64161  0.19115  0.29496  1.0000
  N   N25       1.0  0.03303  0.29581  0.28155  1.0000
  N   N26       1.0  0.05954  0.30884  0.28024  1.0000
  N   N27       1.0  0.77301  0.73754  0.28195  1.0000
  N   N28       1.0  0.75999  0.75104  0.28067  1.0000
  N   N29       1.0  0.33125  0.03581  0.28177  1.0000
  N   N30       1.0  0.31776  0.00929  0.28041  1.0000
  N   N31       1.0  0.05851  0.75027  0.28147  1.0000
  N   N32       1.0  0.03199  0.73725  0.28027  1.0000
  N   N33       1.0  0.31852  0.30853  0.28187  1.0000
  N   N34       1.0  0.33155  0.29504  0.28065  1.0000
  N   N35       1.0  0.76030  0.01030  0.28200  1.0000
  N   N36       1.0  0.77380  0.03682  0.28068  1.0000
  C   C126      1.0  0.31221  0.53058  0.34503  1.0000
  C   C127      1.0  0.26701  0.50388  0.33145  1.0000
  C   C128      1.0  0.32082  0.46860  0.32473  1.0000
  C   C129      1.0  0.24860  0.38741  0.31650  1.0000
  C   C130      1.0  0.20317  0.36054  0.31037  1.0000
  C   C131      1.0  0.18907  0.39561  0.32009  1.0000
  C   C132      1.0  0.19492  0.42298  0.32232  1.0000
  N   N37       1.0  0.21955  0.44572  0.32254  1.0000
  C   C133      1.0  0.18983  0.45967  0.32653  1.0000
  C   C134      1.0  0.17590  0.43168  0.32540  1.0000
  C   C135      1.0  0.22185  0.54572  0.42868  1.0000
  C   C136      1.0  0.22573  0.52327  0.42017  1.0000
  C   C137      1.0  0.16120  0.37507  0.32472  1.0000
  C   C138      1.0  0.10398  0.33953  0.34067  1.0000
  C   C139      1.0  0.12133  0.34606  0.41568  1.0000
  C   C140      1.0  0.14949  0.36364  0.40804  1.0000
  C   C141      1.0  0.28004  0.36013  0.40209  1.0000
  C   C142      1.0  0.29012  0.34215  0.41031  1.0000
  C   C143      1.0  0.36922  0.52105  0.41453  1.0000
  C   C144      1.0  0.39555  0.54346  0.42363  1.0000
  H   H77       1.0  0.40556  0.54575  0.48245  1.0000
  H   H78       1.0  0.36057  0.50819  0.46757  1.0000
  H   H79       1.0  0.33066  0.54750  0.35582  1.0000
  H   H80       1.0  0.27044  0.36285  0.45557  1.0000
  H   H81       1.0  0.28680  0.33174  0.46888  1.0000
  H   H82       1.0  0.18448  0.34349  0.30580  1.0000
  H   H83       1.0  0.18095  0.47145  0.32975  1.0000
  H   H84       1.0  0.15523  0.41991  0.32688  1.0000
  H   H85       1.0  0.16124  0.36880  0.46433  1.0000
  H   H86       1.0  0.11361  0.33849  0.47747  1.0000
  H   H87       1.0  0.22485  0.51249  0.47603  1.0000
  H   H88       1.0  0.21768  0.55020  0.49074  1.0000
  C   C145      1.0  0.53824  0.78195  0.34551  1.0000
  C   C146      1.0  0.56494  0.76345  0.33171  1.0000
  N   N38       1.0  0.57998  0.79083  0.32336  1.0000
  C   C147      1.0  0.57284  0.83109  0.32859  1.0000
  C   C148      1.0  0.60020  0.85253  0.32477  1.0000
  C   C149      1.0  0.68140  0.86151  0.31719  1.0000
  N   N39       1.0  0.66616  0.83406  0.32042  1.0000
  C   C150      1.0  0.70829  0.84296  0.31130  1.0000
  C   C151      1.0  0.67321  0.79379  0.32037  1.0000
  C   C152      1.0  0.64584  0.77227  0.32259  1.0000
  N   N40       1.0  0.62310  0.77416  0.32297  1.0000
  C   C153      1.0  0.60914  0.73048  0.32667  1.0000
  C   C154      1.0  0.63714  0.74454  0.32542  1.0000
  C   C155      1.0  0.57312  0.74357  0.32970  1.0000
  C   C156      1.0  0.55244  0.71581  0.33655  1.0000
  C   C157      1.0  0.50676  0.66243  0.35427  1.0000
  C   C158      1.0  0.52313  0.67641  0.42889  1.0000
  C   C159      1.0  0.54560  0.70273  0.42036  1.0000
  C   C160      1.0  0.69374  0.78645  0.32507  1.0000
  C   C161      1.0  0.72926  0.76476  0.34105  1.0000
  C   C162      1.0  0.72266  0.77553  0.41610  1.0000
  C   C163      1.0  0.70507  0.78610  0.40845  1.0000
  C   C164      1.0  0.70862  0.92028  0.40258  1.0000
  C   C165      1.0  0.72659  0.94835  0.41069  1.0000
  C   C166      1.0  0.72957  0.96646  0.34105  1.0000
  C   C167      1.0  0.55197  0.83802  0.33448  1.0000
  C   C168      1.0  0.54773  0.84850  0.41453  1.0000
  C   C169      1.0  0.50594  0.84508  0.35445  1.0000
  C   C170      1.0  0.52532  0.85242  0.42363  1.0000
  H   H89       1.0  0.52303  0.86017  0.48240  1.0000
  H   H90       1.0  0.56060  0.85275  0.46753  1.0000
  H   H91       1.0  0.52136  0.78350  0.35708  1.0000
  H   H92       1.0  0.59907  0.80041  0.30998  1.0000
  H   H93       1.0  0.64678  0.82435  0.32737  1.0000
  H   H94       1.0  0.70587  0.90797  0.45612  1.0000
  H   H95       1.0  0.73697  0.95546  0.46926  1.0000
  H   H96       1.0  0.72534  0.84133  0.30686  1.0000
  H   H97       1.0  0.59737  0.70982  0.32944  1.0000
  H   H98       1.0  0.64891  0.73564  0.32657  1.0000
  H   H99       1.0  0.69986  0.79265  0.46475  1.0000
  H   H100      1.0  0.73015  0.77532  0.47793  1.0000
  H   H101      1.0  0.55637  0.71262  0.47621  1.0000
  H   H102      1.0  0.51868  0.66773  0.49090  1.0000
  C   C171      1.0  0.21628  0.74799  0.32406  1.0000
  C   C172      1.0  0.29655  0.87390  0.32207  1.0000
  C   C173      1.0  0.33833  0.87898  0.32622  1.0000
  C   C174      1.0  0.32428  0.89293  0.32490  1.0000
  C   C175      1.0  0.39232  0.84699  0.42862  1.0000
  C   C176      1.0  0.36600  0.84313  0.41999  1.0000
  C   C177      1.0  0.29326  0.94745  0.41570  1.0000
  C   C178      1.0  0.28266  0.91930  0.40800  1.0000
  C   C179      1.0  0.14853  0.78865  0.40187  1.0000
  C   C180      1.0  0.12046  0.77857  0.41003  1.0000
  C   C181      1.0  0.22028  0.69958  0.41402  1.0000
  C   C182      1.0  0.21637  0.67325  0.42321  1.0000
  H   H103      1.0  0.20859  0.66322  0.48198  1.0000
  H   H104      1.0  0.21602  0.70821  0.46700  1.0000
  H   H105      1.0  0.28531  0.73817  0.35604  1.0000
  H   H106      1.0  0.16082  0.79821  0.45539  1.0000
  H   H107      1.0  0.11334  0.78182  0.46868  1.0000
  H   H108      1.0  0.22749  0.88435  0.30661  1.0000
  H   H109      1.0  0.35899  0.88786  0.32888  1.0000
  H   H110      1.0  0.33318  0.91360  0.32601  1.0000
  H   H111      1.0  0.27613  0.90753  0.46431  1.0000
  H   H112      1.0  0.29345  0.95515  0.47754  1.0000
  H   H113      1.0  0.35607  0.84401  0.47580  1.0000
  H   H114      1.0  0.40096  0.85120  0.49066  1.0000
  C   C183      1.0  0.77929  0.51550  0.34564  1.0000
  C   C184      1.0  0.80353  0.51555  0.34524  1.0000
  C   C185      1.0  0.82449  0.54220  0.33193  1.0000
  N   N41       1.0  0.81216  0.55724  0.32370  1.0000
  C   C186      1.0  0.76478  0.55014  0.32918  1.0000
  C   C187      1.0  0.77070  0.57750  0.32537  1.0000
  C   C188      1.0  0.84295  0.65869  0.31734  1.0000
  N   N42       1.0  0.85516  0.64344  0.32055  1.0000
  C   C189      1.0  0.88839  0.68556  0.31147  1.0000
  C   C190      1.0  0.90247  0.65046  0.32031  1.0000
  C   C191      1.0  0.89661  0.62309  0.32256  1.0000
  N   N43       1.0  0.87197  0.60036  0.32304  1.0000
  C   C192      1.0  0.90167  0.58638  0.32674  1.0000
  C   C193      1.0  0.91562  0.61438  0.32534  1.0000
  C   C194      1.0  0.85256  0.55038  0.32979  1.0000
  C   C195      1.0  0.85963  0.52969  0.33670  1.0000
  C   C196      1.0  0.86731  0.48401  0.35451  1.0000
  C   C197      1.0  0.86963  0.50036  0.42914  1.0000
  C   C198      1.0  0.86577  0.52282  0.42059  1.0000
  C   C199      1.0  0.93034  0.67099  0.32497  1.0000
  C   C200      1.0  0.98755  0.70653  0.34079  1.0000
  C   C201      1.0  0.97019  0.69995  0.41587  1.0000
  C   C202      1.0  0.94204  0.68237  0.40831  1.0000
  C   C203      1.0  0.81140  0.68594  0.40261  1.0000
  C   C204      1.0  0.80131  0.70391  0.41067  1.0000
  C   C205      1.0  0.78616  0.70686  0.34103  1.0000
  C   C206      1.0  0.73697  0.52928  0.33512  1.0000
  C   C207      1.0  0.72226  0.52507  0.41517  1.0000
  C   C208      1.0  0.68387  0.48326  0.35515  1.0000
  C   C209      1.0  0.69593  0.50265  0.42434  1.0000
  H   H115      1.0  0.68589  0.50036  0.48313  1.0000
  H   H116      1.0  0.73089  0.53791  0.46820  1.0000
  H   H117      1.0  0.76085  0.49860  0.35680  1.0000
  H   H118      1.0  0.82170  0.57637  0.31097  1.0000
  H   H119      1.0  0.84547  0.62405  0.32714  1.0000
  H   H120      1.0  0.82093  0.68318  0.45621  1.0000
  H   H121      1.0  0.80454  0.71428  0.46927  1.0000
  H   H122      1.0  0.90708  0.70261  0.30700  1.0000
  H   H123      1.0  0.91055  0.57460  0.32938  1.0000
  H   H124      1.0  0.93629  0.62615  0.32640  1.0000
  H   H125      1.0  0.93028  0.67717  0.46463  1.0000
  H   H126      1.0  0.97790  0.70748  0.47767  1.0000
  H   H127      1.0  0.86663  0.53360  0.47642  1.0000
  H   H128      1.0  0.87382  0.49590  0.49118  1.0000
  C   C210      1.0  0.55330  0.26415  0.34592  1.0000
  C   C211      1.0  0.55325  0.28834  0.34570  1.0000
  C   C212      1.0  0.52659  0.28264  0.33237  1.0000
  N   N44       1.0  0.51156  0.25527  0.32416  1.0000
  C   C213      1.0  0.52672  0.24305  0.33203  1.0000
  C   C214      1.0  0.51868  0.21500  0.32936  1.0000
  C   C215      1.0  0.49133  0.19356  0.32547  1.0000
  N   N45       1.0  0.46856  0.19543  0.32250  1.0000
  C   C216      1.0  0.41838  0.16472  0.31946  1.0000
  C   C217      1.0  0.41014  0.18459  0.31708  1.0000
  N   N46       1.0  0.42538  0.21205  0.32051  1.0000
  C   C218      1.0  0.41012  0.22425  0.31779  1.0000
  C   C219      1.0  0.38327  0.20315  0.31094  1.0000
  C   C220      1.0  0.38329  0.17889  0.31007  1.0000
  C   C221      1.0  0.41833  0.25231  0.32077  1.0000
  C   C222      1.0  0.44569  0.27383  0.32308  1.0000
  N   N47       1.0  0.46844  0.27193  0.32336  1.0000
  C   C223      1.0  0.49109  0.29662  0.32633  1.0000
  C   C224      1.0  0.48239  0.31561  0.32740  1.0000
  C   C225      1.0  0.45439  0.30155  0.32619  1.0000
  C   C226      1.0  0.51841  0.30252  0.33035  1.0000
  C   C227      1.0  0.53908  0.33028  0.33725  1.0000
  C   C228      1.0  0.58475  0.38366  0.35502  1.0000
  C   C229      1.0  0.56839  0.36963  0.42966  1.0000
  C   C230      1.0  0.54594  0.34330  0.42113  1.0000
  C   C231      1.0  0.39779  0.25964  0.32535  1.0000
  C   C232      1.0  0.36226  0.28133  0.34116  1.0000
  C   C233      1.0  0.36878  0.27052  0.41623  1.0000
  C   C234      1.0  0.38636  0.25993  0.40866  1.0000
  C   C235      1.0  0.39778  0.13676  0.32306  1.0000
  C   C236      1.0  0.38283  0.12580  0.40243  1.0000
  C   C237      1.0  0.36485  0.09773  0.41051  1.0000
  C   C238      1.0  0.36194  0.07963  0.34090  1.0000
  C   C239      1.0  0.53955  0.20806  0.33524  1.0000
  C   C240      1.0  0.54377  0.19760  0.41532  1.0000
  C   C241      1.0  0.58557  0.20098  0.35515  1.0000
  C   C242      1.0  0.56618  0.19367  0.42439  1.0000
  H   H129      1.0  0.56847  0.18594  0.48320  1.0000
  H   H130      1.0  0.53092  0.19338  0.46837  1.0000
  H   H131      1.0  0.57022  0.26262  0.35671  1.0000
  H   H132      1.0  0.49243  0.24567  0.31148  1.0000
  H   H133      1.0  0.44473  0.22173  0.32820  1.0000
  H   H134      1.0  0.44308  0.13119  0.32789  1.0000
  H   H135      1.0  0.38553  0.13809  0.45598  1.0000
  H   H136      1.0  0.35442  0.09061  0.46904  1.0000
  H   H137      1.0  0.36622  0.20478  0.30634  1.0000
  H   H138      1.0  0.49415  0.33626  0.33063  1.0000
  H   H139      1.0  0.44262  0.31044  0.32763  1.0000
  H   H140      1.0  0.39152  0.25335  0.46499  1.0000
  H   H141      1.0  0.36121  0.27067  0.47801  1.0000
  H   H142      1.0  0.53515  0.33338  0.47697  1.0000
  H   H143      1.0  0.57284  0.37827  0.49172  1.0000
  C   C243      1.0  0.80468  0.28948  0.34560  1.0000
  C   C244      1.0  0.78618  0.24429  0.33181  1.0000
  C   C245      1.0  0.85381  0.30401  0.32867  1.0000
  C   C246      1.0  0.87526  0.29810  0.32481  1.0000
  C   C247      1.0  0.88423  0.22587  0.31698  1.0000
  C   C248      1.0  0.86567  0.18044  0.31103  1.0000
  C   C249      1.0  0.81650  0.16635  0.32025  1.0000
  C   C250      1.0  0.79498  0.17220  0.32256  1.0000
  N   N48       1.0  0.79688  0.19684  0.32296  1.0000
  C   C251      1.0  0.75320  0.16711  0.32679  1.0000
  C   C252      1.0  0.76725  0.15317  0.32547  1.0000
  C   C253      1.0  0.73853  0.20914  0.33677  1.0000
  C   C254      1.0  0.69916  0.19909  0.42924  1.0000
  C   C255      1.0  0.72548  0.20293  0.42063  1.0000
  C   C256      1.0  0.80916  0.13848  0.32496  1.0000
  C   C257      1.0  0.78746  0.08126  0.34097  1.0000
  C   C258      1.0  0.79822  0.09862  0.41601  1.0000
  C   C259      1.0  0.80880  0.12677  0.40835  1.0000
  C   C260      1.0  0.94299  0.25737  0.40228  1.0000
  C   C261      1.0  0.97106  0.26746  0.41035  1.0000
  C   C262      1.0  0.87122  0.34650  0.41468  1.0000
  C   C263      1.0  0.86779  0.38490  0.35471  1.0000
  C   C264      1.0  0.87512  0.37283  0.42384  1.0000
  H   H144      1.0  0.88286  0.38285  0.48263  1.0000
  H   H145      1.0  0.87546  0.33787  0.46766  1.0000
  H   H146      1.0  0.80623  0.30791  0.35718  1.0000
  H   H147      1.0  0.84707  0.22334  0.32730  1.0000
  H   H148      1.0  0.93068  0.24779  0.45582  1.0000
  H   H149      1.0  0.97816  0.26416  0.46889  1.0000
  H   H150      1.0  0.86404  0.16175  0.30654  1.0000
  H   H151      1.0  0.73254  0.15823  0.32962  1.0000
  H   H152      1.0  0.75836  0.13250  0.32662  1.0000
  H   H153      1.0  0.81534  0.13853  0.46465  1.0000
  H   H154      1.0  0.79801  0.09090  0.47785  1.0000
  H   H155      1.0  0.73538  0.20205  0.47646  1.0000
  H   H156      1.0  0.69050  0.19487  0.49128  1.0000
  C   C265      1.0  0.22282  0.58634  0.36311  1.0000
  C   C266      1.0  0.23265  0.60340  0.43875  1.0000
  C   C267      1.0  0.23275  0.62833  0.44131  1.0000
  C   C268      1.0  0.22283  0.63582  0.36556  1.0000
  H   H157      1.0  0.24126  0.59848  0.49012  1.0000
  C   C269      1.0  0.24492  0.64583  0.51296  1.0000
  C   C270      1.0  0.23291  0.63761  0.60101  1.0000
  H   H158      1.0  0.21086  0.62850  0.59788  1.0000
  H   H159      1.0  0.24075  0.65530  0.64477  1.0000
  H   H160      1.0  0.23774  0.62295  0.63036  1.0000
  O   O1        1.0  0.26972  0.65903  0.50995  1.0000
  C   C271      1.0  0.48249  0.63679  0.36341  1.0000
  C   C272      1.0  0.46543  0.62955  0.43912  1.0000
  C   C273      1.0  0.44048  0.60474  0.44162  1.0000
  C   C274      1.0  0.43299  0.58734  0.36586  1.0000
  H   H161      1.0  0.47037  0.64306  0.49056  1.0000
  C   C275      1.0  0.42301  0.59940  0.51336  1.0000
  C   C276      1.0  0.43100  0.59589  0.60202  1.0000
  H   H162      1.0  0.44042  0.58322  0.59985  1.0000
  H   H163      1.0  0.41317  0.58587  0.64517  1.0000
  H   H164      1.0  0.44536  0.61549  0.63133  1.0000
  O   O2        1.0  0.40955  0.61072  0.50943  1.0000
  C   C277      1.0  0.43200  0.84602  0.36324  1.0000
  C   C278      1.0  0.43918  0.83615  0.43892  1.0000
  C   C279      1.0  0.46400  0.83604  0.44154  1.0000
  C   C280      1.0  0.48146  0.84598  0.36587  1.0000
  H   H165      1.0  0.42564  0.82758  0.49032  1.0000
  C   C281      1.0  0.46930  0.82391  0.51323  1.0000
  C   C282      1.0  0.47301  0.83576  0.60154  1.0000
  H   H166      1.0  0.48583  0.85783  0.59858  1.0000
  H   H167      1.0  0.48296  0.82798  0.64509  1.0000
  H   H168      1.0  0.45349  0.83079  0.63100  1.0000
  O   O3        1.0  0.45775  0.79909  0.51114  1.0000
  C   C283      1.0  0.86869  0.45975  0.36365  1.0000
  C   C284      1.0  0.85883  0.44268  0.43931  1.0000
  C   C285      1.0  0.85872  0.41774  0.44191  1.0000
  C   C286      1.0  0.86867  0.41026  0.36617  1.0000
  H   H169      1.0  0.85019  0.44759  0.49066  1.0000
  C   C287      1.0  0.84652  0.40023  0.51355  1.0000
  C   C288      1.0  0.85849  0.40844  0.60162  1.0000
  H   H170      1.0  0.88054  0.41756  0.59851  1.0000
  H   H171      1.0  0.85063  0.39075  0.64539  1.0000
  H   H172      1.0  0.85364  0.42309  0.63092  1.0000
  O   O4        1.0  0.82173  0.38702  0.51051  1.0000
  C   C289      1.0  0.60902  0.40930  0.36416  1.0000
  C   C290      1.0  0.62607  0.41652  0.43980  1.0000
  C   C291      1.0  0.65100  0.44135  0.44237  1.0000
  C   C292      1.0  0.65850  0.45878  0.36664  1.0000
  H   H173      1.0  0.62110  0.40302  0.49132  1.0000
  C   C293      1.0  0.66843  0.44670  0.51412  1.0000
  C   C294      1.0  0.66039  0.45020  0.60274  1.0000
  H   H174      1.0  0.65097  0.46287  0.60051  1.0000
  H   H175      1.0  0.67820  0.46021  0.64593  1.0000
  H   H176      1.0  0.64602  0.43060  0.63207  1.0000
  O   O5        1.0  0.68191  0.43538  0.51026  1.0000
  C   C295      1.0  0.65953  0.20010  0.36385  1.0000
  C   C296      1.0  0.65232  0.20995  0.43954  1.0000
  C   C297      1.0  0.62748  0.21003  0.44222  1.0000
  C   C298      1.0  0.61005  0.20010  0.36654  1.0000
  H   H177      1.0  0.66585  0.21852  0.49092  1.0000
  C   C299      1.0  0.62218  0.22218  0.51386  1.0000
  C   C300      1.0  0.61846  0.21035  0.60222  1.0000
  H   H178      1.0  0.60564  0.18828  0.59937  1.0000
  H   H179      1.0  0.60850  0.21814  0.64576  1.0000
  H   H180      1.0  0.63797  0.21533  0.63164  1.0000
  O   O6        1.0  0.63373  0.24700  0.51166  1.0000
  C   C301      1.0  0.07513  0.32413  0.34940  1.0000
  C   C302      1.0  0.06116  0.32571  0.42514  1.0000
  C   C303      1.0  0.03244  0.31171  0.42766  1.0000
  C   C304      1.0  0.01797  0.29603  0.35186  1.0000
  H   H181      1.0  0.07187  0.33840  0.47663  1.0000
  C   C305      1.0  0.01943  0.31579  0.49952  1.0000
  C   C306      1.0  0.02197  0.30707  0.58817  1.0000
  H   H182      1.0  0.01996  0.28695  0.58602  1.0000
  H   H183      1.0  0.00595  0.30592  0.63138  1.0000
  H   H184      1.0  0.04161  0.32134  0.61743  1.0000
  O   O7        1.0  0.01837  0.33673  0.49559  1.0000
  C   C307      1.0  0.74464  0.75129  0.34979  1.0000
  C   C308      1.0  0.74296  0.73566  0.42538  1.0000
  C   C309      1.0  0.75698  0.72096  0.42791  1.0000
  C   C310      1.0  0.77272  0.72221  0.35217  1.0000
  H   H185      1.0  0.73028  0.73371  0.47693  1.0000
  C   C311      1.0  0.75289  0.70387  0.49975  1.0000
  C   C312      1.0  0.76155  0.71511  0.58843  1.0000
  H   H186      1.0  0.78166  0.73324  0.58631  1.0000
  H   H187      1.0  0.76271  0.70026  0.63162  1.0000
  H   H188      1.0  0.74726  0.72047  0.61768  1.0000
  O   O8        1.0  0.73196  0.68185  0.49578  1.0000
  C   C313      1.0  0.31751  0.99368  0.34944  1.0000
  C   C314      1.0  0.33308  0.00761  0.42511  1.0000
  C   C315      1.0  0.34775  0.03634  0.42776  1.0000
  C   C316      1.0  0.34654  0.05083  0.35202  1.0000
  H   H189      1.0  0.33509  0.99688  0.47649  1.0000
  C   C317      1.0  0.36490  0.04934  0.49953  1.0000
  C   C318      1.0  0.35324  0.04679  0.58762  1.0000
  H   H190      1.0  0.33532  0.04912  0.58458  1.0000
  H   H191      1.0  0.36803  0.06262  0.63144  1.0000
  H   H192      1.0  0.34745  0.02704  0.61685  1.0000
  O   O9        1.0  0.38676  0.05010  0.49645  1.0000
  C   C319      1.0  0.01640  0.72193  0.34944  1.0000
  C   C320      1.0  0.03036  0.72030  0.42505  1.0000
  C   C321      1.0  0.05908  0.73430  0.42746  1.0000
  C   C322      1.0  0.07355  0.75001  0.35168  1.0000
  H   H193      1.0  0.01964  0.70758  0.47652  1.0000
  C   C323      1.0  0.07208  0.73018  0.49919  1.0000
  C   C324      1.0  0.06954  0.73884  0.58793  1.0000
  H   H194      1.0  0.07155  0.75896  0.58592  1.0000
  H   H195      1.0  0.08555  0.73997  0.63104  1.0000
  H   H196      1.0  0.04989  0.72456  0.61723  1.0000
  O   O10       1.0  0.07315  0.70924  0.49510  1.0000
  C   C325      1.0  0.34685  0.29477  0.34982  1.0000
  C   C326      1.0  0.34846  0.31037  0.42542  1.0000
  C   C327      1.0  0.33441  0.32505  0.42789  1.0000
  C   C328      1.0  0.31873  0.32381  0.35210  1.0000
  H   H197      1.0  0.36113  0.31234  0.47695  1.0000
  C   C329      1.0  0.33848  0.34214  0.49963  1.0000
  C   C330      1.0  0.32942  0.33063  0.58796  1.0000
  H   H198      1.0  0.30923  0.31262  0.58504  1.0000
  H   H199      1.0  0.32824  0.34542  0.63146  1.0000
  H   H200      1.0  0.34347  0.32501  0.61747  1.0000
  O   O11       1.0  0.35956  0.36405  0.49748  1.0000
  C   C331      1.0  0.77401  0.05241  0.34971  1.0000
  C   C332      1.0  0.75837  0.03846  0.42532  1.0000
  C   C333      1.0  0.74368  0.00973  0.42792  1.0000
  C   C334      1.0  0.74494  0.99526  0.35219  1.0000
  H   H201      1.0  0.75633  0.04917  0.47669  1.0000
  C   C335      1.0  0.72648  0.99671  0.49963  1.0000
  C   C336      1.0  0.73807  0.99923  0.58777  1.0000
  H   H202      1.0  0.75599  0.99691  0.58483  1.0000
  H   H203      1.0  0.72324  0.98339  0.63154  1.0000
  H   H204      1.0  0.74383  0.01898  0.61700  1.0000
  O   O12       1.0  0.70462  0.99595  0.49643  1.0000
