data_image0
_chemical_formula_structural       C2NH2NH2CNH2CNCNCNC3H3C3NH2NH2NCNC2NH2NC2NH2NH2CNH2CNCNCNC3H3C3NH2NH2NCNC2NH2NC3NH2NH2NCN2CNCNCNC3H3C2NH2NH2C3NH2NH2NCN2CNCNCNC3H3C2NH2NH2C2NH2CNH2C2NH2CNH2CNH2C2NH2CNH2C2NH2C3NH2NH2NC3NH2NH2NC2NH2NCNCNCNC3H3CNCNCNC3H3C3NH2NH2NC3NH2NH2NCNH2NC3NH2NH2NC3NH2NH2NC2NH2NCNCNCNC3H3CNCNCNC3H3C3NH2NH2NC3NH2NH2NCNH2N
_chemical_formula_sum              "C120 N96 H120"
_cell_length_a       45.6049
_cell_length_b       45.6049
_cell_length_c       14.6352
_cell_angle_alpha    90
_cell_angle_beta     90
_cell_angle_gamma    120

_space_group_name_H-M_alt    "P 1"
_space_group_IT_number       1

loop_
  _space_group_symop_operation_xyz
  'x, y, z'

loop_
  _atom_site_type_symbol
  _atom_site_label
  _atom_site_symmetry_multiplicity
  _atom_site_fract_x
  _atom_site_fract_y
  _atom_site_fract_z
  _atom_site_occupancy
  C   C1        1.0  0.25177  0.03076  0.33903  1.0000
  C   C2        1.0  0.23499  0.49475  0.32589  1.0000
  N   N1        1.0  0.23482  0.04815  0.32563  1.0000
  H   H1        1.0  0.24529  0.07229  0.33722  1.0000
  H   H2        1.0  0.21036  0.03656  0.32041  1.0000
  N   N2        1.0  0.20611  0.47888  0.27448  1.0000
  H   H3        1.0  0.19919  0.45712  0.24670  1.0000
  H   H4        1.0  0.19707  0.49142  0.24351  1.0000
  C   C3        1.0  0.03643  0.24647  0.32600  1.0000
  N   N3        1.0  0.05229  0.23341  0.27471  1.0000
  H   H5        1.0  0.07393  0.24841  0.24660  1.0000
  H   H6        1.0  0.03954  0.21194  0.24339  1.0000
  C   C4        1.0  0.19444  0.37962  0.35988  1.0000
  N   N4        1.0  0.16120  0.35460  0.35972  1.0000
  C   C5        1.0  0.15154  0.32105  0.35987  1.0000
  N   N5        1.0  0.17657  0.31282  0.35967  1.0000
  C   C6        1.0  0.21012  0.33672  0.35983  1.0000
  N   N6        1.0  0.21835  0.36997  0.35967  1.0000
  C   C7        1.0  0.23619  0.32852  0.35772  1.0000
  C   C8        1.0  0.20264  0.41390  0.35782  1.0000
  C   C9        1.0  0.11727  0.29497  0.35778  1.0000
  H   H7        1.0  0.11277  0.27068  0.35914  1.0000
  H   H8        1.0  0.18284  0.41840  0.35925  1.0000
  H   H9        1.0  0.26049  0.34832  0.35911  1.0000
  C   C10       1.0  0.25004  0.28027  0.35369  1.0000
  C   C11       1.0  0.23350  0.24555  0.38091  1.0000
  C   C12       1.0  0.25272  0.22876  0.39415  1.0000
  N   N7        1.0  0.23964  0.19981  0.44535  1.0000
  H   H10       1.0  0.21816  0.19102  0.47660  1.0000
  H   H11       1.0  0.25472  0.19329  0.47360  1.0000
  N   N8        1.0  0.19914  0.22857  0.39402  1.0000
  H   H12       1.0  0.18547  0.23904  0.38234  1.0000
  H   H13       1.0  0.18627  0.20411  0.39907  1.0000
  N   N9        1.0  0.23146  0.29653  0.35929  1.0000
  C   C13       1.0  0.25090  0.47600  0.35364  1.0000
  N   N10       1.0  0.23463  0.44116  0.35929  1.0000
  C   C14       1.0  0.05516  0.28113  0.35375  1.0000
  C   C15       1.0  0.03699  0.29767  0.38097  1.0000
  N   N11       1.0  0.05437  0.33203  0.39409  1.0000
  H   H14       1.0  0.07851  0.34570  0.38240  1.0000
  H   H15       1.0  0.04278  0.34489  0.39914  1.0000
  N   N12       1.0  0.09001  0.29970  0.35934  1.0000
  C   C16       1.0  0.25177  0.53076  0.33903  1.0000
  C   C17       1.0  0.23499  0.99475  0.32589  1.0000
  N   N13       1.0  0.23482  0.54815  0.32563  1.0000
  H   H16       1.0  0.24529  0.57229  0.33722  1.0000
  H   H17       1.0  0.21036  0.53656  0.32041  1.0000
  N   N14       1.0  0.20611  0.97888  0.27448  1.0000
  H   H18       1.0  0.19919  0.95712  0.24670  1.0000
  H   H19       1.0  0.19707  0.99142  0.24351  1.0000
  C   C18       1.0  0.03643  0.74647  0.32600  1.0000
  N   N15       1.0  0.05229  0.73341  0.27471  1.0000
  H   H20       1.0  0.07393  0.74841  0.24660  1.0000
  H   H21       1.0  0.03954  0.71194  0.24339  1.0000
  C   C19       1.0  0.19444  0.87962  0.35988  1.0000
  N   N16       1.0  0.16120  0.85460  0.35972  1.0000
  C   C20       1.0  0.15154  0.82105  0.35987  1.0000
  N   N17       1.0  0.17657  0.81282  0.35967  1.0000
  C   C21       1.0  0.21012  0.83672  0.35983  1.0000
  N   N18       1.0  0.21834  0.86997  0.35967  1.0000
  C   C22       1.0  0.23619  0.82852  0.35772  1.0000
  C   C23       1.0  0.20264  0.91390  0.35782  1.0000
  C   C24       1.0  0.11726  0.79497  0.35778  1.0000
  H   H22       1.0  0.11277  0.77068  0.35914  1.0000
  H   H23       1.0  0.18284  0.91839  0.35925  1.0000
  H   H24       1.0  0.26049  0.84832  0.35911  1.0000
  C   C25       1.0  0.25004  0.78027  0.35369  1.0000
  C   C26       1.0  0.23350  0.74555  0.38091  1.0000
  C   C27       1.0  0.25272  0.72876  0.39415  1.0000
  N   N19       1.0  0.23964  0.69981  0.44535  1.0000
  H   H25       1.0  0.21816  0.69102  0.47660  1.0000
  H   H26       1.0  0.25472  0.69329  0.47360  1.0000
  N   N20       1.0  0.19914  0.72857  0.39402  1.0000
  H   H27       1.0  0.18547  0.73904  0.38234  1.0000
  H   H28       1.0  0.18627  0.70411  0.39907  1.0000
  N   N21       1.0  0.23147  0.79653  0.35929  1.0000
  C   C28       1.0  0.25090  0.97600  0.35364  1.0000
  N   N22       1.0  0.23463  0.94116  0.35929  1.0000
  C   C29       1.0  0.05516  0.78113  0.35375  1.0000
  C   C30       1.0  0.03699  0.79767  0.38097  1.0000
  N   N23       1.0  0.05438  0.83203  0.39409  1.0000
  H   H29       1.0  0.07852  0.84570  0.38240  1.0000
  H   H30       1.0  0.04278  0.84490  0.39914  1.0000
  N   N24       1.0  0.09001  0.79970  0.35934  1.0000
  C   C31       1.0  0.28739  0.24469  0.36648  1.0000
  C   C32       1.0  0.30392  0.27940  0.33923  1.0000
  C   C33       1.0  0.28470  0.29619  0.32594  1.0000
  N   N25       1.0  0.33828  0.29639  0.32617  1.0000
  H   H31       1.0  0.35196  0.28592  0.33791  1.0000
  H   H32       1.0  0.35114  0.32085  0.32116  1.0000
  N   N26       1.0  0.29776  0.32512  0.27466  1.0000
  H   H33       1.0  0.28275  0.33175  0.24655  1.0000
  H   H34       1.0  0.31923  0.33383  0.24335  1.0000
  N   N27       1.0  0.30596  0.22842  0.36084  1.0000
  C   C34       1.0  0.28647  0.04893  0.36641  1.0000
  N   N28       1.0  0.30275  0.08377  0.36080  1.0000
  N   N29       1.0  0.44740  0.22521  0.36091  1.0000
  C   C35       1.0  0.34295  0.14531  0.36032  1.0000
  N   N30       1.0  0.37621  0.17032  0.36052  1.0000
  C   C36       1.0  0.38586  0.20388  0.36035  1.0000
  N   N31       1.0  0.36085  0.21211  0.36049  1.0000
  C   C37       1.0  0.32730  0.18822  0.36029  1.0000
  N   N32       1.0  0.31906  0.15497  0.36046  1.0000
  C   C38       1.0  0.30122  0.19643  0.36237  1.0000
  C   C39       1.0  0.33474  0.11102  0.36243  1.0000
  C   C40       1.0  0.42015  0.22995  0.36245  1.0000
  H   H35       1.0  0.42465  0.25424  0.36108  1.0000
  H   H36       1.0  0.35453  0.10652  0.36116  1.0000
  H   H37       1.0  0.27693  0.17664  0.36101  1.0000
  C   C41       1.0  0.28561  0.49418  0.38092  1.0000
  C   C42       1.0  0.30238  0.03019  0.39422  1.0000
  N   N33       1.0  0.33131  0.04604  0.44552  1.0000
  H   H38       1.0  0.34007  0.03334  0.47685  1.0000
  H   H39       1.0  0.33783  0.06765  0.47374  1.0000
  N   N34       1.0  0.30262  0.47683  0.39409  1.0000
  H   H40       1.0  0.29212  0.45271  0.38200  1.0000
  H   H41       1.0  0.32707  0.48843  0.39899  1.0000
  C   C43       1.0  0.28739  0.74469  0.36648  1.0000
  C   C44       1.0  0.30393  0.77940  0.33923  1.0000
  C   C45       1.0  0.28470  0.79619  0.32594  1.0000
  N   N35       1.0  0.33828  0.79639  0.32617  1.0000
  H   H42       1.0  0.35196  0.78592  0.33791  1.0000
  H   H43       1.0  0.35115  0.82085  0.32116  1.0000
  N   N36       1.0  0.29776  0.82512  0.27466  1.0000
  H   H44       1.0  0.28275  0.83175  0.24655  1.0000
  H   H45       1.0  0.31923  0.83383  0.24335  1.0000
  N   N37       1.0  0.30596  0.72842  0.36084  1.0000
  C   C46       1.0  0.28647  0.54893  0.36641  1.0000
  N   N38       1.0  0.30275  0.58378  0.36080  1.0000
  N   N39       1.0  0.44740  0.72521  0.36091  1.0000
  C   C47       1.0  0.34295  0.64531  0.36032  1.0000
  N   N40       1.0  0.37620  0.67032  0.36052  1.0000
  C   C48       1.0  0.38586  0.70388  0.36035  1.0000
  N   N41       1.0  0.36085  0.71211  0.36049  1.0000
  C   C49       1.0  0.32730  0.68822  0.36029  1.0000
  N   N42       1.0  0.31906  0.65497  0.36046  1.0000
  C   C50       1.0  0.30123  0.69643  0.36237  1.0000
  C   C51       1.0  0.33474  0.61102  0.36243  1.0000
  C   C52       1.0  0.42015  0.72994  0.36245  1.0000
  H   H46       1.0  0.42465  0.75424  0.36108  1.0000
  H   H47       1.0  0.35453  0.60652  0.36116  1.0000
  H   H48       1.0  0.27693  0.67663  0.36101  1.0000
  C   C53       1.0  0.28561  0.99418  0.38092  1.0000
  C   C54       1.0  0.30238  0.53019  0.39422  1.0000
  N   N43       1.0  0.33131  0.54604  0.44552  1.0000
  H   H49       1.0  0.34007  0.53334  0.47685  1.0000
  H   H50       1.0  0.33783  0.56765  0.47374  1.0000
  N   N44       1.0  0.30262  0.97683  0.39409  1.0000
  H   H51       1.0  0.29212  0.95271  0.38200  1.0000
  H   H52       1.0  0.32707  0.98843  0.39899  1.0000
  C   C55       1.0  0.48224  0.24378  0.36654  1.0000
  C   C56       1.0  0.50042  0.22724  0.33929  1.0000
  N   N45       1.0  0.48304  0.19289  0.32622  1.0000
  H   H53       1.0  0.45890  0.17921  0.33795  1.0000
  H   H54       1.0  0.49464  0.18002  0.32119  1.0000
  C   C57       1.0  0.50098  0.27845  0.39422  1.0000
  N   N46       1.0  0.48511  0.29153  0.44541  1.0000
  H   H55       1.0  0.49780  0.31301  0.47666  1.0000
  H   H56       1.0  0.46351  0.27644  0.47366  1.0000
  C   C58       1.0  0.48224  0.74378  0.36654  1.0000
  C   C59       1.0  0.50042  0.72725  0.33929  1.0000
  N   N47       1.0  0.48304  0.69288  0.32622  1.0000
  H   H57       1.0  0.45891  0.67921  0.33795  1.0000
  H   H58       1.0  0.49464  0.68002  0.32119  1.0000
  C   C60       1.0  0.50098  0.77845  0.39422  1.0000
  N   N48       1.0  0.48511  0.79153  0.44541  1.0000
  H   H59       1.0  0.49780  0.81301  0.47666  1.0000
  H   H60       1.0  0.46351  0.77645  0.47366  1.0000
  C   C61       1.0  0.53643  0.24647  0.32600  1.0000
  N   N49       1.0  0.55229  0.23341  0.27471  1.0000
  H   H61       1.0  0.57393  0.24841  0.24660  1.0000
  H   H62       1.0  0.53954  0.21194  0.24339  1.0000
  C   C62       1.0  0.55516  0.28113  0.35375  1.0000
  C   C63       1.0  0.53700  0.29767  0.38097  1.0000
  N   N50       1.0  0.55437  0.33203  0.39409  1.0000
  H   H63       1.0  0.57852  0.34570  0.38240  1.0000
  H   H64       1.0  0.54278  0.34489  0.39914  1.0000
  C   C64       1.0  0.53643  0.74647  0.32600  1.0000
  N   N51       1.0  0.55229  0.73341  0.27471  1.0000
  H   H65       1.0  0.57393  0.74841  0.24660  1.0000
  H   H66       1.0  0.53954  0.71194  0.24339  1.0000
  C   C65       1.0  0.55516  0.78113  0.35375  1.0000
  C   C66       1.0  0.53699  0.79767  0.38097  1.0000
  N   N52       1.0  0.55437  0.83203  0.39409  1.0000
  H   H67       1.0  0.57852  0.84570  0.38240  1.0000
  H   H68       1.0  0.54278  0.84490  0.39914  1.0000
  C   C67       1.0  0.78739  0.24469  0.36648  1.0000
  C   C68       1.0  0.80392  0.27940  0.33923  1.0000
  C   C69       1.0  0.78470  0.29619  0.32594  1.0000
  N   N53       1.0  0.83828  0.29639  0.32617  1.0000
  H   H69       1.0  0.85196  0.28592  0.33791  1.0000
  H   H70       1.0  0.85114  0.32085  0.32116  1.0000
  N   N54       1.0  0.79776  0.32512  0.27466  1.0000
  H   H71       1.0  0.78276  0.33175  0.24655  1.0000
  H   H72       1.0  0.81923  0.33383  0.24335  1.0000
  N   N55       1.0  0.80596  0.22842  0.36084  1.0000
  C   C70       1.0  0.78647  0.04893  0.36641  1.0000
  C   C71       1.0  0.75177  0.03076  0.33903  1.0000
  C   C72       1.0  0.73499  0.49475  0.32589  1.0000
  N   N56       1.0  0.73482  0.04815  0.32563  1.0000
  H   H73       1.0  0.74529  0.07229  0.33722  1.0000
  H   H74       1.0  0.71036  0.03656  0.32041  1.0000
  N   N57       1.0  0.70611  0.47888  0.27448  1.0000
  H   H75       1.0  0.69919  0.45712  0.24670  1.0000
  H   H76       1.0  0.69707  0.49142  0.24351  1.0000
  N   N58       1.0  0.80275  0.08377  0.36080  1.0000
  C   C73       1.0  0.98224  0.24378  0.36654  1.0000
  C   C74       1.0  0.00042  0.22724  0.33929  1.0000
  N   N59       1.0  0.98304  0.19289  0.32622  1.0000
  H   H77       1.0  0.95891  0.17921  0.33795  1.0000
  H   H78       1.0  0.99464  0.18002  0.32119  1.0000
  N   N60       1.0  0.94740  0.22521  0.36091  1.0000
  C   C75       1.0  0.69444  0.37962  0.35988  1.0000
  N   N61       1.0  0.66119  0.35460  0.35972  1.0000
  C   C76       1.0  0.65154  0.32105  0.35987  1.0000
  N   N62       1.0  0.67657  0.31282  0.35967  1.0000
  C   C77       1.0  0.71012  0.33672  0.35983  1.0000
  N   N63       1.0  0.71835  0.36997  0.35967  1.0000
  C   C78       1.0  0.73619  0.32852  0.35772  1.0000
  C   C79       1.0  0.70264  0.41390  0.35782  1.0000
  C   C80       1.0  0.61726  0.29497  0.35778  1.0000
  H   H79       1.0  0.61277  0.27068  0.35914  1.0000
  H   H80       1.0  0.68284  0.41840  0.35925  1.0000
  H   H81       1.0  0.76049  0.34832  0.35911  1.0000
  C   C81       1.0  0.84295  0.14531  0.36032  1.0000
  N   N64       1.0  0.87620  0.17032  0.36052  1.0000
  C   C82       1.0  0.88586  0.20388  0.36035  1.0000
  N   N65       1.0  0.86085  0.21211  0.36049  1.0000
  C   C83       1.0  0.82729  0.18822  0.36029  1.0000
  N   N66       1.0  0.81906  0.15497  0.36046  1.0000
  C   C84       1.0  0.80122  0.19643  0.36237  1.0000
  C   C85       1.0  0.83474  0.11102  0.36243  1.0000
  C   C86       1.0  0.92014  0.22995  0.36245  1.0000
  H   H82       1.0  0.92465  0.25424  0.36108  1.0000
  H   H83       1.0  0.85453  0.10652  0.36116  1.0000
  H   H84       1.0  0.77693  0.17664  0.36101  1.0000
  C   C87       1.0  0.75004  0.28027  0.35369  1.0000
  C   C88       1.0  0.73350  0.24555  0.38091  1.0000
  C   C89       1.0  0.75272  0.22876  0.39415  1.0000
  N   N67       1.0  0.73964  0.19981  0.44535  1.0000
  H   H85       1.0  0.71817  0.19102  0.47660  1.0000
  H   H86       1.0  0.75473  0.19329  0.47360  1.0000
  N   N68       1.0  0.69914  0.22857  0.39402  1.0000
  H   H87       1.0  0.68547  0.23904  0.38234  1.0000
  H   H88       1.0  0.68627  0.20411  0.39907  1.0000
  N   N69       1.0  0.73146  0.29653  0.35929  1.0000
  C   C90       1.0  0.75090  0.47600  0.35364  1.0000
  C   C91       1.0  0.78561  0.49418  0.38092  1.0000
  C   C92       1.0  0.80238  0.03019  0.39422  1.0000
  N   N70       1.0  0.83131  0.04604  0.44552  1.0000
  H   H89       1.0  0.84007  0.03334  0.47685  1.0000
  H   H90       1.0  0.83783  0.06765  0.47374  1.0000
  N   N71       1.0  0.80262  0.47683  0.39409  1.0000
  H   H91       1.0  0.79212  0.45271  0.38200  1.0000
  H   H92       1.0  0.82707  0.48843  0.39899  1.0000
  N   N72       1.0  0.73463  0.44116  0.35929  1.0000
  C   C93       1.0  0.00098  0.27845  0.39422  1.0000
  N   N73       1.0  0.98511  0.29153  0.44541  1.0000
  H   H93       1.0  0.99780  0.31301  0.47666  1.0000
  H   H94       1.0  0.96351  0.27644  0.47366  1.0000
  N   N74       1.0  0.59001  0.29970  0.35934  1.0000
  C   C94       1.0  0.78739  0.74469  0.36648  1.0000
  C   C95       1.0  0.80393  0.77940  0.33923  1.0000
  C   C96       1.0  0.78470  0.79619  0.32594  1.0000
  N   N75       1.0  0.83829  0.79639  0.32617  1.0000
  H   H95       1.0  0.85196  0.78592  0.33791  1.0000
  H   H96       1.0  0.85114  0.82085  0.32116  1.0000
  N   N76       1.0  0.79776  0.82512  0.27466  1.0000
  H   H97       1.0  0.78276  0.83175  0.24655  1.0000
  H   H98       1.0  0.81923  0.83383  0.24335  1.0000
  N   N77       1.0  0.80596  0.72842  0.36084  1.0000
  C   C97       1.0  0.78647  0.54893  0.36641  1.0000
  C   C98       1.0  0.75177  0.53076  0.33903  1.0000
  C   C99       1.0  0.73499  0.99475  0.32589  1.0000
  N   N78       1.0  0.73482  0.54815  0.32563  1.0000
  H   H99       1.0  0.74529  0.57229  0.33722  1.0000
  H   H100      1.0  0.71036  0.53656  0.32041  1.0000
  N   N79       1.0  0.70611  0.97888  0.27448  1.0000
  H   H101      1.0  0.69919  0.95712  0.24670  1.0000
  H   H102      1.0  0.69707  0.99142  0.24351  1.0000
  N   N80       1.0  0.80275  0.58378  0.36080  1.0000
  C   C100      1.0  0.98224  0.74378  0.36654  1.0000
  C   C101      1.0  0.00042  0.72725  0.33929  1.0000
  N   N81       1.0  0.98304  0.69288  0.32622  1.0000
  H   H103      1.0  0.95890  0.67921  0.33795  1.0000
  H   H104      1.0  0.99464  0.68002  0.32119  1.0000
  N   N82       1.0  0.94740  0.72521  0.36091  1.0000
  C   C102      1.0  0.69444  0.87962  0.35988  1.0000
  N   N83       1.0  0.66120  0.85460  0.35972  1.0000
  C   C103      1.0  0.65155  0.82105  0.35987  1.0000
  N   N84       1.0  0.67657  0.81282  0.35967  1.0000
  C   C104      1.0  0.71012  0.83672  0.35983  1.0000
  N   N85       1.0  0.71835  0.86997  0.35967  1.0000
  C   C105      1.0  0.73620  0.82852  0.35772  1.0000
  C   C106      1.0  0.70264  0.91390  0.35782  1.0000
  C   C107      1.0  0.61727  0.79497  0.35778  1.0000
  H   H105      1.0  0.61277  0.77068  0.35914  1.0000
  H   H106      1.0  0.68285  0.91839  0.35925  1.0000
  H   H107      1.0  0.76049  0.84832  0.35911  1.0000
  C   C108      1.0  0.84295  0.64531  0.36032  1.0000
  N   N86       1.0  0.87620  0.67032  0.36052  1.0000
  C   C109      1.0  0.88586  0.70388  0.36035  1.0000
  N   N87       1.0  0.86085  0.71211  0.36049  1.0000
  C   C110      1.0  0.82730  0.68822  0.36029  1.0000
  N   N88       1.0  0.81906  0.65497  0.36046  1.0000
  C   C111      1.0  0.80122  0.69643  0.36237  1.0000
  C   C112      1.0  0.83474  0.61102  0.36243  1.0000
  C   C113      1.0  0.92015  0.72994  0.36245  1.0000
  H   H108      1.0  0.92465  0.75424  0.36108  1.0000
  H   H109      1.0  0.85453  0.60652  0.36116  1.0000
  H   H110      1.0  0.77693  0.67663  0.36101  1.0000
  C   C114      1.0  0.75004  0.78027  0.35369  1.0000
  C   C115      1.0  0.73350  0.74555  0.38091  1.0000
  C   C116      1.0  0.75272  0.72876  0.39415  1.0000
  N   N89       1.0  0.73964  0.69981  0.44535  1.0000
  H   H111      1.0  0.71816  0.69102  0.47660  1.0000
  H   H112      1.0  0.75473  0.69329  0.47360  1.0000
  N   N90       1.0  0.69914  0.72857  0.39402  1.0000
  H   H113      1.0  0.68547  0.73904  0.38234  1.0000
  H   H114      1.0  0.68627  0.70411  0.39907  1.0000
  N   N91       1.0  0.73147  0.79653  0.35929  1.0000
  C   C117      1.0  0.75090  0.97600  0.35364  1.0000
  C   C118      1.0  0.78561  0.99418  0.38092  1.0000
  C   C119      1.0  0.80238  0.53019  0.39422  1.0000
  N   N92       1.0  0.83131  0.54604  0.44552  1.0000
  H   H115      1.0  0.84007  0.53334  0.47685  1.0000
  H   H116      1.0  0.83783  0.56765  0.47374  1.0000
  N   N93       1.0  0.80262  0.97683  0.39409  1.0000
  H   H117      1.0  0.79212  0.95271  0.38200  1.0000
  H   H118      1.0  0.82707  0.98843  0.39899  1.0000
  N   N94       1.0  0.73463  0.94116  0.35929  1.0000
  C   C120      1.0  0.00098  0.77845  0.39422  1.0000
  N   N95       1.0  0.98511  0.79153  0.44541  1.0000
  H   H119      1.0  0.99780  0.81301  0.47666  1.0000
  H   H120      1.0  0.96351  0.77645  0.47366  1.0000
  N   N96       1.0  0.59001  0.79970  0.35934  1.0000
