data_image0
_chemical_formula_structural       C2NHCHC2NHCH3CNC4H2C2H2CNC4H2C2H2N3HC7N3HC10NH3C6N2H4C6N2H4N8C3H2C3H2C3H2C3H2C3H2C3H2C8H4C2H2C8H4C8H4C8H4C3NH3C6N2H4C6N2H4N8C3H2C3H2C3H2C3H2C3H2C3H2C8H4C2H2C8H4C8H4C8H4C6N2H3C6N2H4C6N2H4N12C3H2C3H2C3H2C3H2C3H2C3H2C8H4C8H4C8H4C8H4C8H4C8H4C6N2H3C6N2H4C6N2H4N12C3H2C3H2C3H2C3H2C3H2C3H2C8H4C8H4C8H4C8H4C8H4C8H4
_chemical_formula_sum              "C336 N72 H192"
_cell_length_a       46.0758
_cell_length_b       46.0758
_cell_length_c       14.9087
_cell_angle_alpha    90
_cell_angle_beta     90
_cell_angle_gamma    120

_space_group_name_H-M_alt    "P 1"
_space_group_IT_number       1

loop_
  _space_group_symop_operation_xyz
  'x, y, z'

loop_
  _atom_site_type_symbol
  _atom_site_label
  _atom_site_symmetry_multiplicity
  _atom_site_fract_x
  _atom_site_fract_y
  _atom_site_fract_z
  _atom_site_occupancy
  C   C1        1.0  0.02276  0.26234  0.31046  1.0000
  C   C2        1.0  0.04289  0.29841  0.30186  1.0000
  N   N1        1.0  0.03185  0.31634  0.25452  1.0000
  H   H1        1.0  0.04569  0.34036  0.24550  1.0000
  C   C3        1.0  0.04099  0.24556  0.33171  1.0000
  H   H2        1.0  0.02897  0.22038  0.34264  1.0000
  C   C4        1.0  0.02276  0.76234  0.31046  1.0000
  C   C5        1.0  0.04290  0.79841  0.30186  1.0000
  N   N2        1.0  0.03185  0.81634  0.25452  1.0000
  H   H3        1.0  0.04569  0.84036  0.24550  1.0000
  C   C6        1.0  0.04099  0.74556  0.33171  1.0000
  H   H4        1.0  0.02897  0.72038  0.34264  1.0000
  H   H5        1.0  0.01273  0.30497  0.21453  1.0000
  H   H6        1.0  0.01273  0.80497  0.21453  1.0000
  C   C7        1.0  0.07601  0.31595  0.33872  1.0000
  N   N3        1.0  0.10996  0.24531  0.28143  1.0000
  C   C8        1.0  0.09198  0.29743  0.35901  1.0000
  C   C9        1.0  0.07567  0.26251  0.34920  1.0000
  C   C10       1.0  0.09492  0.24655  0.35869  1.0000
  C   C11       1.0  0.09983  0.25203  0.52400  1.0000
  H   H7        1.0  0.07766  0.25199  0.52863  1.0000
  H   H8        1.0  0.10791  0.25666  0.66393  1.0000
  C   C12       1.0  0.09621  0.35111  0.35159  1.0000
  C   C13       1.0  0.09692  0.34785  0.51773  1.0000
  H   H9        1.0  0.10188  0.34835  0.65860  1.0000
  H   H10       1.0  0.07442  0.32596  0.51805  1.0000
  C   C14       1.0  0.07601  0.81595  0.33872  1.0000
  N   N4        1.0  0.10996  0.74531  0.28143  1.0000
  C   C15       1.0  0.09198  0.79743  0.35901  1.0000
  C   C16       1.0  0.07567  0.76252  0.34920  1.0000
  C   C17       1.0  0.09492  0.74655  0.35869  1.0000
  C   C18       1.0  0.09983  0.75203  0.52400  1.0000
  H   H11       1.0  0.07766  0.75199  0.52863  1.0000
  H   H12       1.0  0.10791  0.75666  0.66393  1.0000
  C   C19       1.0  0.09621  0.85111  0.35159  1.0000
  C   C20       1.0  0.09692  0.84785  0.51773  1.0000
  H   H13       1.0  0.10188  0.84835  0.65860  1.0000
  H   H14       1.0  0.07442  0.82596  0.51805  1.0000
  N   N5        1.0  0.13842  0.24548  0.27764  1.0000
  N   N6        1.0  0.14138  0.39721  0.28106  1.0000
  N   N7        1.0  0.11302  0.36882  0.27773  1.0000
  H   H15       1.0  0.11695  0.30991  0.37600  1.0000
  C   C21       1.0  0.14316  0.24870  0.43600  1.0000
  C   C22       1.0  0.11227  0.24891  0.43967  1.0000
  C   C23       1.0  0.11728  0.25462  0.60357  1.0000
  C   C24       1.0  0.11147  0.36474  0.43610  1.0000
  C   C25       1.0  0.14263  0.39557  0.43920  1.0000
  C   C26       1.0  0.14346  0.39094  0.60321  1.0000
  C   C27       1.0  0.11275  0.36082  0.60041  1.0000
  N   N8        1.0  0.13842  0.74548  0.27764  1.0000
  N   N9        1.0  0.14138  0.89721  0.28106  1.0000
  N   N10       1.0  0.11302  0.86882  0.27773  1.0000
  H   H16       1.0  0.11695  0.80991  0.37600  1.0000
  C   C28       1.0  0.14316  0.74870  0.43600  1.0000
  C   C29       1.0  0.11227  0.74891  0.43967  1.0000
  C   C30       1.0  0.11728  0.75462  0.60357  1.0000
  C   C31       1.0  0.11147  0.86474  0.43610  1.0000
  C   C32       1.0  0.14263  0.89557  0.43920  1.0000
  C   C33       1.0  0.14346  0.89094  0.60321  1.0000
  C   C34       1.0  0.11275  0.86082  0.60041  1.0000
  C   C35       1.0  0.48632  0.24365  0.31045  1.0000
  C   C36       1.0  0.43299  0.19006  0.33820  1.0000
  C   C37       1.0  0.46617  0.20758  0.30170  1.0000
  N   N11       1.0  0.47729  0.18965  0.25464  1.0000
  H   H17       1.0  0.99629  0.20109  0.21435  1.0000
  H   H18       1.0  0.46321  0.16570  0.24492  1.0000
  H   H19       1.0  0.51273  0.30497  0.21453  1.0000
  C   C38       1.0  0.26388  0.24418  0.31093  1.0000
  C   C39       1.0  0.31744  0.24434  0.33817  1.0000
  C   C40       1.0  0.29994  0.26004  0.30182  1.0000
  C   C41       1.0  0.24524  0.26196  0.31089  1.0000
  C   C42       1.0  0.20917  0.24610  0.30191  1.0000
  C   C43       1.0  0.19169  0.26180  0.33834  1.0000
  N   N12       1.0  0.31785  0.28909  0.25476  1.0000
  N   N13       1.0  0.19123  0.21709  0.25478  1.0000
  H   H20       1.0  0.30640  0.29670  0.21466  1.0000
  H   H21       1.0  0.34180  0.29894  0.24490  1.0000
  H   H22       1.0  0.16722  0.20695  0.24555  1.0000
  H   H23       1.0  0.20259  0.20924  0.21505  1.0000
  C   C44       1.0  0.26351  0.02127  0.31116  1.0000
  C   C45       1.0  0.26335  0.07469  0.33808  1.0000
  C   C46       1.0  0.24762  0.04144  0.30209  1.0000
  C   C47       1.0  0.24576  0.48484  0.31117  1.0000
  C   C48       1.0  0.26167  0.46469  0.30193  1.0000
  C   C49       1.0  0.24589  0.43137  0.33750  1.0000
  N   N14       1.0  0.21853  0.03029  0.25521  1.0000
  N   N15       1.0  0.29079  0.47590  0.25516  1.0000
  H   H24       1.0  0.21087  0.51117  0.21527  1.0000
  H   H25       1.0  0.20855  0.04426  0.24541  1.0000
  H   H26       1.0  0.30060  0.46179  0.24493  1.0000
  H   H27       1.0  0.29837  0.99498  0.21516  1.0000
  N   N16       1.0  0.26200  0.36602  0.28126  1.0000
  N   N17       1.0  0.26182  0.39430  0.27723  1.0000
  N   N18       1.0  0.39910  0.26074  0.28105  1.0000
  N   N19       1.0  0.37066  0.26062  0.27736  1.0000
  N   N20       1.0  0.24694  0.13998  0.28153  1.0000
  N   N21       1.0  0.24717  0.11173  0.27748  1.0000
  N   N22       1.0  0.36762  0.10865  0.28135  1.0000
  N   N23       1.0  0.39593  0.13710  0.27776  1.0000
  C   C50       1.0  0.46810  0.26044  0.33173  1.0000
  C   C51       1.0  0.43338  0.24351  0.34867  1.0000
  C   C52       1.0  0.41703  0.20859  0.35842  1.0000
  H   H28       1.0  0.48013  0.28562  0.34261  1.0000
  H   H29       1.0  0.39203  0.19611  0.37510  1.0000
  C   C53       1.0  0.24705  0.20918  0.33235  1.0000
  C   C54       1.0  0.26393  0.19132  0.34873  1.0000
  C   C55       1.0  0.29887  0.20982  0.35809  1.0000
  H   H30       1.0  0.22187  0.19610  0.34353  1.0000
  H   H31       1.0  0.31131  0.19726  0.37473  1.0000
  C   C56       1.0  0.21026  0.29634  0.35807  1.0000
  C   C57       1.0  0.24519  0.31484  0.34854  1.0000
  C   C58       1.0  0.26207  0.29696  0.33230  1.0000
  H   H32       1.0  0.19783  0.30891  0.37472  1.0000
  H   H33       1.0  0.28724  0.31004  0.34346  1.0000
  C   C59       1.0  0.29851  0.03947  0.33254  1.0000
  C   C60       1.0  0.31638  0.07424  0.34862  1.0000
  C   C61       1.0  0.29788  0.09069  0.35782  1.0000
  H   H34       1.0  0.31158  0.02739  0.34409  1.0000
  H   H35       1.0  0.31045  0.11571  0.37424  1.0000
  C   C62       1.0  0.21135  0.41534  0.35713  1.0000
  C   C63       1.0  0.19287  0.43181  0.34813  1.0000
  C   C64       1.0  0.21075  0.46661  0.33246  1.0000
  H   H36       1.0  0.19880  0.39031  0.37344  1.0000
  H   H37       1.0  0.19765  0.47868  0.34381  1.0000
  C   C65       1.0  0.15653  0.24693  0.35112  1.0000
  C   C66       1.0  0.14745  0.25413  0.60029  1.0000
  C   C67       1.0  0.16026  0.25122  0.51740  1.0000
  H   H38       1.0  0.16007  0.25585  0.65827  1.0000
  H   H39       1.0  0.18217  0.25065  0.51742  1.0000
  C   C68       1.0  0.26090  0.41124  0.35075  1.0000
  C   C69       1.0  0.25931  0.39626  0.43568  1.0000
  C   C70       1.0  0.25910  0.36517  0.43945  1.0000
  C   C71       1.0  0.26133  0.35003  0.35868  1.0000
  C   C72       1.0  0.25604  0.34967  0.52382  1.0000
  C   C73       1.0  0.25351  0.36459  0.60334  1.0000
  C   C74       1.0  0.25400  0.39525  0.59994  1.0000
  C   C75       1.0  0.25686  0.41092  0.51698  1.0000
  H   H40       1.0  0.25605  0.32752  0.52849  1.0000
  H   H41       1.0  0.25150  0.35323  0.66375  1.0000
  H   H42       1.0  0.25231  0.40619  0.65788  1.0000
  H   H43       1.0  0.25737  0.43337  0.51685  1.0000
  C   C76       1.0  0.15767  0.41267  0.35797  1.0000
  C   C77       1.0  0.15828  0.40817  0.52335  1.0000
  H   H44       1.0  0.18048  0.43030  0.52761  1.0000
  H   H45       1.0  0.15495  0.40042  0.66342  1.0000
  C   C78       1.0  0.35261  0.25921  0.35090  1.0000
  C   C79       1.0  0.36601  0.25744  0.43573  1.0000
  C   C80       1.0  0.39687  0.25719  0.43929  1.0000
  C   C81       1.0  0.41417  0.25952  0.35825  1.0000
  C   C82       1.0  0.40932  0.25405  0.52358  1.0000
  C   C83       1.0  0.39192  0.25149  0.60321  1.0000
  C   C84       1.0  0.36178  0.25203  0.60003  1.0000
  C   C85       1.0  0.34895  0.25496  0.51718  1.0000
  H   H46       1.0  0.43150  0.25408  0.52813  1.0000
  H   H47       1.0  0.40131  0.24946  0.66354  1.0000
  H   H48       1.0  0.34919  0.25034  0.65805  1.0000
  H   H49       1.0  0.32705  0.25556  0.51726  1.0000
  C   C86       1.0  0.24843  0.09493  0.35087  1.0000
  C   C87       1.0  0.25006  0.10997  0.43581  1.0000
  C   C88       1.0  0.25021  0.14103  0.43955  1.0000
  C   C89       1.0  0.24785  0.15613  0.35883  1.0000
  C   C90       1.0  0.25331  0.15655  0.52390  1.0000
  C   C91       1.0  0.25590  0.14168  0.60344  1.0000
  C   C92       1.0  0.25544  0.11104  0.60009  1.0000
  C   C93       1.0  0.25257  0.09535  0.51717  1.0000
  H   H50       1.0  0.25325  0.17868  0.52856  1.0000
  H   H51       1.0  0.25793  0.15307  0.66383  1.0000
  H   H52       1.0  0.25717  0.10013  0.65805  1.0000
  H   H53       1.0  0.25205  0.07290  0.51712  1.0000
  C   C94       1.0  0.41283  0.15491  0.35143  1.0000
  C   C95       1.0  0.39770  0.14139  0.43615  1.0000
  C   C96       1.0  0.36659  0.11052  0.43969  1.0000
  C   C97       1.0  0.35159  0.09333  0.35864  1.0000
  C   C98       1.0  0.35102  0.09801  0.52395  1.0000
  C   C99       1.0  0.36589  0.11539  0.60359  1.0000
  C   C100      1.0  0.39656  0.14555  0.60043  1.0000
  C   C101      1.0  0.41230  0.15842  0.51759  1.0000
  H   H54       1.0  0.32886  0.07586  0.52843  1.0000
  H   H55       1.0  0.35447  0.10598  0.66393  1.0000
  H   H56       1.0  0.40746  0.15813  0.65847  1.0000
  H   H57       1.0  0.43476  0.18035  0.51765  1.0000
  C   C102      1.0  0.48632  0.74365  0.31045  1.0000
  C   C103      1.0  0.43299  0.69006  0.33820  1.0000
  C   C104      1.0  0.46617  0.70758  0.30170  1.0000
  N   N24       1.0  0.47729  0.68965  0.25464  1.0000
  H   H58       1.0  0.99630  0.70110  0.21435  1.0000
  H   H59       1.0  0.46321  0.66570  0.24492  1.0000
  H   H60       1.0  0.51273  0.80497  0.21453  1.0000
  C   C105      1.0  0.26388  0.74418  0.31093  1.0000
  C   C106      1.0  0.31744  0.74434  0.33817  1.0000
  C   C107      1.0  0.29994  0.76004  0.30182  1.0000
  C   C108      1.0  0.24524  0.76196  0.31089  1.0000
  C   C109      1.0  0.20917  0.74610  0.30191  1.0000
  C   C110      1.0  0.19169  0.76180  0.33834  1.0000
  N   N25       1.0  0.31785  0.78909  0.25476  1.0000
  N   N26       1.0  0.19123  0.71709  0.25478  1.0000
  H   H61       1.0  0.30640  0.79670  0.21466  1.0000
  H   H62       1.0  0.34180  0.79894  0.24490  1.0000
  H   H63       1.0  0.16722  0.70695  0.24555  1.0000
  H   H64       1.0  0.20259  0.70924  0.21505  1.0000
  C   C111      1.0  0.26351  0.52127  0.31116  1.0000
  C   C112      1.0  0.26335  0.57469  0.33808  1.0000
  C   C113      1.0  0.24762  0.54144  0.30209  1.0000
  C   C114      1.0  0.24576  0.98484  0.31117  1.0000
  C   C115      1.0  0.26167  0.96469  0.30193  1.0000
  C   C116      1.0  0.24589  0.93137  0.33750  1.0000
  N   N27       1.0  0.21854  0.53029  0.25521  1.0000
  N   N28       1.0  0.29079  0.97590  0.25516  1.0000
  H   H65       1.0  0.21087  0.01117  0.21527  1.0000
  H   H66       1.0  0.20855  0.54426  0.24541  1.0000
  H   H67       1.0  0.30060  0.96179  0.24493  1.0000
  H   H68       1.0  0.29837  0.49498  0.21516  1.0000
  N   N29       1.0  0.26200  0.86602  0.28126  1.0000
  N   N30       1.0  0.26182  0.89430  0.27723  1.0000
  N   N31       1.0  0.39910  0.76074  0.28105  1.0000
  N   N32       1.0  0.37066  0.76062  0.27736  1.0000
  N   N33       1.0  0.24694  0.63998  0.28153  1.0000
  N   N34       1.0  0.24717  0.61173  0.27748  1.0000
  N   N35       1.0  0.36762  0.60865  0.28135  1.0000
  N   N36       1.0  0.39593  0.63710  0.27776  1.0000
  C   C117      1.0  0.46810  0.76043  0.33173  1.0000
  C   C118      1.0  0.43338  0.74351  0.34867  1.0000
  C   C119      1.0  0.41703  0.70859  0.35842  1.0000
  H   H69       1.0  0.48013  0.78562  0.34261  1.0000
  H   H70       1.0  0.39203  0.69611  0.37510  1.0000
  C   C120      1.0  0.24705  0.70918  0.33235  1.0000
  C   C121      1.0  0.26393  0.69132  0.34873  1.0000
  C   C122      1.0  0.29887  0.70982  0.35809  1.0000
  H   H71       1.0  0.22187  0.69610  0.34353  1.0000
  H   H72       1.0  0.31131  0.69726  0.37473  1.0000
  C   C123      1.0  0.21026  0.79634  0.35807  1.0000
  C   C124      1.0  0.24519  0.81484  0.34854  1.0000
  C   C125      1.0  0.26207  0.79696  0.33230  1.0000
  H   H73       1.0  0.19783  0.80891  0.37472  1.0000
  H   H74       1.0  0.28724  0.81004  0.34346  1.0000
  C   C126      1.0  0.29851  0.53947  0.33254  1.0000
  C   C127      1.0  0.31638  0.57424  0.34862  1.0000
  C   C128      1.0  0.29788  0.59069  0.35782  1.0000
  H   H75       1.0  0.31158  0.52739  0.34409  1.0000
  H   H76       1.0  0.31045  0.61571  0.37424  1.0000
  C   C129      1.0  0.21135  0.91534  0.35713  1.0000
  C   C130      1.0  0.19287  0.93181  0.34813  1.0000
  C   C131      1.0  0.21075  0.96661  0.33246  1.0000
  H   H77       1.0  0.19880  0.89031  0.37344  1.0000
  H   H78       1.0  0.19765  0.97867  0.34381  1.0000
  C   C132      1.0  0.15652  0.74694  0.35112  1.0000
  C   C133      1.0  0.14745  0.75413  0.60029  1.0000
  C   C134      1.0  0.16026  0.75121  0.51740  1.0000
  H   H79       1.0  0.16007  0.75585  0.65827  1.0000
  H   H80       1.0  0.18217  0.75065  0.51742  1.0000
  C   C135      1.0  0.26090  0.91124  0.35075  1.0000
  C   C136      1.0  0.25931  0.89625  0.43568  1.0000
  C   C137      1.0  0.25910  0.86516  0.43945  1.0000
  C   C138      1.0  0.26133  0.85004  0.35868  1.0000
  C   C139      1.0  0.25604  0.84966  0.52382  1.0000
  C   C140      1.0  0.25351  0.86459  0.60334  1.0000
  C   C141      1.0  0.25400  0.89525  0.59994  1.0000
  C   C142      1.0  0.25686  0.91092  0.51698  1.0000
  H   H81       1.0  0.25605  0.82752  0.52849  1.0000
  H   H82       1.0  0.25150  0.85323  0.66375  1.0000
  H   H83       1.0  0.25231  0.90619  0.65788  1.0000
  H   H84       1.0  0.25737  0.93337  0.51685  1.0000
  C   C143      1.0  0.15767  0.91267  0.35797  1.0000
  C   C144      1.0  0.15828  0.90817  0.52335  1.0000
  H   H85       1.0  0.18048  0.93030  0.52761  1.0000
  H   H86       1.0  0.15495  0.90043  0.66342  1.0000
  C   C145      1.0  0.35261  0.75921  0.35090  1.0000
  C   C146      1.0  0.36601  0.75744  0.43573  1.0000
  C   C147      1.0  0.39687  0.75719  0.43929  1.0000
  C   C148      1.0  0.41417  0.75952  0.35825  1.0000
  C   C149      1.0  0.40932  0.75405  0.52358  1.0000
  C   C150      1.0  0.39192  0.75149  0.60321  1.0000
  C   C151      1.0  0.36178  0.75203  0.60003  1.0000
  C   C152      1.0  0.34895  0.75496  0.51718  1.0000
  H   H87       1.0  0.43150  0.75408  0.52813  1.0000
  H   H88       1.0  0.40131  0.74947  0.66354  1.0000
  H   H89       1.0  0.34919  0.75035  0.65805  1.0000
  H   H90       1.0  0.32705  0.75556  0.51726  1.0000
  C   C153      1.0  0.24843  0.59493  0.35087  1.0000
  C   C154      1.0  0.25007  0.60997  0.43581  1.0000
  C   C155      1.0  0.25021  0.64103  0.43955  1.0000
  C   C156      1.0  0.24785  0.65613  0.35883  1.0000
  C   C157      1.0  0.25331  0.65655  0.52390  1.0000
  C   C158      1.0  0.25590  0.64168  0.60344  1.0000
  C   C159      1.0  0.25544  0.61104  0.60009  1.0000
  C   C160      1.0  0.25257  0.59535  0.51717  1.0000
  H   H91       1.0  0.25325  0.67868  0.52856  1.0000
  H   H92       1.0  0.25793  0.65307  0.66383  1.0000
  H   H93       1.0  0.25717  0.60013  0.65805  1.0000
  H   H94       1.0  0.25205  0.57290  0.51712  1.0000
  C   C161      1.0  0.41283  0.65491  0.35143  1.0000
  C   C162      1.0  0.39770  0.64139  0.43615  1.0000
  C   C163      1.0  0.36659  0.61052  0.43969  1.0000
  C   C164      1.0  0.35159  0.59333  0.35864  1.0000
  C   C165      1.0  0.35102  0.59801  0.52395  1.0000
  C   C166      1.0  0.36589  0.61539  0.60359  1.0000
  C   C167      1.0  0.39656  0.64555  0.60043  1.0000
  C   C168      1.0  0.41230  0.65842  0.51759  1.0000
  H   H95       1.0  0.32886  0.57586  0.52843  1.0000
  H   H96       1.0  0.35447  0.60598  0.66393  1.0000
  H   H97       1.0  0.40746  0.65813  0.65847  1.0000
  H   H98       1.0  0.43476  0.68035  0.51765  1.0000
  C   C169      1.0  0.98632  0.24365  0.31045  1.0000
  C   C170      1.0  0.93299  0.19006  0.33820  1.0000
  C   C171      1.0  0.96617  0.20758  0.30170  1.0000
  C   C172      1.0  0.52276  0.26234  0.31046  1.0000
  C   C173      1.0  0.54290  0.29841  0.30186  1.0000
  C   C174      1.0  0.57602  0.31595  0.33872  1.0000
  N   N37       1.0  0.97729  0.18965  0.25464  1.0000
  N   N38       1.0  0.53185  0.31634  0.25452  1.0000
  H   H99       1.0  0.49629  0.20109  0.21435  1.0000
  H   H100      1.0  0.96321  0.16570  0.24492  1.0000
  H   H101      1.0  0.54568  0.34036  0.24550  1.0000
  C   C175      1.0  0.76388  0.24418  0.31093  1.0000
  C   C176      1.0  0.81744  0.24434  0.33817  1.0000
  C   C177      1.0  0.79994  0.26004  0.30182  1.0000
  C   C178      1.0  0.74524  0.26196  0.31089  1.0000
  C   C179      1.0  0.70918  0.24610  0.30191  1.0000
  C   C180      1.0  0.69169  0.26180  0.33834  1.0000
  N   N39       1.0  0.81785  0.28909  0.25476  1.0000
  N   N40       1.0  0.69123  0.21709  0.25478  1.0000
  H   H102      1.0  0.80640  0.29670  0.21466  1.0000
  H   H103      1.0  0.84180  0.29894  0.24490  1.0000
  H   H104      1.0  0.66722  0.20695  0.24555  1.0000
  H   H105      1.0  0.70259  0.20924  0.21505  1.0000
  C   C181      1.0  0.76351  0.02127  0.31116  1.0000
  C   C182      1.0  0.76335  0.07469  0.33808  1.0000
  C   C183      1.0  0.74762  0.04144  0.30209  1.0000
  C   C184      1.0  0.74576  0.48484  0.31117  1.0000
  C   C185      1.0  0.76167  0.46469  0.30193  1.0000
  C   C186      1.0  0.74589  0.43137  0.33750  1.0000
  N   N41       1.0  0.71853  0.03029  0.25521  1.0000
  N   N42       1.0  0.79079  0.47590  0.25516  1.0000
  H   H106      1.0  0.71087  0.51117  0.21527  1.0000
  H   H107      1.0  0.70855  0.04426  0.24541  1.0000
  H   H108      1.0  0.80060  0.46179  0.24493  1.0000
  H   H109      1.0  0.79837  0.99498  0.21516  1.0000
  N   N43       1.0  0.60996  0.24531  0.28143  1.0000
  N   N44       1.0  0.63842  0.24548  0.27764  1.0000
  N   N45       1.0  0.76200  0.36602  0.28126  1.0000
  N   N46       1.0  0.76182  0.39430  0.27723  1.0000
  N   N47       1.0  0.64138  0.39721  0.28106  1.0000
  N   N48       1.0  0.61302  0.36882  0.27773  1.0000
  N   N49       1.0  0.89910  0.26074  0.28105  1.0000
  N   N50       1.0  0.87066  0.26062  0.27736  1.0000
  N   N51       1.0  0.74694  0.13998  0.28153  1.0000
  N   N52       1.0  0.74717  0.11173  0.27748  1.0000
  N   N53       1.0  0.86762  0.10865  0.28135  1.0000
  N   N54       1.0  0.89593  0.13710  0.27776  1.0000
  C   C187      1.0  0.96810  0.26044  0.33173  1.0000
  C   C188      1.0  0.93338  0.24351  0.34867  1.0000
  C   C189      1.0  0.91703  0.20859  0.35842  1.0000
  H   H110      1.0  0.98013  0.28562  0.34261  1.0000
  H   H111      1.0  0.89203  0.19611  0.37510  1.0000
  C   C190      1.0  0.59199  0.29743  0.35901  1.0000
  C   C191      1.0  0.57567  0.26251  0.34920  1.0000
  C   C192      1.0  0.54099  0.24556  0.33171  1.0000
  H   H112      1.0  0.61696  0.30991  0.37600  1.0000
  H   H113      1.0  0.52897  0.22038  0.34264  1.0000
  C   C193      1.0  0.74705  0.20918  0.33235  1.0000
  C   C194      1.0  0.76394  0.19132  0.34873  1.0000
  C   C195      1.0  0.79887  0.20982  0.35809  1.0000
  H   H114      1.0  0.72187  0.19610  0.34353  1.0000
  H   H115      1.0  0.81131  0.19726  0.37473  1.0000
  C   C196      1.0  0.71026  0.29634  0.35807  1.0000
  C   C197      1.0  0.74519  0.31484  0.34854  1.0000
  C   C198      1.0  0.76207  0.29696  0.33230  1.0000
  H   H116      1.0  0.69783  0.30891  0.37472  1.0000
  H   H117      1.0  0.78724  0.31004  0.34346  1.0000
  C   C199      1.0  0.79851  0.03947  0.33254  1.0000
  C   C200      1.0  0.81638  0.07424  0.34862  1.0000
  C   C201      1.0  0.79788  0.09069  0.35782  1.0000
  H   H118      1.0  0.81158  0.02739  0.34409  1.0000
  H   H119      1.0  0.81045  0.11571  0.37424  1.0000
  C   C202      1.0  0.71135  0.41534  0.35713  1.0000
  C   C203      1.0  0.69287  0.43181  0.34813  1.0000
  C   C204      1.0  0.71075  0.46661  0.33246  1.0000
  H   H120      1.0  0.69880  0.39031  0.37344  1.0000
  H   H121      1.0  0.69765  0.47868  0.34381  1.0000
  C   C205      1.0  0.65653  0.24693  0.35112  1.0000
  C   C206      1.0  0.64316  0.24870  0.43600  1.0000
  C   C207      1.0  0.61227  0.24891  0.43967  1.0000
  C   C208      1.0  0.59492  0.24655  0.35869  1.0000
  C   C209      1.0  0.59984  0.25203  0.52400  1.0000
  C   C210      1.0  0.61728  0.25462  0.60357  1.0000
  C   C211      1.0  0.64745  0.25413  0.60029  1.0000
  C   C212      1.0  0.66026  0.25122  0.51740  1.0000
  H   H122      1.0  0.57766  0.25199  0.52863  1.0000
  H   H123      1.0  0.60791  0.25666  0.66393  1.0000
  H   H124      1.0  0.66007  0.25585  0.65827  1.0000
  H   H125      1.0  0.68217  0.25065  0.51742  1.0000
  C   C213      1.0  0.76091  0.41124  0.35075  1.0000
  C   C214      1.0  0.75931  0.39626  0.43568  1.0000
  C   C215      1.0  0.75910  0.36517  0.43945  1.0000
  C   C216      1.0  0.76133  0.35003  0.35868  1.0000
  C   C217      1.0  0.75604  0.34967  0.52382  1.0000
  C   C218      1.0  0.75351  0.36459  0.60334  1.0000
  C   C219      1.0  0.75401  0.39525  0.59994  1.0000
  C   C220      1.0  0.75686  0.41092  0.51698  1.0000
  H   H126      1.0  0.75604  0.32752  0.52849  1.0000
  H   H127      1.0  0.75150  0.35323  0.66375  1.0000
  H   H128      1.0  0.75231  0.40619  0.65788  1.0000
  H   H129      1.0  0.75737  0.43337  0.51685  1.0000
  C   C221      1.0  0.59622  0.35111  0.35159  1.0000
  C   C222      1.0  0.61147  0.36474  0.43610  1.0000
  C   C223      1.0  0.64263  0.39557  0.43920  1.0000
  C   C224      1.0  0.65767  0.41267  0.35797  1.0000
  C   C225      1.0  0.65828  0.40817  0.52335  1.0000
  C   C226      1.0  0.64346  0.39094  0.60321  1.0000
  C   C227      1.0  0.61275  0.36082  0.60041  1.0000
  C   C228      1.0  0.59692  0.34785  0.51773  1.0000
  H   H130      1.0  0.68048  0.43030  0.52761  1.0000
  H   H131      1.0  0.65495  0.40042  0.66342  1.0000
  H   H132      1.0  0.60188  0.34835  0.65860  1.0000
  H   H133      1.0  0.57442  0.32596  0.51805  1.0000
  C   C229      1.0  0.85261  0.25921  0.35090  1.0000
  C   C230      1.0  0.86601  0.25744  0.43573  1.0000
  C   C231      1.0  0.89687  0.25719  0.43929  1.0000
  C   C232      1.0  0.91417  0.25952  0.35825  1.0000
  C   C233      1.0  0.90932  0.25405  0.52358  1.0000
  C   C234      1.0  0.89192  0.25149  0.60321  1.0000
  C   C235      1.0  0.86178  0.25203  0.60003  1.0000
  C   C236      1.0  0.84895  0.25496  0.51718  1.0000
  H   H134      1.0  0.93150  0.25408  0.52813  1.0000
  H   H135      1.0  0.90131  0.24946  0.66354  1.0000
  H   H136      1.0  0.84919  0.25034  0.65805  1.0000
  H   H137      1.0  0.82706  0.25556  0.51726  1.0000
  C   C237      1.0  0.74843  0.09493  0.35087  1.0000
  C   C238      1.0  0.75007  0.10997  0.43581  1.0000
  C   C239      1.0  0.75021  0.14103  0.43955  1.0000
  C   C240      1.0  0.74785  0.15613  0.35883  1.0000
  C   C241      1.0  0.75331  0.15655  0.52390  1.0000
  C   C242      1.0  0.75590  0.14168  0.60344  1.0000
  C   C243      1.0  0.75544  0.11104  0.60009  1.0000
  C   C244      1.0  0.75257  0.09535  0.51717  1.0000
  H   H138      1.0  0.75325  0.17868  0.52856  1.0000
  H   H139      1.0  0.75793  0.15307  0.66383  1.0000
  H   H140      1.0  0.75717  0.10013  0.65805  1.0000
  H   H141      1.0  0.75205  0.07290  0.51712  1.0000
  C   C245      1.0  0.91283  0.15491  0.35143  1.0000
  C   C246      1.0  0.89770  0.14139  0.43615  1.0000
  C   C247      1.0  0.86659  0.11052  0.43969  1.0000
  C   C248      1.0  0.85159  0.09333  0.35864  1.0000
  C   C249      1.0  0.85102  0.09801  0.52395  1.0000
  C   C250      1.0  0.86589  0.11539  0.60359  1.0000
  C   C251      1.0  0.89656  0.14555  0.60043  1.0000
  C   C252      1.0  0.91230  0.15842  0.51759  1.0000
  H   H142      1.0  0.82886  0.07586  0.52843  1.0000
  H   H143      1.0  0.85447  0.10598  0.66393  1.0000
  H   H144      1.0  0.90746  0.15813  0.65847  1.0000
  H   H145      1.0  0.93476  0.18035  0.51765  1.0000
  C   C253      1.0  0.98632  0.74365  0.31045  1.0000
  C   C254      1.0  0.93299  0.69006  0.33820  1.0000
  C   C255      1.0  0.96617  0.70758  0.30170  1.0000
  C   C256      1.0  0.52276  0.76234  0.31046  1.0000
  C   C257      1.0  0.54290  0.79841  0.30186  1.0000
  C   C258      1.0  0.57601  0.81595  0.33872  1.0000
  N   N55       1.0  0.97729  0.68965  0.25464  1.0000
  N   N56       1.0  0.53185  0.81634  0.25452  1.0000
  H   H146      1.0  0.49630  0.70110  0.21435  1.0000
  H   H147      1.0  0.96321  0.66570  0.24492  1.0000
  H   H148      1.0  0.54568  0.84036  0.24550  1.0000
  C   C259      1.0  0.76388  0.74418  0.31093  1.0000
  C   C260      1.0  0.81744  0.74434  0.33817  1.0000
  C   C261      1.0  0.79994  0.76004  0.30182  1.0000
  C   C262      1.0  0.74524  0.76196  0.31089  1.0000
  C   C263      1.0  0.70918  0.74610  0.30191  1.0000
  C   C264      1.0  0.69169  0.76180  0.33834  1.0000
  N   N57       1.0  0.81785  0.78909  0.25476  1.0000
  N   N58       1.0  0.69123  0.71709  0.25478  1.0000
  H   H149      1.0  0.80640  0.79670  0.21466  1.0000
  H   H150      1.0  0.84180  0.79894  0.24490  1.0000
  H   H151      1.0  0.66722  0.70695  0.24555  1.0000
  H   H152      1.0  0.70259  0.70924  0.21505  1.0000
  C   C265      1.0  0.76351  0.52127  0.31116  1.0000
  C   C266      1.0  0.76335  0.57469  0.33808  1.0000
  C   C267      1.0  0.74762  0.54144  0.30209  1.0000
  C   C268      1.0  0.74576  0.98484  0.31117  1.0000
  C   C269      1.0  0.76167  0.96469  0.30193  1.0000
  C   C270      1.0  0.74589  0.93137  0.33750  1.0000
  N   N59       1.0  0.71854  0.53029  0.25521  1.0000
  N   N60       1.0  0.79079  0.97590  0.25516  1.0000
  H   H153      1.0  0.71087  0.01117  0.21527  1.0000
  H   H154      1.0  0.70854  0.54426  0.24541  1.0000
  H   H155      1.0  0.80060  0.96179  0.24493  1.0000
  H   H156      1.0  0.79837  0.49498  0.21516  1.0000
  N   N61       1.0  0.60996  0.74531  0.28143  1.0000
  N   N62       1.0  0.63842  0.74548  0.27764  1.0000
  N   N63       1.0  0.76200  0.86602  0.28126  1.0000
  N   N64       1.0  0.76182  0.89430  0.27723  1.0000
  N   N65       1.0  0.64138  0.89721  0.28106  1.0000
  N   N66       1.0  0.61302  0.86882  0.27773  1.0000
  N   N67       1.0  0.89910  0.76074  0.28105  1.0000
  N   N68       1.0  0.87066  0.76062  0.27736  1.0000
  N   N69       1.0  0.74694  0.63998  0.28153  1.0000
  N   N70       1.0  0.74717  0.61173  0.27748  1.0000
  N   N71       1.0  0.86762  0.60865  0.28135  1.0000
  N   N72       1.0  0.89593  0.63710  0.27776  1.0000
  C   C271      1.0  0.96809  0.76043  0.33173  1.0000
  C   C272      1.0  0.93338  0.74351  0.34867  1.0000
  C   C273      1.0  0.91702  0.70859  0.35842  1.0000
  H   H157      1.0  0.98013  0.78562  0.34261  1.0000
  H   H158      1.0  0.89203  0.69611  0.37510  1.0000
  C   C274      1.0  0.59198  0.79743  0.35901  1.0000
  C   C275      1.0  0.57567  0.76252  0.34920  1.0000
  C   C276      1.0  0.54099  0.74556  0.33171  1.0000
  H   H159      1.0  0.61696  0.80991  0.37600  1.0000
  H   H160      1.0  0.52897  0.72038  0.34264  1.0000
  C   C277      1.0  0.74705  0.70918  0.33235  1.0000
  C   C278      1.0  0.76394  0.69132  0.34873  1.0000
  C   C279      1.0  0.79887  0.70982  0.35809  1.0000
  H   H161      1.0  0.72188  0.69610  0.34353  1.0000
  H   H162      1.0  0.81131  0.69726  0.37473  1.0000
  C   C280      1.0  0.71026  0.79634  0.35807  1.0000
  C   C281      1.0  0.74519  0.81484  0.34854  1.0000
  C   C282      1.0  0.76207  0.79696  0.33230  1.0000
  H   H163      1.0  0.69783  0.80891  0.37472  1.0000
  H   H164      1.0  0.78725  0.81004  0.34346  1.0000
  C   C283      1.0  0.79851  0.53947  0.33254  1.0000
  C   C284      1.0  0.81638  0.57424  0.34862  1.0000
  C   C285      1.0  0.79788  0.59069  0.35782  1.0000
  H   H165      1.0  0.81158  0.52739  0.34409  1.0000
  H   H166      1.0  0.81046  0.61571  0.37424  1.0000
  C   C286      1.0  0.71135  0.91534  0.35713  1.0000
  C   C287      1.0  0.69286  0.93181  0.34813  1.0000
  C   C288      1.0  0.71075  0.96661  0.33246  1.0000
  H   H167      1.0  0.69880  0.89031  0.37344  1.0000
  H   H168      1.0  0.69765  0.97867  0.34381  1.0000
  C   C289      1.0  0.65653  0.74694  0.35112  1.0000
  C   C290      1.0  0.64316  0.74870  0.43600  1.0000
  C   C291      1.0  0.61227  0.74891  0.43967  1.0000
  C   C292      1.0  0.59493  0.74655  0.35869  1.0000
  C   C293      1.0  0.59983  0.75203  0.52400  1.0000
  C   C294      1.0  0.61728  0.75462  0.60357  1.0000
  C   C295      1.0  0.64745  0.75413  0.60029  1.0000
  C   C296      1.0  0.66026  0.75121  0.51740  1.0000
  H   H169      1.0  0.57766  0.75199  0.52863  1.0000
  H   H170      1.0  0.60791  0.75666  0.66393  1.0000
  H   H171      1.0  0.66007  0.75585  0.65827  1.0000
  H   H172      1.0  0.68217  0.75065  0.51742  1.0000
  C   C297      1.0  0.76090  0.91124  0.35075  1.0000
  C   C298      1.0  0.75931  0.89625  0.43568  1.0000
  C   C299      1.0  0.75910  0.86516  0.43945  1.0000
  C   C300      1.0  0.76133  0.85004  0.35868  1.0000
  C   C301      1.0  0.75604  0.84966  0.52382  1.0000
  C   C302      1.0  0.75351  0.86459  0.60334  1.0000
  C   C303      1.0  0.75400  0.89525  0.59994  1.0000
  C   C304      1.0  0.75686  0.91092  0.51698  1.0000
  H   H173      1.0  0.75605  0.82752  0.52849  1.0000
  H   H174      1.0  0.75150  0.85323  0.66375  1.0000
  H   H175      1.0  0.75231  0.90619  0.65788  1.0000
  H   H176      1.0  0.75737  0.93337  0.51685  1.0000
  C   C305      1.0  0.59622  0.85111  0.35159  1.0000
  C   C306      1.0  0.61147  0.86474  0.43610  1.0000
  C   C307      1.0  0.64263  0.89557  0.43920  1.0000
  C   C308      1.0  0.65767  0.91267  0.35797  1.0000
  C   C309      1.0  0.65828  0.90817  0.52335  1.0000
  C   C310      1.0  0.64346  0.89094  0.60321  1.0000
  C   C311      1.0  0.61275  0.86082  0.60041  1.0000
  C   C312      1.0  0.59692  0.84785  0.51773  1.0000
  H   H177      1.0  0.68048  0.93030  0.52761  1.0000
  H   H178      1.0  0.65495  0.90043  0.66342  1.0000
  H   H179      1.0  0.60188  0.84835  0.65860  1.0000
  H   H180      1.0  0.57442  0.82596  0.51805  1.0000
  C   C313      1.0  0.85261  0.75921  0.35090  1.0000
  C   C314      1.0  0.86601  0.75744  0.43573  1.0000
  C   C315      1.0  0.89687  0.75719  0.43929  1.0000
  C   C316      1.0  0.91417  0.75952  0.35825  1.0000
  C   C317      1.0  0.90932  0.75405  0.52358  1.0000
  C   C318      1.0  0.89192  0.75149  0.60321  1.0000
  C   C319      1.0  0.86178  0.75203  0.60003  1.0000
  C   C320      1.0  0.84895  0.75496  0.51718  1.0000
  H   H181      1.0  0.93149  0.75408  0.52813  1.0000
  H   H182      1.0  0.90131  0.74947  0.66354  1.0000
  H   H183      1.0  0.84919  0.75035  0.65805  1.0000
  H   H184      1.0  0.82705  0.75556  0.51726  1.0000
  C   C321      1.0  0.74843  0.59493  0.35087  1.0000
  C   C322      1.0  0.75006  0.60997  0.43581  1.0000
  C   C323      1.0  0.75021  0.64103  0.43955  1.0000
  C   C324      1.0  0.74785  0.65613  0.35883  1.0000
  C   C325      1.0  0.75331  0.65655  0.52390  1.0000
  C   C326      1.0  0.75590  0.64168  0.60344  1.0000
  C   C327      1.0  0.75544  0.61104  0.60009  1.0000
  C   C328      1.0  0.75257  0.59535  0.51717  1.0000
  H   H185      1.0  0.75325  0.67868  0.52856  1.0000
  H   H186      1.0  0.75792  0.65307  0.66383  1.0000
  H   H187      1.0  0.75717  0.60013  0.65805  1.0000
  H   H188      1.0  0.75205  0.57290  0.51712  1.0000
  C   C329      1.0  0.91283  0.65491  0.35143  1.0000
  C   C330      1.0  0.89770  0.64139  0.43615  1.0000
  C   C331      1.0  0.86659  0.61052  0.43969  1.0000
  C   C332      1.0  0.85159  0.59333  0.35864  1.0000
  C   C333      1.0  0.85102  0.59801  0.52395  1.0000
  C   C334      1.0  0.86589  0.61539  0.60359  1.0000
  C   C335      1.0  0.89656  0.64555  0.60043  1.0000
  C   C336      1.0  0.91230  0.65842  0.51759  1.0000
  H   H189      1.0  0.82886  0.57586  0.52843  1.0000
  H   H190      1.0  0.85447  0.60598  0.66393  1.0000
  H   H191      1.0  0.90746  0.65813  0.65847  1.0000
  H   H192      1.0  0.93476  0.68035  0.51765  1.0000
