data_image0
_chemical_formula_structural       CNHCH2C5HC2HNH2C2H2C4HC4HN2H4C2H2C4HC4HN2H4C2H2C3H2NC3H2NC3H2NC3H2NC3H2NC3H2NC2HC3H2C2HC2HC2H2C2HC2HC2H2C4NCONH2NC4NCONH2NC4NCONH2NC4NCONH2NC4NCONH2NC4NCONH2N
_chemical_formula_sum              "C96 N30 H60 O6"
_cell_length_a       31.2938
_cell_length_b       31.2938
_cell_length_c       14.9221
_cell_angle_alpha    90
_cell_angle_beta     90
_cell_angle_gamma    120

_space_group_name_H-M_alt    "P 1"
_space_group_IT_number       1

loop_
  _space_group_symop_operation_xyz
  'x, y, z'

loop_
  _atom_site_type_symbol
  _atom_site_label
  _atom_site_symmetry_multiplicity
  _atom_site_fract_x
  _atom_site_fract_y
  _atom_site_fract_z
  _atom_site_occupancy
  C   C1        1.0  0.03000  0.52013  0.28473  1.0000
  N   N1        1.0  0.02560  0.58760  0.21496  1.0000
  H   H1        1.0  0.01074  0.44133  0.18090  1.0000
  C   C2        1.0  0.05102  0.57224  0.26776  1.0000
  H   H2        1.0  0.03836  0.62177  0.19870  1.0000
  H   H3        1.0  0.04987  0.46764  0.33009  1.0000
  C   C3        1.0  0.06278  0.50402  0.31584  1.0000
  C   C4        1.0  0.97770  0.48512  0.28491  1.0000
  C   C5        1.0  0.88100  0.41751  0.34265  1.0000
  C   C6        1.0  0.90878  0.39822  0.30231  1.0000
  C   C7        1.0  0.95665  0.43302  0.26776  1.0000
  H   H4        1.0  0.84556  0.39367  0.36268  1.0000
  C   C8        1.0  0.09891  0.60703  0.30216  1.0000
  C   C9        1.0  0.12674  0.58771  0.34219  1.0000
  H   H5        1.0  0.16217  0.61152  0.36234  1.0000
  N   N2        1.0  0.98203  0.41770  0.21475  1.0000
  H   H6        1.0  0.96898  0.38356  0.19792  1.0000
  H   H7        1.0  0.99671  0.56402  0.18142  1.0000
  C   C10       1.0  0.88518  0.34579  0.29477  1.0000
  C   C11       1.0  0.12251  0.65946  0.29467  1.0000
  H   H8        1.0  0.89802  0.32894  0.25320  1.0000
  H   H9        1.0  0.10964  0.67631  0.25319  1.0000
  C   C12       1.0  0.52135  0.49392  0.28507  1.0000
  C   C13       1.0  0.58895  0.46471  0.34208  1.0000
  C   C14       1.0  0.60825  0.51187  0.30208  1.0000
  C   C15       1.0  0.57343  0.52498  0.26779  1.0000
  H   H10       1.0  0.61279  0.45311  0.36214  1.0000
  C   C16       1.0  0.48635  0.51122  0.28505  1.0000
  C   C17       1.0  0.43425  0.48015  0.26794  1.0000
  C   C18       1.0  0.39945  0.49325  0.30236  1.0000
  C   C19       1.0  0.41876  0.54040  0.34236  1.0000
  H   H11       1.0  0.39495  0.55203  0.36244  1.0000
  N   N3        1.0  0.58873  0.56570  0.21486  1.0000
  N   N4        1.0  0.41890  0.43943  0.21501  1.0000
  H   H12       1.0  0.56507  0.57081  0.18114  1.0000
  H   H13       1.0  0.62284  0.58674  0.19784  1.0000
  H   H14       1.0  0.38474  0.41805  0.19865  1.0000
  H   H15       1.0  0.44249  0.43413  0.18146  1.0000
  C   C20       1.0  0.66067  0.54073  0.29464  1.0000
  C   C21       1.0  0.34703  0.46445  0.29478  1.0000
  H   H16       1.0  0.67754  0.57058  0.25341  1.0000
  H   H17       1.0  0.33018  0.43472  0.25328  1.0000
  C   C22       1.0  0.51278  0.02888  0.28489  1.0000
  C   C23       1.0  0.54186  0.12556  0.34267  1.0000
  C   C24       1.0  0.49481  0.09781  0.30225  1.0000
  C   C25       1.0  0.48173  0.04993  0.26775  1.0000
  H   H18       1.0  0.55349  0.16099  0.36282  1.0000
  C   C26       1.0  0.49547  0.97658  0.28497  1.0000
  C   C27       1.0  0.52653  0.95553  0.26784  1.0000
  C   C28       1.0  0.51338  0.90760  0.30213  1.0000
  C   C29       1.0  0.46618  0.87973  0.34200  1.0000
  H   H19       1.0  0.45455  0.84427  0.36193  1.0000
  N   N5        1.0  0.44104  0.02457  0.21473  1.0000
  N   N6        1.0  0.56734  0.98098  0.21508  1.0000
  H   H20       1.0  0.43594  0.99582  0.18095  1.0000
  H   H21       1.0  0.41986  0.03752  0.19791  1.0000
  H   H22       1.0  0.58835  0.96788  0.19806  1.0000
  H   H23       1.0  0.57241  0.00970  0.18126  1.0000
  C   C30       1.0  0.46599  0.12141  0.29470  1.0000
  C   C31       1.0  0.54224  0.88403  0.29481  1.0000
  H   H24       1.0  0.43625  0.10852  0.25323  1.0000
  H   H25       1.0  0.57210  0.89699  0.25362  1.0000
  C   C32       1.0  0.27091  0.46642  0.35758  1.0000
  C   C33       1.0  0.23347  0.44064  0.29370  1.0000
  C   C34       1.0  0.18897  0.44162  0.29764  1.0000
  H   H26       1.0  0.16549  0.42801  0.24400  1.0000
  H   H27       1.0  0.24046  0.42563  0.23865  1.0000
  N   N7        1.0  0.31748  0.47526  0.34466  1.0000
  C   C35       1.0  0.54019  0.80592  0.35770  1.0000
  C   C36       1.0  0.56605  0.79426  0.29399  1.0000
  C   C37       1.0  0.56493  0.74872  0.29789  1.0000
  H   H28       1.0  0.57873  0.73885  0.24455  1.0000
  H   H29       1.0  0.58119  0.81630  0.23901  1.0000
  N   N8        1.0  0.53137  0.84364  0.34465  1.0000
  C   C38       1.0  0.20065  0.73556  0.35739  1.0000
  C   C39       1.0  0.21230  0.77300  0.29354  1.0000
  C   C40       1.0  0.25780  0.81747  0.29740  1.0000
  H   H30       1.0  0.26763  0.84112  0.24403  1.0000
  H   H31       1.0  0.19021  0.76613  0.23864  1.0000
  N   N9        1.0  0.16291  0.68900  0.34449  1.0000
  C   C41       1.0  0.73678  0.53879  0.35757  1.0000
  C   C42       1.0  0.77428  0.56467  0.29384  1.0000
  C   C43       1.0  0.81867  0.56348  0.29768  1.0000
  H   H32       1.0  0.84229  0.57718  0.24425  1.0000
  H   H33       1.0  0.76732  0.57960  0.23863  1.0000
  N   N10       1.0  0.69022  0.52992  0.34452  1.0000
  C   C44       1.0  0.46781  0.19939  0.35766  1.0000
  C   C45       1.0  0.44197  0.21100  0.29382  1.0000
  C   C46       1.0  0.44291  0.25646  0.29776  1.0000
  H   H34       1.0  0.42946  0.26645  0.24407  1.0000
  H   H35       1.0  0.42717  0.18914  0.23852  1.0000
  N   N11       1.0  0.47674  0.16172  0.34468  1.0000
  C   C47       1.0  0.80722  0.26965  0.35780  1.0000
  C   C48       1.0  0.79550  0.23223  0.29385  1.0000
  C   C49       1.0  0.74999  0.18777  0.29780  1.0000
  H   H36       1.0  0.74001  0.16435  0.24406  1.0000
  H   H37       1.0  0.81730  0.23928  0.23848  1.0000
  N   N12       1.0  0.84489  0.31623  0.34481  1.0000
  C   C50       1.0  0.94496  0.50120  0.31632  1.0000
  C   C51       1.0  0.89615  0.46808  0.34283  1.0000
  H   H38       1.0  0.95783  0.53760  0.33034  1.0000
  C   C52       1.0  0.11158  0.53714  0.34246  1.0000
  C   C53       1.0  0.14599  0.52313  0.37070  1.0000
  C   C54       1.0  0.86173  0.48206  0.37107  1.0000
  H   H39       1.0  0.17859  0.55059  0.39641  1.0000
  H   H40       1.0  0.82906  0.45467  0.39669  1.0000
  C   C55       1.0  0.50525  0.44506  0.31630  1.0000
  C   C56       1.0  0.53838  0.42933  0.34256  1.0000
  H   H41       1.0  0.46885  0.42158  0.33042  1.0000
  C   C57       1.0  0.46934  0.57580  0.34272  1.0000
  C   C58       1.0  0.50245  0.56008  0.31634  1.0000
  H   H42       1.0  0.53887  0.58357  0.33034  1.0000
  C   C59       1.0  0.48336  0.62424  0.37087  1.0000
  C   C60       1.0  0.52440  0.38093  0.37081  1.0000
  H   H43       1.0  0.45588  0.62941  0.39642  1.0000
  H   H44       1.0  0.55180  0.37565  0.39636  1.0000
  C   C61       1.0  0.56163  0.06162  0.31623  1.0000
  C   C62       1.0  0.57726  0.11039  0.34299  1.0000
  H   H45       1.0  0.58506  0.04868  0.33060  1.0000
  C   C63       1.0  0.43080  0.89493  0.34224  1.0000
  C   C64       1.0  0.44656  0.94379  0.31600  1.0000
  H   H46       1.0  0.42306  0.95670  0.32993  1.0000
  C   C65       1.0  0.38234  0.86048  0.37012  1.0000
  C   C66       1.0  0.62564  0.14474  0.37156  1.0000
  H   H47       1.0  0.37706  0.82776  0.39554  1.0000
  H   H48       1.0  0.63080  0.17730  0.39749  1.0000
  C   C67       1.0  0.18128  0.46907  0.36439  1.0000
  C   C68       1.0  0.21535  0.48823  0.43724  1.0000
  C   C69       1.0  0.26090  0.48802  0.43265  1.0000
  C   C70       1.0  0.29389  0.50954  0.50598  1.0000
  N   N13       1.0  0.28099  0.52677  0.57803  1.0000
  C   C71       1.0  0.23701  0.52481  0.58277  1.0000
  O   O1        1.0  0.33780  0.51122  0.51275  1.0000
  N   N14       1.0  0.20467  0.50533  0.51382  1.0000
  H   H49       1.0  0.22807  0.53698  0.63945  1.0000
  H   H50       1.0  0.17222  0.50162  0.52298  1.0000
  N   N15       1.0  0.14623  0.48163  0.34502  1.0000
  C   C72       1.0  0.53745  0.71358  0.36464  1.0000
  C   C73       1.0  0.51821  0.72849  0.43736  1.0000
  C   C74       1.0  0.51845  0.77427  0.43269  1.0000
  C   C75       1.0  0.49685  0.78574  0.50588  1.0000
  N   N16       1.0  0.47952  0.75560  0.57790  1.0000
  C   C76       1.0  0.48147  0.71357  0.58274  1.0000
  O   O2        1.0  0.49518  0.82797  0.51257  1.0000
  N   N17       1.0  0.50101  0.70070  0.51392  1.0000
  H   H51       1.0  0.46920  0.69244  0.63939  1.0000
  H   H52       1.0  0.50470  0.67197  0.52314  1.0000
  N   N18       1.0  0.52491  0.66597  0.34532  1.0000
  C   C77       1.0  0.29297  0.82517  0.36411  1.0000
  C   C78       1.0  0.27811  0.79107  0.43689  1.0000
  C   C79       1.0  0.23233  0.74553  0.43234  1.0000
  C   C80       1.0  0.22088  0.71251  0.50564  1.0000
  N   N19       1.0  0.25107  0.72539  0.57760  1.0000
  C   C81       1.0  0.29311  0.76935  0.58229  1.0000
  O   O3        1.0  0.17864  0.66863  0.51248  1.0000
  N   N20       1.0  0.30595  0.80170  0.51339  1.0000
  H   H53       1.0  0.31428  0.77825  0.63890  1.0000
  H   H54       1.0  0.33470  0.83414  0.52251  1.0000
  N   N21       1.0  0.34056  0.86026  0.34473  1.0000
  C   C82       1.0  0.82639  0.53610  0.36456  1.0000
  C   C83       1.0  0.79230  0.51698  0.43738  1.0000
  C   C84       1.0  0.74675  0.51716  0.43267  1.0000
  C   C85       1.0  0.71369  0.49561  0.50591  1.0000
  N   N22       1.0  0.72659  0.47845  0.57808  1.0000
  C   C86       1.0  0.77059  0.48045  0.58293  1.0000
  O   O4        1.0  0.66982  0.49400  0.51266  1.0000
  N   N23       1.0  0.80295  0.49989  0.51402  1.0000
  H   H55       1.0  0.77950  0.46829  0.63967  1.0000
  H   H56       1.0  0.83540  0.50362  0.52324  1.0000
  N   N24       1.0  0.86144  0.52354  0.34530  1.0000
  C   C87       1.0  0.47028  0.29155  0.36467  1.0000
  C   C88       1.0  0.48947  0.27667  0.43746  1.0000
  C   C89       1.0  0.48933  0.23095  0.43281  1.0000
  C   C90       1.0  0.51088  0.21949  0.50611  1.0000
  N   N25       1.0  0.52803  0.24958  0.57823  1.0000
  C   C91       1.0  0.52602  0.29158  0.58300  1.0000
  O   O5        1.0  0.51252  0.17724  0.51294  1.0000
  N   N26       1.0  0.50656  0.30445  0.51404  1.0000
  H   H57       1.0  0.53818  0.31268  0.63970  1.0000
  H   H58       1.0  0.50284  0.33318  0.52320  1.0000
  N   N27       1.0  0.48288  0.33917  0.34521  1.0000
  C   C92       1.0  0.71499  0.17999  0.36492  1.0000
  C   C93       1.0  0.72999  0.21403  0.43779  1.0000
  C   C94       1.0  0.77571  0.25960  0.43306  1.0000
  C   C95       1.0  0.78726  0.29260  0.50640  1.0000
  N   N28       1.0  0.75724  0.27965  0.57863  1.0000
  C   C96       1.0  0.71525  0.23565  0.58350  1.0000
  O   O6        1.0  0.82950  0.33649  0.51312  1.0000
  N   N29       1.0  0.70233  0.20331  0.51454  1.0000
  H   H59       1.0  0.69421  0.22670  0.64028  1.0000
  H   H60       1.0  0.67358  0.17088  0.52369  1.0000
  N   N30       1.0  0.66735  0.14502  0.34555  1.0000
