data_image0
_chemical_formula_structural       H3CH3CH2C4HC3H2NO2NC4HC3H2NO2NC4H4OC4H4OC4HC3H2NO2NC4HC3H2NO2NCH4CH4C2HC2H2NO2C2HC2H2NO2C6HOC6OH5C4H2C6HOC6OH5C4H4C6HOC6OH5C4H4C6HOC6OH4C3H2C6HOC6OH4C3H2C5H4NC5H4NC4HC4H2NON2C4HC4H2NON2C5H4NC5H4NC6HC5H2NO2N2C6HC5H2NO2N2C8H4N2C8H4N2
_chemical_formula_sum              "H120 C200 N30 O30"
_cell_length_a       40.6767
_cell_length_b       51.7658
_cell_length_c       15.0058
_cell_angle_alpha    88.5371
_cell_angle_beta     91.1644
_cell_angle_gamma    89.7528

_space_group_name_H-M_alt    "P 1"
_space_group_IT_number       1

loop_
  _space_group_symop_operation_xyz
  'x, y, z'

loop_
  _atom_site_type_symbol
  _atom_site_label
  _atom_site_symmetry_multiplicity
  _atom_site_fract_x
  _atom_site_fract_y
  _atom_site_fract_z
  _atom_site_occupancy
  H   H1        1.0  0.03787  0.07500  0.35353  1.0000
  H   H2        1.0  0.90568  0.93799  0.35379  1.0000
  H   H3        1.0  0.76842  0.34223  0.30803  1.0000
  C   C1        1.0  0.82679  0.32028  0.30461  1.0000
  H   H4        1.0  0.82963  0.32783  0.24368  1.0000
  H   H5        1.0  0.61422  0.31421  0.24117  1.0000
  H   H6        1.0  0.17446  0.67125  0.30816  1.0000
  C   C2        1.0  0.11604  0.69324  0.30411  1.0000
  H   H7        1.0  0.11211  0.68698  0.24273  1.0000
  H   H8        1.0  0.32758  0.70037  0.24202  1.0000
  C   C3        1.0  0.09491  0.08846  0.29230  1.0000
  C   C4        1.0  0.13123  0.13517  0.28822  1.0000
  C   C5        1.0  0.13023  0.11933  0.21222  1.0000
  C   C6        1.0  0.11241  0.09587  0.21583  1.0000
  H   H9        1.0  0.11178  0.08434  0.16138  1.0000
  C   C7        1.0  0.14610  0.15993  0.28755  1.0000
  C   C8        1.0  0.14403  0.20521  0.23698  1.0000
  C   C9        1.0  0.13414  0.17945  0.22767  1.0000
  H   H10       1.0  0.13352  0.21918  0.19586  1.0000
  H   H11       1.0  0.11648  0.17542  0.18055  1.0000
  N   N1        1.0  0.14754  0.12695  0.13503  1.0000
  O   O1        1.0  0.12853  0.12964  0.06834  1.0000
  O   O2        1.0  0.16945  0.11078  0.11745  1.0000
  N   N2        1.0  0.07915  0.06611  0.29398  1.0000
  C   C10       1.0  0.84775  0.92544  0.29240  1.0000
  C   C11       1.0  0.81140  0.87877  0.28810  1.0000
  C   C12       1.0  0.81133  0.89573  0.21208  1.0000
  C   C13       1.0  0.82918  0.91915  0.21579  1.0000
  H   H12       1.0  0.82904  0.93147  0.16132  1.0000
  C   C14       1.0  0.79655  0.85402  0.28736  1.0000
  C   C15       1.0  0.79798  0.80947  0.23692  1.0000
  C   C16       1.0  0.80770  0.83538  0.22761  1.0000
  H   H13       1.0  0.80793  0.79611  0.19593  1.0000
  H   H14       1.0  0.82471  0.84011  0.18063  1.0000
  N   N3        1.0  0.79295  0.88923  0.13476  1.0000
  O   O3        1.0  0.81103  0.88753  0.06823  1.0000
  O   O4        1.0  0.77078  0.90565  0.11697  1.0000
  N   N4        1.0  0.86352  0.94777  0.29418  1.0000
  C   C17       1.0  0.85875  0.10020  0.36647  1.0000
  C   C18       1.0  0.84140  0.12327  0.37781  1.0000
  C   C19       1.0  0.78626  0.16031  0.42208  1.0000
  C   C20       1.0  0.77425  0.18575  0.41255  1.0000
  H   H15       1.0  0.77445  0.14598  0.38842  1.0000
  H   H16       1.0  0.75413  0.18911  0.37201  1.0000
  H   H17       1.0  0.86595  0.09559  0.30386  1.0000
  H   H18       1.0  0.83656  0.13490  0.32279  1.0000
  O   O5        1.0  0.85212  0.12715  0.00954  1.0000
  C   C21       1.0  0.08493  0.91259  0.36596  1.0000
  C   C22       1.0  0.10244  0.88934  0.37712  1.0000
  C   C23       1.0  0.15823  0.85159  0.42092  1.0000
  C   C24       1.0  0.17006  0.82629  0.41124  1.0000
  H   H19       1.0  0.16950  0.86642  0.38720  1.0000
  H   H20       1.0  0.18951  0.82353  0.37052  1.0000
  H   H21       1.0  0.07676  0.91816  0.30340  1.0000
  H   H22       1.0  0.10641  0.87854  0.32204  1.0000
  O   O6        1.0  0.09138  0.88589  0.00889  1.0000
  C   C25       1.0  0.24715  0.44179  0.36693  1.0000
  C   C26       1.0  0.24352  0.49657  0.36703  1.0000
  C   C27       1.0  0.24821  0.48368  0.28572  1.0000
  C   C28       1.0  0.24958  0.45634  0.28675  1.0000
  H   H23       1.0  0.25371  0.44706  0.22851  1.0000
  C   C29       1.0  0.24439  0.52391  0.37149  1.0000
  C   C30       1.0  0.22436  0.56676  0.32285  1.0000
  C   C31       1.0  0.22215  0.53967  0.32076  1.0000
  H   H24       1.0  0.20836  0.57775  0.28423  1.0000
  H   H25       1.0  0.20437  0.53156  0.28131  1.0000
  N   N5        1.0  0.25301  0.49818  0.20570  1.0000
  O   O7        1.0  0.23151  0.49312  0.14748  1.0000
  O   O8        1.0  0.28091  0.49403  0.17437  1.0000
  N   N6        1.0  0.25038  0.41641  0.36279  1.0000
  C   C32       1.0  0.69667  0.57098  0.36741  1.0000
  C   C33       1.0  0.70002  0.51620  0.36664  1.0000
  C   C34       1.0  0.69426  0.53042  0.28551  1.0000
  C   C35       1.0  0.69304  0.55774  0.28698  1.0000
  H   H26       1.0  0.68817  0.56798  0.22885  1.0000
  C   C36       1.0  0.69914  0.48879  0.37061  1.0000
  C   C37       1.0  0.71838  0.44671  0.32136  1.0000
  C   C38       1.0  0.72061  0.47382  0.31971  1.0000
  H   H27       1.0  0.73380  0.43632  0.28262  1.0000
  H   H28       1.0  0.73783  0.48255  0.28046  1.0000
  N   N7        1.0  0.68826  0.51724  0.20521  1.0000
  O   O9        1.0  0.70897  0.52318  0.14724  1.0000
  O   O10       1.0  0.65994  0.52199  0.17374  1.0000
  N   N8        1.0  0.69359  0.59644  0.36368  1.0000
  C   C39       1.0  0.90170  0.31966  0.28175  1.0000
  H   H29       1.0  0.94948  0.31632  0.23288  1.0000
  H   H30       1.0  0.89110  0.31111  0.22765  1.0000
  H   H31       1.0  0.05357  0.35015  0.25126  1.0000
  H   H32       1.0  0.99493  0.35390  0.25044  1.0000
  C   C40       1.0  0.04081  0.69433  0.28164  1.0000
  H   H33       1.0  0.99228  0.69851  0.23287  1.0000
  H   H34       1.0  0.05060  0.70370  0.22759  1.0000
  H   H35       1.0  0.88845  0.66437  0.25104  1.0000
  H   H36       1.0  0.94707  0.66065  0.25011  1.0000
  C   C41       1.0  0.50711  0.31765  0.26284  1.0000
  C   C42       1.0  0.54203  0.31802  0.26529  1.0000
  H   H37       1.0  0.55425  0.32184  0.20757  1.0000
  C   C43       1.0  0.39845  0.30685  0.29846  1.0000
  C   C44       1.0  0.43274  0.30266  0.29619  1.0000
  H   H38       1.0  0.38326  0.29581  0.26016  1.0000
  H   H39       1.0  0.44156  0.28848  0.25672  1.0000
  N   N9        1.0  0.48947  0.32217  0.18153  1.0000
  O   O11       1.0  0.49584  0.30523  0.12581  1.0000
  O   O12       1.0  0.49567  0.34402  0.14774  1.0000
  C   C45       1.0  0.43508  0.69650  0.26325  1.0000
  C   C46       1.0  0.40020  0.69607  0.26574  1.0000
  H   H40       1.0  0.38709  0.69310  0.20804  1.0000
  C   C47       1.0  0.54428  0.70679  0.29887  1.0000
  C   C48       1.0  0.50996  0.71099  0.29660  1.0000
  H   H41       1.0  0.55890  0.71842  0.26063  1.0000
  H   H42       1.0  0.50054  0.72577  0.25718  1.0000
  N   N10       1.0  0.45148  0.69322  0.18191  1.0000
  O   O13       1.0  0.44424  0.71099  0.12625  1.0000
  O   O14       1.0  0.44478  0.67187  0.14806  1.0000
  C   C49       1.0  0.98942  0.00805  0.34638  1.0000
  C   C50       1.0  0.01104  0.98694  0.36551  1.0000
  C   C51       1.0  0.04560  0.98956  0.36542  1.0000
  C   C52       1.0  0.05941  0.01429  0.35102  1.0000
  C   C53       1.0  0.03874  0.03595  0.33232  1.0000
  C   C54       1.0  0.00432  0.03231  0.32827  1.0000
  H   H43       1.0  0.00168  0.96907  0.38003  1.0000
  O   O15       1.0  0.09281  0.01701  0.35587  1.0000
  C   C55       1.0  0.95404  0.00505  0.34644  1.0000
  C   C56       1.0  0.93887  0.98105  0.32844  1.0000
  C   C57       1.0  0.90451  0.97735  0.33264  1.0000
  C   C58       1.0  0.88412  0.99874  0.35127  1.0000
  C   C59       1.0  0.89816  0.02326  0.36557  1.0000
  C   C60       1.0  0.93272  0.02587  0.36556  1.0000
  O   O16       1.0  0.85080  0.99595  0.35618  1.0000
  H   H44       1.0  0.94230  0.04353  0.38000  1.0000
  H   H45       1.0  0.09835  0.02022  0.41872  1.0000
  H   H46       1.0  0.84622  0.99181  0.41904  1.0000
  H   H47       1.0  0.98988  0.04796  0.31129  1.0000
  H   H48       1.0  0.95304  0.96564  0.31148  1.0000
  C   C61       1.0  0.05088  0.06093  0.32665  1.0000
  C   C62       1.0  0.06578  0.96801  0.37243  1.0000
  C   C63       1.0  0.89225  0.95247  0.32701  1.0000
  C   C64       1.0  0.87809  0.04471  0.37259  1.0000
  H   H49       1.0  0.85938  0.04680  0.32905  1.0000
  H   H50       1.0  0.08386  0.96657  0.32894  1.0000
  C   C65       1.0  0.20633  0.31927  0.35987  1.0000
  C   C66       1.0  0.20697  0.29225  0.37701  1.0000
  C   C67       1.0  0.17817  0.27727  0.37322  1.0000
  C   C68       1.0  0.14737  0.28953  0.35667  1.0000
  C   C69       1.0  0.14536  0.31675  0.34345  1.0000
  C   C70       1.0  0.17505  0.33097  0.34222  1.0000
  H   H51       1.0  0.22883  0.28310  0.39212  1.0000
  O   O17       1.0  0.11958  0.27474  0.35519  1.0000
  C   C71       1.0  0.23637  0.33399  0.36221  1.0000
  C   C72       1.0  0.26708  0.32367  0.33600  1.0000
  C   C73       1.0  0.29682  0.33781  0.34104  1.0000
  C   C74       1.0  0.29529  0.36386  0.36847  1.0000
  C   C75       1.0  0.26515  0.37459  0.39519  1.0000
  C   C76       1.0  0.23637  0.35956  0.39330  1.0000
  O   O18       1.0  0.32270  0.37905  0.36932  1.0000
  H   H52       1.0  0.21506  0.36754  0.41559  1.0000
  H   H53       1.0  0.11363  0.27248  0.29199  1.0000
  H   H54       1.0  0.32478  0.38616  0.30829  1.0000
  H   H55       1.0  0.17367  0.35038  0.32793  1.0000
  H   H56       1.0  0.26793  0.30534  0.31213  1.0000
  C   C77       1.0  0.11520  0.32918  0.32782  1.0000
  C   C78       1.0  0.18066  0.25077  0.38245  1.0000
  C   C79       1.0  0.32641  0.32621  0.31774  1.0000
  C   C80       1.0  0.26320  0.40000  0.41902  1.0000
  H   H57       1.0  0.27406  0.40549  0.47536  1.0000
  H   H58       1.0  0.11327  0.34296  0.28068  1.0000
  H   H59       1.0  0.18886  0.24284  0.43970  1.0000
  H   H60       1.0  0.32643  0.31301  0.27079  1.0000
  C   C81       1.0  0.73736  0.69357  0.35991  1.0000
  C   C82       1.0  0.73697  0.72035  0.37686  1.0000
  C   C83       1.0  0.76571  0.73538  0.37292  1.0000
  C   C84       1.0  0.79626  0.72336  0.35644  1.0000
  C   C85       1.0  0.79806  0.69633  0.34337  1.0000
  C   C86       1.0  0.76837  0.68212  0.34227  1.0000
  H   H61       1.0  0.71534  0.72927  0.39198  1.0000
  O   O19       1.0  0.82403  0.73816  0.35487  1.0000
  C   C87       1.0  0.70736  0.67880  0.36248  1.0000
  C   C88       1.0  0.67624  0.68948  0.33628  1.0000
  C   C89       1.0  0.64659  0.67525  0.34154  1.0000
  C   C90       1.0  0.64856  0.64881  0.36921  1.0000
  C   C91       1.0  0.67913  0.63771  0.39594  1.0000
  C   C92       1.0  0.70787  0.65279  0.39381  1.0000
  O   O20       1.0  0.62119  0.63359  0.37022  1.0000
  H   H62       1.0  0.72952  0.64451  0.41611  1.0000
  H   H63       1.0  0.82904  0.74132  0.29167  1.0000
  H   H64       1.0  0.61820  0.62733  0.30927  1.0000
  H   H65       1.0  0.76953  0.66291  0.32811  1.0000
  H   H66       1.0  0.67500  0.70815  0.31227  1.0000
  C   C93       1.0  0.82799  0.68412  0.32780  1.0000
  C   C94       1.0  0.76336  0.76175  0.38211  1.0000
  C   C95       1.0  0.61663  0.68717  0.31819  1.0000
  C   C96       1.0  0.68150  0.61196  0.41991  1.0000
  H   H67       1.0  0.67094  0.60554  0.47538  1.0000
  H   H68       1.0  0.82924  0.67114  0.28032  1.0000
  H   H69       1.0  0.75579  0.76885  0.43910  1.0000
  H   H70       1.0  0.61588  0.70105  0.27120  1.0000
  C   C97       1.0  0.73705  0.31145  0.34662  1.0000
  C   C98       1.0  0.73704  0.28467  0.36815  1.0000
  C   C99       1.0  0.76602  0.26958  0.36739  1.0000
  C   C100      1.0  0.79609  0.28159  0.34448  1.0000
  C   C101      1.0  0.79724  0.30854  0.32570  1.0000
  C   C102      1.0  0.76762  0.32296  0.32497  1.0000
  H   H71       1.0  0.71554  0.27594  0.38645  1.0000
  O   O21       1.0  0.82421  0.26717  0.33983  1.0000
  C   C103      1.0  0.70716  0.32628  0.35067  1.0000
  C   C104      1.0  0.67617  0.31633  0.32301  1.0000
  C   C105      1.0  0.64658  0.33050  0.33145  1.0000
  C   C106      1.0  0.64815  0.35574  0.36593  1.0000
  C   C107      1.0  0.67878  0.36626  0.39208  1.0000
  C   C108      1.0  0.70771  0.35140  0.38566  1.0000
  O   O22       1.0  0.62041  0.37072  0.36811  1.0000
  H   H72       1.0  0.72949  0.35906  0.40784  1.0000
  H   H73       1.0  0.82512  0.26116  0.27827  1.0000
  H   H74       1.0  0.61261  0.36952  0.42969  1.0000
  H   H75       1.0  0.67506  0.29841  0.29575  1.0000
  C   C109      1.0  0.76383  0.24318  0.38303  1.0000
  C   C110      1.0  0.61671  0.32027  0.30322  1.0000
  C   C111      1.0  0.68059  0.39123  0.42073  1.0000
  H   H76       1.0  0.67018  0.39569  0.47769  1.0000
  H   H77       1.0  0.74624  0.23352  0.35153  1.0000
  C   C112      1.0  0.20637  0.70152  0.34649  1.0000
  C   C113      1.0  0.20668  0.72801  0.36763  1.0000
  C   C114      1.0  0.17768  0.74310  0.36643  1.0000
  C   C115      1.0  0.14728  0.73140  0.34356  1.0000
  C   C116      1.0  0.14588  0.70470  0.32516  1.0000
  C   C117      1.0  0.17549  0.69030  0.32483  1.0000
  H   H78       1.0  0.22844  0.73649  0.38590  1.0000
  O   O23       1.0  0.11908  0.74587  0.33861  1.0000
  C   C118      1.0  0.23631  0.68662  0.35099  1.0000
  C   C119      1.0  0.26691  0.69692  0.32332  1.0000
  C   C120      1.0  0.29661  0.68262  0.33218  1.0000
  C   C121      1.0  0.29551  0.65692  0.36716  1.0000
  C   C122      1.0  0.26525  0.64607  0.39338  1.0000
  C   C123      1.0  0.23623  0.66103  0.38650  1.0000
  O   O24       1.0  0.32325  0.64188  0.36971  1.0000
  H   H79       1.0  0.21477  0.65311  0.40873  1.0000
  H   H80       1.0  0.11728  0.75275  0.27699  1.0000
  H   H81       1.0  0.33200  0.64229  0.43126  1.0000
  H   H82       1.0  0.26764  0.71520  0.29573  1.0000
  C   C124      1.0  0.18005  0.76928  0.38190  1.0000
  C   C125      1.0  0.32609  0.69319  0.30384  1.0000
  C   C126      1.0  0.26379  0.62071  0.42248  1.0000
  H   H83       1.0  0.27564  0.61535  0.47854  1.0000
  H   H84       1.0  0.19733  0.77939  0.35094  1.0000
  C   C127      1.0  0.09680  0.10400  0.36809  1.0000
  C   C128      1.0  0.11451  0.12714  0.36579  1.0000
  C   C129      1.0  0.16905  0.16667  0.35507  1.0000
  C   C130      1.0  0.17878  0.19249  0.36477  1.0000
  C   C131      1.0  0.16565  0.21207  0.30699  1.0000
  H   H85       1.0  0.17750  0.15304  0.40069  1.0000
  H   H86       1.0  0.19409  0.19698  0.41690  1.0000
  H   H87       1.0  0.08515  0.09865  0.42542  1.0000
  H   H88       1.0  0.11440  0.13837  0.42103  1.0000
  N   N11       1.0  0.16953  0.23708  0.31857  1.0000
  C   C132      1.0  0.84693  0.90878  0.36820  1.0000
  C   C133      1.0  0.82921  0.88567  0.36581  1.0000
  C   C134      1.0  0.77455  0.84627  0.35471  1.0000
  C   C135      1.0  0.76499  0.82030  0.36439  1.0000
  C   C136      1.0  0.77734  0.80158  0.30676  1.0000
  H   H89       1.0  0.76672  0.85923  0.40023  1.0000
  H   H90       1.0  0.75041  0.81504  0.41641  1.0000
  H   H91       1.0  0.85939  0.91329  0.42562  1.0000
  H   H92       1.0  0.83011  0.87363  0.42106  1.0000
  N   N12       1.0  0.77366  0.77639  0.31840  1.0000
  C   C137      1.0  0.86654  0.08376  0.44045  1.0000
  C   C138      1.0  0.83165  0.13068  0.46345  1.0000
  C   C139      1.0  0.84006  0.11465  0.53878  1.0000
  C   C140      1.0  0.85755  0.09131  0.52621  1.0000
  H   H93       1.0  0.86345  0.07961  0.58027  1.0000
  C   C141      1.0  0.81578  0.15497  0.47052  1.0000
  C   C142      1.0  0.79163  0.20643  0.45101  1.0000
  C   C143      1.0  0.82019  0.20090  0.50307  1.0000
  C   C144      1.0  0.83220  0.17545  0.51275  1.0000
  H   H94       1.0  0.83382  0.21561  0.52905  1.0000
  H   H95       1.0  0.85435  0.17235  0.54500  1.0000
  N   N13       1.0  0.83025  0.12201  0.62453  1.0000
  O   O25       1.0  0.81123  0.10563  0.65865  1.0000
  N   N14       1.0  0.78572  0.23115  0.43122  1.0000
  N   N15       1.0  0.88331  0.06197  0.43124  1.0000
  C   C145      1.0  0.07832  0.92791  0.44002  1.0000
  C   C146      1.0  0.11353  0.88063  0.46268  1.0000
  C   C147      1.0  0.10631  0.89551  0.53811  1.0000
  C   C148      1.0  0.08865  0.91905  0.52571  1.0000
  H   H96       1.0  0.08360  0.92993  0.57985  1.0000
  C   C149      1.0  0.12949  0.85622  0.46959  1.0000
  C   C150      1.0  0.15328  0.80504  0.44980  1.0000
  C   C151      1.0  0.12556  0.80980  0.50205  1.0000
  C   C152      1.0  0.11372  0.83511  0.51188  1.0000
  H   H97       1.0  0.11233  0.79471  0.52810  1.0000
  H   H98       1.0  0.09210  0.83774  0.54429  1.0000
  N   N16       1.0  0.11746  0.88685  0.62378  1.0000
  O   O26       1.0  0.13702  0.90270  0.65788  1.0000
  N   N17       1.0  0.15885  0.78061  0.42991  1.0000
  N   N18       1.0  0.06141  0.94984  0.43095  1.0000
  C   C153      1.0  0.24169  0.45474  0.44693  1.0000
  C   C154      1.0  0.24001  0.48182  0.44691  1.0000
  C   C155      1.0  0.26860  0.53585  0.42512  1.0000
  C   C156      1.0  0.27076  0.56289  0.42730  1.0000
  C   C157      1.0  0.24853  0.57865  0.37641  1.0000
  H   H99       1.0  0.28558  0.52495  0.46083  1.0000
  H   H100      1.0  0.28933  0.57088  0.46413  1.0000
  H   H101      1.0  0.23934  0.44459  0.50581  1.0000
  H   H102      1.0  0.23656  0.49070  0.50623  1.0000
  N   N19       1.0  0.25071  0.60416  0.37049  1.0000
  C   C158      1.0  0.70315  0.55672  0.44724  1.0000
  C   C159      1.0  0.70470  0.52964  0.44679  1.0000
  C   C160      1.0  0.67569  0.47601  0.42396  1.0000
  C   C161      1.0  0.67352  0.44893  0.42572  1.0000
  C   C162      1.0  0.69499  0.43398  0.37468  1.0000
  H   H103      1.0  0.65925  0.48634  0.45979  1.0000
  H   H104      1.0  0.65547  0.44036  0.46233  1.0000
  H   H105      1.0  0.70637  0.56591  0.50629  1.0000
  H   H106      1.0  0.70894  0.51978  0.50599  1.0000
  N   N20       1.0  0.69265  0.40857  0.36840  1.0000
  C   C163      1.0  0.05776  0.32777  0.37129  1.0000
  C   C164      1.0  0.04093  0.34201  0.30296  1.0000
  C   C165      1.0  0.00635  0.34392  0.30217  1.0000
  C   C166      1.0  0.98748  0.33177  0.36949  1.0000
  C   C167      1.0  0.00436  0.31760  0.43908  1.0000
  C   C168      1.0  0.03915  0.31589  0.43897  1.0000
  H   H107      1.0  0.05093  0.30484  0.48754  1.0000
  C   C169      1.0  0.95229  0.33208  0.36219  1.0000
  C   C170      1.0  0.93612  0.32268  0.28515  1.0000
  C   C171      1.0  0.88236  0.32612  0.35524  1.0000
  C   C172      1.0  0.89826  0.33599  0.43144  1.0000
  C   C173      1.0  0.93263  0.33930  0.43434  1.0000
  H   H108      1.0  0.88500  0.34002  0.48669  1.0000
  H   H109      1.0  0.94336  0.34606  0.49140  1.0000
  N   N21       1.0  0.98637  0.30396  0.50496  1.0000
  O   O27       1.0  0.99356  0.31142  0.58197  1.0000
  O   O28       1.0  0.99117  0.28000  0.50237  1.0000
  N   N22       1.0  0.85103  0.31912  0.36101  1.0000
  N   N23       1.0  0.08967  0.32207  0.37117  1.0000
  C   C174      1.0  0.88608  0.68489  0.37123  1.0000
  C   C175      1.0  0.90188  0.67173  0.30274  1.0000
  C   C176      1.0  0.93644  0.66983  0.30192  1.0000
  C   C177      1.0  0.95634  0.68093  0.36933  1.0000
  C   C178      1.0  0.94051  0.69401  0.43905  1.0000
  C   C179      1.0  0.90572  0.69572  0.43899  1.0000
  H   H110      1.0  0.89467  0.70601  0.48768  1.0000
  C   C180      1.0  0.99141  0.68073  0.36203  1.0000
  C   C181      1.0  0.00643  0.69132  0.28506  1.0000
  C   C182      1.0  0.06125  0.68668  0.35501  1.0000
  C   C183      1.0  0.04649  0.67564  0.43112  1.0000
  C   C184      1.0  0.01216  0.67234  0.43407  1.0000
  H   H111      1.0  0.06058  0.67070  0.48629  1.0000
  H   H112      1.0  0.00228  0.66470  0.49105  1.0000
  N   N24       1.0  0.95950  0.70662  0.50504  1.0000
  O   O29       1.0  0.95348  0.69796  0.58199  1.0000
  O   O30       1.0  0.95466  0.73062  0.50269  1.0000
  N   N25       1.0  0.09273  0.69346  0.36075  1.0000
  N   N26       1.0  0.85416  0.69057  0.37123  1.0000
  C   C185      1.0  0.56003  0.31562  0.34661  1.0000
  C   C186      1.0  0.54255  0.31222  0.42605  1.0000
  C   C187      1.0  0.50801  0.31149  0.42457  1.0000
  C   C188      1.0  0.48968  0.31464  0.34372  1.0000
  C   C189      1.0  0.45475  0.31772  0.34732  1.0000
  C   C190      1.0  0.44125  0.33694  0.40141  1.0000
  C   C191      1.0  0.40710  0.34106  0.40392  1.0000
  C   C192      1.0  0.38527  0.32621  0.35230  1.0000
  H   H113      1.0  0.45627  0.34861  0.43808  1.0000
  H   H114      1.0  0.39832  0.35544  0.44276  1.0000
  H   H115      1.0  0.55483  0.31139  0.48633  1.0000
  H   H116      1.0  0.49626  0.30974  0.48413  1.0000
  N   N27       1.0  0.35362  0.33237  0.35661  1.0000
  N   N28       1.0  0.59185  0.32100  0.35472  1.0000
  C   C193      1.0  0.38344  0.69723  0.34710  1.0000
  C   C194      1.0  0.40212  0.69946  0.42652  1.0000
  C   C195      1.0  0.43664  0.70021  0.42500  1.0000
  C   C196      1.0  0.45374  0.69830  0.34412  1.0000
  C   C197      1.0  0.48873  0.69516  0.34768  1.0000
  C   C198      1.0  0.50305  0.67513  0.40169  1.0000
  C   C199      1.0  0.53724  0.67098  0.40421  1.0000
  C   C200      1.0  0.55828  0.68662  0.35267  1.0000
  H   H117      1.0  0.48858  0.66290  0.43834  1.0000
  H   H118      1.0  0.54660  0.65602  0.44303  1.0000
  H   H119      1.0  0.39077  0.69935  0.48683  1.0000
  H   H120      1.0  0.44929  0.70106  0.48454  1.0000
  N   N29       1.0  0.59001  0.68041  0.35703  1.0000
  N   N30       1.0  0.35175  0.69167  0.35523  1.0000
