data_image0
_chemical_formula_structural       CNC2NC4NC18H14C2NC16H12C3NC2NC5NC4NC18H14CNC16H12C11H11CNCNC4NC16H13C2H4C2H4C2H4C2H4C2H4C2H4C2H4C2H4C2H4C2H4C2H4C2H4C7NC12H12C2NC3NC3NC18H14C12H12C3NC3NC3NC18H14C3NC3NC2NC5NC20H15C8NC14H13C4NC2NHCHC4NC2NHCHC4NC2NHCHC4NC2NHCHC4NC2NHCHC4NC2NHCHC4NC2NHCHC4NC2NHCHC4NC2NHCHC4NC2NHCHC4NC2NHCHC4NC2NHCH
_chemical_formula_sum              "C372 N48 H228"
_cell_length_a       57.2127
_cell_length_b       57.2127
_cell_length_c       15.0246
_cell_angle_alpha    90.0018
_cell_angle_beta     89.9654
_cell_angle_gamma    120

_space_group_name_H-M_alt    "P 1"
_space_group_IT_number       1

loop_
  _space_group_symop_operation_xyz
  'x, y, z'

loop_
  _atom_site_type_symbol
  _atom_site_label
  _atom_site_symmetry_multiplicity
  _atom_site_fract_x
  _atom_site_fract_y
  _atom_site_fract_z
  _atom_site_occupancy
  C   C1        1.0  0.28488  0.52829  0.33143  1.0000
  N   N1        1.0  0.27609  0.48648  0.32491  1.0000
  C   C2        1.0  0.30343  0.50163  0.32969  1.0000
  C   C3        1.0  0.32348  0.49371  0.32912  1.0000
  N   N2        1.0  0.29278  0.44367  0.32751  1.0000
  C   C4        1.0  0.29458  0.42096  0.32875  1.0000
  C   C5        1.0  0.32216  0.42975  0.33245  1.0000
  C   C6        1.0  0.33610  0.45748  0.32797  1.0000
  C   C7        1.0  0.27333  0.39358  0.32622  1.0000
  N   N3        1.0  0.23321  0.40067  0.32395  1.0000
  C   C8        1.0  0.20588  0.38547  0.32148  1.0000
  C   C9        1.0  0.22435  0.35883  0.31590  1.0000
  C   C10       1.0  0.21459  0.46620  0.32272  1.0000
  C   C11       1.0  0.23582  0.49352  0.32530  1.0000
  C   C12       1.0  0.22845  0.51407  0.33040  1.0000
  C   C13       1.0  0.21470  0.51844  0.25998  1.0000
  C   C14       1.0  0.20759  0.53866  0.26593  1.0000
  C   C15       1.0  0.21550  0.55659  0.33954  1.0000
  C   C16       1.0  0.14555  0.35434  0.25680  1.0000
  C   C17       1.0  0.11831  0.33400  0.26334  1.0000
  C   C18       1.0  0.28055  0.37288  0.32660  1.0000
  C   C19       1.0  0.29739  0.33310  0.33169  1.0000
  C   C20       1.0  0.30592  0.35287  0.26323  1.0000
  C   C21       1.0  0.29664  0.37138  0.25809  1.0000
  C   C22       1.0  0.35144  0.51453  0.32994  1.0000
  C   C23       1.0  0.36217  0.53404  0.26147  1.0000
  C   C24       1.0  0.38868  0.55595  0.26666  1.0000
  C   C25       1.0  0.40680  0.55815  0.33529  1.0000
  H   H1        1.0  0.39422  0.57067  0.21958  1.0000
  H   H2        1.0  0.35015  0.53345  0.21005  1.0000
  H   H3        1.0  0.28363  0.54547  0.33283  1.0000
  H   H4        1.0  0.26649  0.46718  0.31925  1.0000
  H   H5        1.0  0.24283  0.41997  0.32964  1.0000
  H   H6        1.0  0.35665  0.46884  0.32719  1.0000
  H   H7        1.0  0.33130  0.41835  0.33551  1.0000
  H   H8        1.0  0.30323  0.38500  0.20682  1.0000
  H   H9        1.0  0.31966  0.35465  0.21638  1.0000
  H   H10       1.0  0.22563  0.34170  0.31135  1.0000
  H   H11       1.0  0.15628  0.35507  0.20129  1.0000
  H   H12       1.0  0.11039  0.32039  0.21239  1.0000
  H   H13       1.0  0.19698  0.54045  0.21423  1.0000
  H   H14       1.0  0.20943  0.50664  0.20413  1.0000
  C   C26       1.0  0.53678  0.75620  0.33195  1.0000
  C   C27       1.0  0.56344  0.80142  0.33029  1.0000
  N   N4        1.0  0.62140  0.84873  0.32807  1.0000
  C   C28       1.0  0.64411  0.87324  0.32920  1.0000
  C   C29       1.0  0.63531  0.89202  0.33282  1.0000
  C   C30       1.0  0.60758  0.87822  0.32849  1.0000
  C   C31       1.0  0.67149  0.87936  0.32662  1.0000
  C   C32       1.0  0.67960  0.82002  0.32194  1.0000
  C   C33       1.0  0.70625  0.86513  0.31639  1.0000
  C   C34       1.0  0.59887  0.74801  0.32323  1.0000
  C   C35       1.0  0.54665  0.69589  0.26034  1.0000
  C   C36       1.0  0.52643  0.66855  0.26627  1.0000
  C   C37       1.0  0.71077  0.79084  0.25726  1.0000
  C   C38       1.0  0.73110  0.78392  0.26379  1.0000
  C   C39       1.0  0.69218  0.90727  0.32695  1.0000
  C   C40       1.0  0.71222  0.95263  0.26343  1.0000
  C   C41       1.0  0.69372  0.92484  0.25833  1.0000
  C   C42       1.0  0.53103  0.82770  0.26202  1.0000
  C   C43       1.0  0.50914  0.83233  0.26705  1.0000
  H   H15       1.0  0.49445  0.82315  0.21992  1.0000
  H   H16       1.0  0.53167  0.81629  0.21058  1.0000
  H   H17       1.0  0.51960  0.73777  0.33370  1.0000
  H   H18       1.0  0.59623  0.88742  0.32753  1.0000
  H   H19       1.0  0.64672  0.91256  0.33575  1.0000
  H   H20       1.0  0.68010  0.91780  0.20712  1.0000
  H   H21       1.0  0.71044  0.96458  0.21658  1.0000
  H   H22       1.0  0.72338  0.88354  0.31225  1.0000
  H   H23       1.0  0.71006  0.80084  0.20176  1.0000
  H   H24       1.0  0.74472  0.78961  0.21284  1.0000
  H   H25       1.0  0.52466  0.65616  0.21457  1.0000
  H   H26       1.0  0.55846  0.70243  0.20448  1.0000
  C   C44       1.0  0.28484  0.75620  0.33601  1.0000
  C   C45       1.0  0.30888  0.78020  0.33092  1.0000
  C   C46       1.0  0.30324  0.80128  0.32661  1.0000
  N   N5        1.0  0.27586  0.78899  0.32454  1.0000
  C   C47       1.0  0.26366  0.76165  0.32932  1.0000
  C   C48       1.0  0.23569  0.74160  0.32878  1.0000
  N   N6        1.0  0.21635  0.77230  0.32714  1.0000
  C   C49       1.0  0.19184  0.77050  0.32829  1.0000
  C   C50       1.0  0.17305  0.74292  0.33194  1.0000
  C   C51       1.0  0.18685  0.72899  0.32762  1.0000
  C   C52       1.0  0.18572  0.79176  0.32568  1.0000
  C   C53       1.0  0.20559  0.81969  0.32193  1.0000
  N   N7        1.0  0.23293  0.83188  0.32351  1.0000
  C   C54       1.0  0.24506  0.85921  0.32105  1.0000
  C   C55       1.0  0.22394  0.86482  0.31844  1.0000
  C   C56       1.0  0.19996  0.84075  0.31555  1.0000
  C   C57       1.0  0.27301  0.87905  0.32166  1.0000
  N   N8        1.0  0.29250  0.84852  0.32167  1.0000
  C   C58       1.0  0.31708  0.85050  0.32254  1.0000
  C   C59       1.0  0.32317  0.82926  0.32500  1.0000
  C   C60       1.0  0.35108  0.83663  0.33020  1.0000
  C   C61       1.0  0.36925  0.85042  0.25987  1.0000
  C   C62       1.0  0.39658  0.85753  0.26596  1.0000
  C   C63       1.0  0.40656  0.84958  0.33960  1.0000
  C   C64       1.0  0.28026  0.90688  0.32636  1.0000
  C   C65       1.0  0.27428  0.91958  0.25645  1.0000
  C   C66       1.0  0.28116  0.94681  0.26310  1.0000
  C   C67       1.0  0.29615  0.96306  0.33639  1.0000
  C   C68       1.0  0.15781  0.78455  0.32607  1.0000
  C   C69       1.0  0.10118  0.76767  0.33123  1.0000
  C   C70       1.0  0.11245  0.75920  0.26269  1.0000
  C   C71       1.0  0.14024  0.76848  0.25754  1.0000
  C   C72       1.0  0.22856  0.71364  0.32961  1.0000
  C   C73       1.0  0.23736  0.70293  0.26114  1.0000
  C   C74       1.0  0.23279  0.67644  0.26639  1.0000
  C   C75       1.0  0.21684  0.65829  0.33498  1.0000
  H   H27       1.0  0.24198  0.67091  0.21931  1.0000
  H   H28       1.0  0.24882  0.71498  0.20978  1.0000
  H   H29       1.0  0.32730  0.78145  0.33269  1.0000
  H   H30       1.0  0.26617  0.79860  0.31885  1.0000
  H   H31       1.0  0.24261  0.82225  0.32856  1.0000
  H   H32       1.0  0.17765  0.70844  0.32670  1.0000
  H   H33       1.0  0.15252  0.73379  0.33490  1.0000
  H   H34       1.0  0.14727  0.76191  0.20626  1.0000
  H   H35       1.0  0.10050  0.74546  0.21587  1.0000
  H   H36       1.0  0.18155  0.83948  0.31125  1.0000
  H   H37       1.0  0.26433  0.90888  0.20089  1.0000
  H   H38       1.0  0.27551  0.95476  0.21214  1.0000
  H   H39       1.0  0.40902  0.86819  0.21435  1.0000
  H   H40       1.0  0.36276  0.85571  0.20400  1.0000
  C   C76       1.0  0.78358  0.54150  0.33044  1.0000
  N   N9        1.0  0.79425  0.59947  0.32841  1.0000
  C   C77       1.0  0.79246  0.62218  0.32949  1.0000
  C   C78       1.0  0.76487  0.61339  0.33313  1.0000
  C   C79       1.0  0.75094  0.58566  0.32887  1.0000
  C   C80       1.0  0.81372  0.64956  0.32685  1.0000
  C   C81       1.0  0.88116  0.65765  0.32207  1.0000
  C   C82       1.0  0.86271  0.68431  0.31686  1.0000
  C   C83       1.0  0.87243  0.57691  0.32335  1.0000
  C   C84       1.0  0.87232  0.52468  0.26049  1.0000
  C   C85       1.0  0.87943  0.50445  0.26643  1.0000
  C   C86       1.0  0.94148  0.68878  0.25702  1.0000
  C   C87       1.0  0.96871  0.70914  0.26349  1.0000
  C   C88       1.0  0.80650  0.67025  0.32714  1.0000
  C   C89       1.0  0.78116  0.69024  0.26363  1.0000
  C   C90       1.0  0.79051  0.67179  0.25843  1.0000
  C   C91       1.0  0.72487  0.50911  0.26227  1.0000
  C   C92       1.0  0.69836  0.48721  0.26742  1.0000
  H   H41       1.0  0.69284  0.47250  0.22034  1.0000
  H   H42       1.0  0.73692  0.50971  0.21087  1.0000
  H   H43       1.0  0.80337  0.49764  0.33347  1.0000
  H   H44       1.0  0.73039  0.57431  0.32761  1.0000
  H   H45       1.0  0.75575  0.62480  0.33577  1.0000
  H   H46       1.0  0.78390  0.65814  0.20729  1.0000
  H   H47       1.0  0.76744  0.68845  0.21674  1.0000
  H   H48       1.0  0.86145  0.70145  0.31267  1.0000
  H   H49       1.0  0.93074  0.68806  0.20161  1.0000
  H   H50       1.0  0.97662  0.72275  0.21250  1.0000
  H   H51       1.0  0.89009  0.50270  0.21479  1.0000
  H   H52       1.0  0.87762  0.53650  0.20467  1.0000
  C   C93       1.0  0.44291  0.16989  0.32977  1.0000
  C   C94       1.0  0.45171  0.15110  0.33348  1.0000
  C   C95       1.0  0.47944  0.16490  0.32907  1.0000
  C   C96       1.0  0.54040  0.34726  0.26096  1.0000
  C   C97       1.0  0.56061  0.37460  0.26690  1.0000
  C   C98       1.0  0.37632  0.25231  0.25743  1.0000
  C   C99       1.0  0.35597  0.25921  0.26383  1.0000
  C   C100      1.0  0.37487  0.09052  0.26369  1.0000
  C   C101      1.0  0.39338  0.11832  0.25875  1.0000
  C   C102      1.0  0.55598  0.21539  0.26247  1.0000
  C   C103      1.0  0.57789  0.21079  0.26757  1.0000
  H   H53       1.0  0.59260  0.21998  0.22045  1.0000
  H   H54       1.0  0.55538  0.22683  0.21107  1.0000
  H   H55       1.0  0.56742  0.30535  0.33386  1.0000
  H   H56       1.0  0.49079  0.15570  0.32829  1.0000
  H   H57       1.0  0.40702  0.12539  0.20754  1.0000
  H   H58       1.0  0.37667  0.07860  0.21675  1.0000
  H   H59       1.0  0.36366  0.15959  0.31227  1.0000
  H   H60       1.0  0.37709  0.24233  0.20196  1.0000
  H   H61       1.0  0.34239  0.25352  0.21283  1.0000
  H   H62       1.0  0.56239  0.38700  0.21521  1.0000
  H   H63       1.0  0.52860  0.34073  0.20513  1.0000
  C   C104      1.0  0.77814  0.26292  0.33193  1.0000
  N   N10       1.0  0.81116  0.25413  0.32532  1.0000
  C   C105      1.0  0.82336  0.28147  0.33016  1.0000
  N   N11       1.0  0.87067  0.27083  0.32785  1.0000
  C   C106      1.0  0.89518  0.27263  0.32895  1.0000
  C   C107      1.0  0.91396  0.30021  0.33253  1.0000
  C   C108      1.0  0.90016  0.31414  0.32820  1.0000
  C   C109      1.0  0.90130  0.25137  0.32638  1.0000
  N   N12       1.0  0.85410  0.21125  0.32413  1.0000
  C   C110      1.0  0.84196  0.18392  0.32174  1.0000
  C   C111      1.0  0.88707  0.20238  0.31621  1.0000
  C   C112      1.0  0.76995  0.19263  0.32316  1.0000
  C   C113      1.0  0.76385  0.21386  0.32572  1.0000
  C   C114      1.0  0.71781  0.19274  0.26052  1.0000
  C   C115      1.0  0.69047  0.18562  0.26659  1.0000
  C   C116      1.0  0.68046  0.19354  0.34026  1.0000
  C   C117      1.0  0.81280  0.12359  0.25708  1.0000
  C   C118      1.0  0.80589  0.09634  0.26361  1.0000
  C   C119      1.0  0.92921  0.25859  0.32670  1.0000
  C   C120      1.0  0.98584  0.27547  0.33169  1.0000
  C   C121      1.0  0.97458  0.28394  0.26317  1.0000
  C   C122      1.0  0.94678  0.27463  0.25806  1.0000
  C   C123      1.0  0.85845  0.32948  0.33032  1.0000
  C   C124      1.0  0.84963  0.34019  0.26195  1.0000
  C   C125      1.0  0.85426  0.36671  0.26705  1.0000
  H   H64       1.0  0.84508  0.37224  0.21998  1.0000
  H   H65       1.0  0.83823  0.32816  0.21052  1.0000
  H   H66       1.0  0.75971  0.26167  0.33374  1.0000
  H   H67       1.0  0.82085  0.24453  0.31927  1.0000
  H   H68       1.0  0.90936  0.33469  0.32723  1.0000
  H   H69       1.0  0.93450  0.30934  0.33543  1.0000
  H   H70       1.0  0.93975  0.28122  0.20684  1.0000
  H   H71       1.0  0.98653  0.29768  0.21630  1.0000
  H   H72       1.0  0.90549  0.20366  0.31207  1.0000
  H   H73       1.0  0.82279  0.13431  0.20156  1.0000
  H   H74       1.0  0.81159  0.08843  0.21266  1.0000
  H   H75       1.0  0.67807  0.17500  0.21493  1.0000
  H   H76       1.0  0.72434  0.18748  0.20462  1.0000
  C   C126      1.0  0.21346  0.59355  0.26102  1.0000
  C   C127      1.0  0.21313  0.61790  0.26026  1.0000
  H   H77       1.0  0.21424  0.62635  0.19936  1.0000
  H   H78       1.0  0.21649  0.58685  0.20157  1.0000
  H   H79       1.0  0.17784  0.56897  0.02774  1.0000
  H   H80       1.0  0.21317  0.58195  0.03851  1.0000
  C   C128      1.0  0.47155  0.61952  0.26136  1.0000
  C   C129      1.0  0.44721  0.59483  0.26059  1.0000
  H   H81       1.0  0.43879  0.58749  0.19969  1.0000
  H   H82       1.0  0.47827  0.62925  0.20192  1.0000
  H   H83       1.0  0.49607  0.60848  0.02811  1.0000
  H   H84       1.0  0.48311  0.63085  0.03884  1.0000
  C   C130      1.0  0.44563  0.85171  0.26130  1.0000
  C   C131      1.0  0.47031  0.85204  0.26068  1.0000
  H   H85       1.0  0.47770  0.85095  0.19983  1.0000
  H   H86       1.0  0.43594  0.84870  0.20181  1.0000
  H   H87       1.0  0.45640  0.88712  0.02817  1.0000
  H   H88       1.0  0.43401  0.85178  0.03871  1.0000
  C   C132      1.0  0.87362  0.44959  0.26156  1.0000
  C   C133      1.0  0.87395  0.42524  0.26084  1.0000
  H   H89       1.0  0.87287  0.41680  0.19995  1.0000
  H   H90       1.0  0.87060  0.45629  0.20211  1.0000
  H   H91       1.0  0.90914  0.47416  0.02833  1.0000
  H   H92       1.0  0.87380  0.46119  0.03903  1.0000
  C   C134      1.0  0.61549  0.42364  0.26202  1.0000
  C   C135      1.0  0.63983  0.44833  0.26128  1.0000
  H   H93       1.0  0.64828  0.45567  0.20038  1.0000
  H   H94       1.0  0.60880  0.41391  0.20259  1.0000
  H   H95       1.0  0.59089  0.43462  0.02878  1.0000
  H   H96       1.0  0.60388  0.41227  0.03950  1.0000
  C   C136      1.0  0.64144  0.19146  0.26192  1.0000
  C   C137      1.0  0.61675  0.19113  0.26128  1.0000
  H   H97       1.0  0.60940  0.19222  0.20042  1.0000
  H   H98       1.0  0.65115  0.19447  0.20243  1.0000
  H   H99       1.0  0.63058  0.15596  0.02871  1.0000
  H   H100      1.0  0.65294  0.19130  0.03936  1.0000
  C   C138      1.0  0.05838  0.30803  0.25802  1.0000
  C   C139      1.0  0.03011  0.29344  0.25718  1.0000
  H   H101      1.0  0.02098  0.28955  0.19624  1.0000
  H   H102      1.0  0.06787  0.31515  0.19841  1.0000
  H   H103      1.0  0.06621  0.28373  0.02768  1.0000
  H   H104      1.0  0.07146  0.31705  0.03533  1.0000
  C   C140      1.0  0.75708  0.74998  0.25840  1.0000
  C   C141      1.0  0.77163  0.73625  0.25760  1.0000
  H   H105      1.0  0.77558  0.73104  0.19666  1.0000
  H   H106      1.0  0.74996  0.75232  0.19881  1.0000
  H   H107      1.0  0.78133  0.78211  0.02806  1.0000
  H   H108      1.0  0.74802  0.75403  0.03574  1.0000
  C   C142      1.0  0.31509  0.00675  0.25797  1.0000
  C   C143      1.0  0.32879  0.03502  0.25728  1.0000
  H   H109      1.0  0.33408  0.04420  0.19640  1.0000
  H   H110      1.0  0.31280  0.99731  0.19834  1.0000
  H   H111      1.0  0.28284  0.99868  0.02760  1.0000
  H   H112      1.0  0.31092  0.99345  0.03525  1.0000
  C   C144      1.0  0.02864  0.73513  0.25784  1.0000
  C   C145      1.0  0.05691  0.74970  0.25688  1.0000
  H   H113      1.0  0.06605  0.75358  0.19592  1.0000
  H   H114      1.0  0.01916  0.72798  0.19829  1.0000
  H   H115      1.0  0.02095  0.75950  0.02751  1.0000
  H   H116      1.0  0.01568  0.72618  0.03522  1.0000
  C   C146      1.0  0.32997  0.29312  0.25827  1.0000
  C   C147      1.0  0.31539  0.30682  0.25732  1.0000
  H   H117      1.0  0.31153  0.31208  0.19636  1.0000
  H   H118      1.0  0.33715  0.29081  0.19873  1.0000
  H   H119      1.0  0.30554  0.26101  0.02792  1.0000
  H   H120      1.0  0.33884  0.28909  0.03565  1.0000
  C   C148      1.0  0.77197  0.03642  0.25825  1.0000
  C   C149      1.0  0.75827  0.00814  0.25742  1.0000
  H   H121      1.0  0.75304  0.99901  0.19648  1.0000
  H   H122      1.0  0.77431  0.04589  0.19865  1.0000
  H   H123      1.0  0.80405  0.04426  0.02793  1.0000
  H   H124      1.0  0.77597  0.04950  0.03558  1.0000
  C   C150      1.0  0.30888  0.52826  0.33632  1.0000
  C   C151      1.0  0.26380  0.50157  0.32699  1.0000
  C   C152      1.0  0.31735  0.46633  0.32813  1.0000
  C   C153      1.0  0.24540  0.38552  0.32239  1.0000
  C   C154      1.0  0.20028  0.35874  0.31873  1.0000
  C   C155      1.0  0.18604  0.39357  0.32216  1.0000
  C   C156      1.0  0.19208  0.42091  0.32136  1.0000
  N   N13       1.0  0.21657  0.44360  0.32198  1.0000
  C   C157      1.0  0.18699  0.45736  0.32308  1.0000
  C   C158      1.0  0.17319  0.42960  0.31970  1.0000
  C   C159      1.0  0.22995  0.55237  0.40844  1.0000
  C   C160      1.0  0.23514  0.53083  0.40611  1.0000
  C   C161      1.0  0.15820  0.37299  0.32676  1.0000
  C   C162      1.0  0.10202  0.33274  0.33657  1.0000
  C   C163      1.0  0.11481  0.35237  0.40440  1.0000
  C   C164      1.0  0.14254  0.37122  0.40183  1.0000
  C   C165      1.0  0.27198  0.35351  0.39552  1.0000
  C   C166      1.0  0.27906  0.33324  0.39511  1.0000
  C   C167      1.0  0.36903  0.51658  0.39936  1.0000
  C   C168      1.0  0.39635  0.53697  0.39899  1.0000
  H   H125      1.0  0.40838  0.53594  0.44697  1.0000
  H   H126      1.0  0.36223  0.50269  0.44978  1.0000
  H   H127      1.0  0.32719  0.54540  0.34316  1.0000
  H   H128      1.0  0.25981  0.35354  0.44543  1.0000
  H   H129      1.0  0.27061  0.31870  0.44290  1.0000
  H   H130      1.0  0.18189  0.34152  0.31714  1.0000
  H   H131      1.0  0.17785  0.46877  0.32509  1.0000
  H   H132      1.0  0.15264  0.41804  0.31813  1.0000
  H   H133      1.0  0.15088  0.38476  0.45294  1.0000
  H   H134      1.0  0.10402  0.35393  0.45590  1.0000
  H   H135      1.0  0.24543  0.52855  0.45798  1.0000
  H   H136      1.0  0.23790  0.56551  0.46050  1.0000
  C   C169      1.0  0.53681  0.78023  0.33714  1.0000
  C   C170      1.0  0.56350  0.76185  0.32749  1.0000
  N   N14       1.0  0.57859  0.78922  0.32545  1.0000
  C   C171      1.0  0.57136  0.82939  0.32968  1.0000
  C   C172      1.0  0.59873  0.85062  0.32867  1.0000
  C   C173      1.0  0.67955  0.85949  0.32282  1.0000
  N   N15       1.0  0.66440  0.83215  0.32435  1.0000
  C   C174      1.0  0.70634  0.84115  0.31934  1.0000
  C   C175      1.0  0.67149  0.79208  0.32254  1.0000
  C   C176      1.0  0.64416  0.77078  0.32180  1.0000
  N   N16       1.0  0.62147  0.77258  0.32250  1.0000
  C   C177      1.0  0.60771  0.72924  0.32341  1.0000
  C   C178      1.0  0.63547  0.74320  0.32014  1.0000
  C   C179      1.0  0.57155  0.74191  0.32574  1.0000
  C   C180      1.0  0.55100  0.71399  0.33080  1.0000
  C   C181      1.0  0.50848  0.65852  0.33989  1.0000
  C   C182      1.0  0.51267  0.67721  0.40878  1.0000
  C   C183      1.0  0.53425  0.70391  0.40660  1.0000
  C   C184      1.0  0.69208  0.78482  0.32717  1.0000
  C   C185      1.0  0.73232  0.76888  0.33700  1.0000
  C   C186      1.0  0.71268  0.76205  0.40484  1.0000
  C   C187      1.0  0.69381  0.77090  0.40220  1.0000
  C   C188      1.0  0.71152  0.91809  0.39590  1.0000
  C   C189      1.0  0.73178  0.94544  0.39546  1.0000
  C   C190      1.0  0.73196  0.96389  0.33192  1.0000
  C   C191      1.0  0.55053  0.83651  0.33046  1.0000
  C   C192      1.0  0.54845  0.85207  0.39980  1.0000
  C   C193      1.0  0.50691  0.84826  0.33561  1.0000
  C   C194      1.0  0.52806  0.85899  0.39936  1.0000
  H   H137      1.0  0.52907  0.87207  0.44730  1.0000
  H   H138      1.0  0.56233  0.85918  0.45023  1.0000
  H   H139      1.0  0.51968  0.78141  0.34406  1.0000
  H   H140      1.0  0.59788  0.79891  0.31945  1.0000
  H   H141      1.0  0.64509  0.82247  0.32962  1.0000
  H   H142      1.0  0.71145  0.90591  0.44591  1.0000
  H   H143      1.0  0.74631  0.95155  0.44328  1.0000
  H   H144      1.0  0.72356  0.83998  0.31803  1.0000
  H   H145      1.0  0.59629  0.70869  0.32530  1.0000
  H   H146      1.0  0.64703  0.73421  0.31826  1.0000
  H   H147      1.0  0.68026  0.76571  0.45333  1.0000
  H   H148      1.0  0.71108  0.74967  0.45626  1.0000
  H   H149      1.0  0.53648  0.71649  0.45839  1.0000
  H   H150      1.0  0.49952  0.67200  0.46086  1.0000
  C   C195      1.0  0.21446  0.74774  0.32778  1.0000
  C   C196      1.0  0.29431  0.87301  0.32100  1.0000
  C   C197      1.0  0.33585  0.87810  0.32282  1.0000
  C   C198      1.0  0.32188  0.89190  0.31949  1.0000
  C   C199      1.0  0.38782  0.83507  0.40839  1.0000
  C   C200      1.0  0.36110  0.82991  0.40600  1.0000
  C   C201      1.0  0.30298  0.95023  0.40413  1.0000
  C   C202      1.0  0.29409  0.92250  0.40151  1.0000
  C   C203      1.0  0.14698  0.79308  0.39502  1.0000
  C   C204      1.0  0.11962  0.78597  0.39467  1.0000
  C   C205      1.0  0.21299  0.69603  0.39901  1.0000
  C   C206      1.0  0.20607  0.66871  0.39865  1.0000
  H   H151      1.0  0.19298  0.65666  0.44661  1.0000
  H   H152      1.0  0.20587  0.70281  0.44941  1.0000
  H   H153      1.0  0.28367  0.73789  0.34297  1.0000
  H   H154      1.0  0.15915  0.80520  0.44501  1.0000
  H   H155      1.0  0.11351  0.79438  0.44253  1.0000
  H   H156      1.0  0.22511  0.88321  0.31706  1.0000
  H   H157      1.0  0.35640  0.88724  0.32483  1.0000
  H   H158      1.0  0.33087  0.91245  0.31768  1.0000
  H   H159      1.0  0.29932  0.91415  0.45253  1.0000
  H   H160      1.0  0.31532  0.96100  0.45562  1.0000
  H   H161      1.0  0.34848  0.81958  0.45777  1.0000
  H   H162      1.0  0.39298  0.82713  0.46053  1.0000
  C   C207      1.0  0.77812  0.51486  0.33705  1.0000
  C   C208      1.0  0.80212  0.51482  0.33193  1.0000
  C   C209      1.0  0.82321  0.54155  0.32759  1.0000
  N   N17       1.0  0.81092  0.55664  0.32562  1.0000
  C   C210      1.0  0.76354  0.54942  0.32996  1.0000
  C   C211      1.0  0.76968  0.57680  0.32903  1.0000
  C   C212      1.0  0.84165  0.65761  0.32311  1.0000
  N   N18       1.0  0.85383  0.64246  0.32457  1.0000
  C   C213      1.0  0.88678  0.68439  0.31965  1.0000
  C   C214      1.0  0.90099  0.64953  0.32252  1.0000
  C   C215      1.0  0.89495  0.62220  0.32178  1.0000
  N   N19       1.0  0.87045  0.59951  0.32254  1.0000
  C   C216      1.0  0.90003  0.58574  0.32353  1.0000
  C   C217      1.0  0.91383  0.61350  0.32008  1.0000
  C   C218      1.0  0.85119  0.54959  0.32584  1.0000
  C   C219      1.0  0.85855  0.52903  0.33092  1.0000
  C   C220      1.0  0.87149  0.48650  0.34003  1.0000
  C   C221      1.0  0.85699  0.49071  0.40891  1.0000
  C   C222      1.0  0.85183  0.51226  0.40666  1.0000
  C   C223      1.0  0.92883  0.67012  0.32702  1.0000
  C   C224      1.0  0.98501  0.71040  0.33662  1.0000
  C   C225      1.0  0.97222  0.69075  0.40445  1.0000
  C   C226      1.0  0.94450  0.67189  0.40199  1.0000
  C   C227      1.0  0.81499  0.68959  0.39613  1.0000
  C   C228      1.0  0.80789  0.70984  0.39564  1.0000
  C   C229      1.0  0.78962  0.70999  0.33210  1.0000
  C   C230      1.0  0.73558  0.52860  0.33075  1.0000
  C   C231      1.0  0.71795  0.52655  0.40014  1.0000
  C   C232      1.0  0.68020  0.48499  0.33601  1.0000
  C   C233      1.0  0.69063  0.50616  0.39971  1.0000
  H   H163      1.0  0.67857  0.50719  0.44765  1.0000
  H   H164      1.0  0.72472  0.54044  0.45053  1.0000
  H   H165      1.0  0.75982  0.49773  0.34393  1.0000
  H   H166      1.0  0.82054  0.57594  0.32003  1.0000
  H   H167      1.0  0.84419  0.62314  0.32944  1.0000
  H   H168      1.0  0.82710  0.68953  0.44615  1.0000
  H   H169      1.0  0.81629  0.72437  0.44348  1.0000
  H   H170      1.0  0.90517  0.70160  0.31830  1.0000
  H   H171      1.0  0.90916  0.57432  0.32554  1.0000
  H   H172      1.0  0.93438  0.62505  0.31840  1.0000
  H   H173      1.0  0.93617  0.65834  0.45313  1.0000
  H   H174      1.0  0.98302  0.68920  0.45590  1.0000
  H   H175      1.0  0.84151  0.51453  0.45849  1.0000
  H   H176      1.0  0.84905  0.47757  0.46103  1.0000
  C   C234      1.0  0.55022  0.26289  0.33740  1.0000
  C   C235      1.0  0.55025  0.28692  0.33249  1.0000
  C   C236      1.0  0.52352  0.28128  0.32805  1.0000
  N   N20       1.0  0.50844  0.25390  0.32601  1.0000
  C   C237      1.0  0.52358  0.24171  0.33080  1.0000
  C   C238      1.0  0.51566  0.21374  0.33023  1.0000
  C   C239      1.0  0.48829  0.19250  0.32924  1.0000
  N   N21       1.0  0.46562  0.19440  0.32859  1.0000
  C   C240      1.0  0.41553  0.16377  0.32717  1.0000
  C   C241      1.0  0.40748  0.18363  0.32335  1.0000
  N   N22       1.0  0.42262  0.21097  0.32492  1.0000
  C   C242      1.0  0.40742  0.22310  0.32239  1.0000
  C   C243      1.0  0.38069  0.20198  0.31963  1.0000
  C   C244      1.0  0.38078  0.17799  0.31683  1.0000
  C   C245      1.0  0.41553  0.25105  0.32301  1.0000
  C   C246      1.0  0.44286  0.27235  0.32226  1.0000
  N   N23       1.0  0.46555  0.27055  0.32295  1.0000
  C   C247      1.0  0.48815  0.29512  0.32371  1.0000
  C   C248      1.0  0.47931  0.31389  0.32403  1.0000
  C   C249      1.0  0.45155  0.29992  0.32059  1.0000
  C   C250      1.0  0.51548  0.30122  0.32632  1.0000
  C   C251      1.0  0.53603  0.32913  0.33139  1.0000
  C   C252      1.0  0.57854  0.38461  0.34050  1.0000
  C   C253      1.0  0.57431  0.36592  0.40942  1.0000
  C   C254      1.0  0.55279  0.33920  0.40710  1.0000
  C   C255      1.0  0.39494  0.25830  0.32747  1.0000
  C   C256      1.0  0.35467  0.27421  0.33703  1.0000
  C   C257      1.0  0.37428  0.28105  0.40491  1.0000
  C   C258      1.0  0.39313  0.27218  0.40248  1.0000
  C   C259      1.0  0.39484  0.13585  0.32737  1.0000
  C   C260      1.0  0.37544  0.12499  0.39622  1.0000
  C   C261      1.0  0.35517  0.09764  0.39560  1.0000
  C   C262      1.0  0.35506  0.07923  0.33204  1.0000
  C   C263      1.0  0.53649  0.20661  0.33099  1.0000
  C   C264      1.0  0.53854  0.19105  0.40037  1.0000
  C   C265      1.0  0.58011  0.19486  0.33615  1.0000
  C   C266      1.0  0.55894  0.18413  0.39993  1.0000
  H   H177      1.0  0.55791  0.17106  0.44790  1.0000
  H   H178      1.0  0.52465  0.18395  0.45083  1.0000
  H   H179      1.0  0.56735  0.26172  0.34424  1.0000
  H   H180      1.0  0.48914  0.24422  0.32037  1.0000
  H   H181      1.0  0.44192  0.22065  0.33060  1.0000
  H   H182      1.0  0.44030  0.13057  0.33651  1.0000
  H   H183      1.0  0.37544  0.13715  0.44620  1.0000
  H   H184      1.0  0.34060  0.09150  0.44334  1.0000
  H   H185      1.0  0.36347  0.20314  0.31800  1.0000
  H   H186      1.0  0.49073  0.33444  0.32604  1.0000
  H   H187      1.0  0.44000  0.30892  0.31897  1.0000
  H   H188      1.0  0.40665  0.27738  0.45365  1.0000
  H   H189      1.0  0.37581  0.29340  0.45638  1.0000
  H   H190      1.0  0.55049  0.32662  0.45898  1.0000
  H   H191      1.0  0.58745  0.37111  0.46148  1.0000
  C   C267      1.0  0.80217  0.28692  0.33707  1.0000
  C   C268      1.0  0.78379  0.24184  0.32743  1.0000
  C   C269      1.0  0.85132  0.30152  0.32950  1.0000
  C   C270      1.0  0.87256  0.29539  0.32844  1.0000
  C   C271      1.0  0.88143  0.22344  0.32261  1.0000
  C   C272      1.0  0.86309  0.17831  0.31916  1.0000
  C   C273      1.0  0.81402  0.16408  0.32236  1.0000
  C   C274      1.0  0.79272  0.17012  0.32166  1.0000
  N   N24       1.0  0.79452  0.19461  0.32238  1.0000
  C   C275      1.0  0.75118  0.16503  0.32336  1.0000
  C   C276      1.0  0.76515  0.15123  0.32003  1.0000
  C   C277      1.0  0.73594  0.20649  0.33090  1.0000
  C   C278      1.0  0.69917  0.20802  0.40907  1.0000
  C   C279      1.0  0.72587  0.21315  0.40676  1.0000
  C   C280      1.0  0.80677  0.13624  0.32700  1.0000
  C   C281      1.0  0.79086  0.08006  0.33686  1.0000
  C   C282      1.0  0.78401  0.09286  0.40467  1.0000
  C   C283      1.0  0.79285  0.12058  0.40202  1.0000
  C   C284      1.0  0.94004  0.25007  0.39565  1.0000
  C   C285      1.0  0.96739  0.25718  0.39522  1.0000
  C   C286      1.0  0.87402  0.34709  0.39968  1.0000
  C   C287      1.0  0.87020  0.38484  0.33561  1.0000
  C   C288      1.0  0.88094  0.37441  0.39928  1.0000
  H   H192      1.0  0.89402  0.38646  0.44722  1.0000
  H   H193      1.0  0.88113  0.34031  0.45005  1.0000
  H   H194      1.0  0.80335  0.30522  0.34402  1.0000
  H   H195      1.0  0.84442  0.22088  0.32938  1.0000
  H   H196      1.0  0.92785  0.23795  0.44567  1.0000
  H   H197      1.0  0.97351  0.24877  0.44306  1.0000
  H   H198      1.0  0.86193  0.15993  0.31787  1.0000
  H   H199      1.0  0.73063  0.15589  0.32528  1.0000
  H   H200      1.0  0.75616  0.13068  0.31815  1.0000
  H   H201      1.0  0.78764  0.12892  0.45315  1.0000
  H   H202      1.0  0.77162  0.08207  0.45610  1.0000
  H   H203      1.0  0.73847  0.22349  0.45850  1.0000
  H   H204      1.0  0.69398  0.21596  0.46120  1.0000
  C   C289      1.0  0.21283  0.63116  0.33970  1.0000
  C   C290      1.0  0.20958  0.61669  0.42046  1.0000
  C   C291      1.0  0.20770  0.59085  0.42024  1.0000
  C   C292      1.0  0.21144  0.57958  0.34087  1.0000
  N   N25       1.0  0.20276  0.57753  0.49927  1.0000
  C   C293      1.0  0.20070  0.58746  0.57897  1.0000
  C   C294      1.0  0.20461  0.61373  0.58003  1.0000
  N   N26       1.0  0.20867  0.62686  0.50154  1.0000
  H   H205      1.0  0.20390  0.62275  0.63785  1.0000
  C   C295      1.0  0.19582  0.57149  0.66083  1.0000
  H   H206      1.0  0.19298  0.55156  0.64601  1.0000
  C   C296      1.0  0.43392  0.58128  0.34003  1.0000
  C   C297      1.0  0.44835  0.59251  0.42079  1.0000
  C   C298      1.0  0.47420  0.61647  0.42059  1.0000
  C   C299      1.0  0.48549  0.63148  0.34122  1.0000
  N   N27       1.0  0.48748  0.62485  0.49963  1.0000
  C   C300      1.0  0.47753  0.61286  0.57932  1.0000
  C   C301      1.0  0.45124  0.59051  0.58038  1.0000
  N   N28       1.0  0.43816  0.58143  0.50187  1.0000
  H   H207      1.0  0.44222  0.58076  0.63818  1.0000
  C   C302      1.0  0.49347  0.62395  0.66119  1.0000
  H   H208      1.0  0.51342  0.64104  0.64637  1.0000
  C   C303      1.0  0.48381  0.85229  0.34019  1.0000
  C   C304      1.0  0.47251  0.85547  0.42090  1.0000
  C   C305      1.0  0.44855  0.85736  0.42055  1.0000
  C   C306      1.0  0.43362  0.85369  0.34109  1.0000
  N   N29       1.0  0.44010  0.86224  0.49955  1.0000
  C   C307      1.0  0.45202  0.86425  0.57931  1.0000
  C   C308      1.0  0.47437  0.86032  0.58049  1.0000
  N   N30       1.0  0.48352  0.85633  0.50204  1.0000
  H   H209      1.0  0.48406  0.86101  0.63836  1.0000
  C   C309      1.0  0.44086  0.86907  0.66112  1.0000
  H   H210      1.0  0.42378  0.87193  0.64620  1.0000
  C   C310      1.0  0.87422  0.41197  0.34029  1.0000
  C   C311      1.0  0.87742  0.42642  0.42104  1.0000
  C   C312      1.0  0.87929  0.45227  0.42079  1.0000
  C   C313      1.0  0.87560  0.46355  0.34140  1.0000
  N   N31       1.0  0.88418  0.46557  0.49982  1.0000
  C   C314      1.0  0.88620  0.45563  0.57953  1.0000
  C   C315      1.0  0.88229  0.42935  0.58062  1.0000
  N   N32       1.0  0.87829  0.41625  0.50213  1.0000
  H   H211      1.0  0.88299  0.42034  0.63845  1.0000
  C   C316      1.0  0.89104  0.47158  0.66138  1.0000
  H   H212      1.0  0.89389  0.49152  0.64653  1.0000
  C   C317      1.0  0.65308  0.46188  0.34071  1.0000
  C   C318      1.0  0.63860  0.45063  0.42147  1.0000
  C   C319      1.0  0.61276  0.42666  0.42125  1.0000
  C   C320      1.0  0.60150  0.41167  0.34187  1.0000
  N   N33       1.0  0.59944  0.41825  0.50028  1.0000
  C   C321      1.0  0.60936  0.43022  0.57999  1.0000
  C   C322      1.0  0.63563  0.45259  0.58104  1.0000
  N   N34       1.0  0.64876  0.46169  0.50256  1.0000
  H   H213      1.0  0.64464  0.46231  0.63888  1.0000
  C   C323      1.0  0.59339  0.41910  0.66185  1.0000
  H   H214      1.0  0.57345  0.40200  0.64702  1.0000
  C   C324      1.0  0.60322  0.19086  0.34079  1.0000
  C   C325      1.0  0.61447  0.18764  0.42149  1.0000
  C   C326      1.0  0.63844  0.18576  0.42117  1.0000
  C   C327      1.0  0.65342  0.18947  0.34172  1.0000
  N   N35       1.0  0.64684  0.18085  0.50016  1.0000
  C   C328      1.0  0.63488  0.17882  0.57991  1.0000
  C   C329      1.0  0.61252  0.18273  0.58107  1.0000
  N   N36       1.0  0.60342  0.18675  0.50263  1.0000
  H   H215      1.0  0.60281  0.18204  0.63894  1.0000
  C   C330      1.0  0.64599  0.17397  0.66173  1.0000
  H   H216      1.0  0.66309  0.17112  0.64682  1.0000
  C   C331      1.0  0.01468  0.28602  0.33669  1.0000
  C   C332      1.0  0.02940  0.29097  0.41777  1.0000
  C   C333      1.0  0.05814  0.30382  0.41775  1.0000
  C   C334      1.0  0.07328  0.31431  0.33812  1.0000
  N   N37       1.0  0.07066  0.30634  0.49716  1.0000
  C   C335      1.0  0.05795  0.29860  0.57692  1.0000
  C   C336      1.0  0.02984  0.28779  0.57758  1.0000
  N   N38       1.0  0.01705  0.28441  0.49879  1.0000
  H   H217      1.0  0.01899  0.28204  0.63540  1.0000
  C   C337      1.0  0.07355  0.30282  0.65922  1.0000
  H   H218      1.0  0.09495  0.31104  0.64473  1.0000
  C   C338      1.0  0.77905  0.72827  0.33711  1.0000
  C   C339      1.0  0.77407  0.73804  0.41817  1.0000
  C   C340      1.0  0.76121  0.75392  0.41815  1.0000
  C   C341      1.0  0.75073  0.75854  0.33852  1.0000
  N   N39       1.0  0.75867  0.76392  0.49756  1.0000
  C   C342      1.0  0.76639  0.75897  0.57732  1.0000
  C   C343      1.0  0.77723  0.74169  0.57798  1.0000
  N   N40       1.0  0.78062  0.73227  0.49920  1.0000
  H   H219      1.0  0.78297  0.73660  0.63581  1.0000
  C   C344      1.0  0.76215  0.77035  0.65962  1.0000
  H   H220      1.0  0.75392  0.78352  0.64511  1.0000
  C   C345      1.0  0.33674  0.05039  0.33687  1.0000
  C   C346      1.0  0.32694  0.03561  0.41787  1.0000
  C   C347      1.0  0.31105  0.00687  0.41772  1.0000
  C   C348      1.0  0.30649  0.99180  0.33802  1.0000
  N   N41       1.0  0.30102  0.99430  0.49708  1.0000
  C   C349      1.0  0.30593  0.00694  0.57689  1.0000
  C   C350      1.0  0.32321  0.03505  0.57768  1.0000
  N   N42       1.0  0.33266  0.04790  0.49895  1.0000
  H   H221      1.0  0.32827  0.04586  0.63556  1.0000
  C   C351      1.0  0.29451  0.99128  0.65912  1.0000
  H   H222      1.0  0.28135  0.96988  0.64452  1.0000
  C   C352      1.0  0.07234  0.75713  0.33633  1.0000
  C   C353      1.0  0.05762  0.75217  0.41747  1.0000
  C   C354      1.0  0.02888  0.73933  0.41757  1.0000
  C   C355      1.0  0.01374  0.72883  0.33801  1.0000
  N   N43       1.0  0.01636  0.73681  0.49704  1.0000
  C   C356      1.0  0.02906  0.74455  0.57675  1.0000
  C   C357      1.0  0.05717  0.75534  0.57729  1.0000
  N   N44       1.0  0.06996  0.75873  0.49845  1.0000
  H   H223      1.0  0.06802  0.76113  0.63506  1.0000
  C   C358      1.0  0.01346  0.74035  0.65910  1.0000
  H   H224      1.0  0.99206  0.73213  0.64469  1.0000
  C   C359      1.0  0.30791  0.31479  0.33677  1.0000
  C   C360      1.0  0.31284  0.30503  0.41791  1.0000
  C   C361      1.0  0.32570  0.28914  0.41801  1.0000
  C   C362      1.0  0.33624  0.28453  0.33844  1.0000
  N   N45       1.0  0.32820  0.27914  0.49746  1.0000
  C   C363      1.0  0.32042  0.28409  0.57716  1.0000
  C   C364      1.0  0.30959  0.30138  0.57772  1.0000
  N   N46       1.0  0.30624  0.31079  0.49887  1.0000
  H   H225      1.0  0.30380  0.30646  0.63549  1.0000
  C   C365      1.0  0.32460  0.27270  0.65952  1.0000
  H   H226      1.0  0.33284  0.25953  0.64512  1.0000
  C   C366      1.0  0.75026  0.99273  0.33693  1.0000
  C   C367      1.0  0.76000  0.00745  0.41801  1.0000
  C   C368      1.0  0.77588  0.03620  0.41800  1.0000
  C   C369      1.0  0.78051  0.05132  0.33837  1.0000
  N   N47       1.0  0.78586  0.04872  0.49742  1.0000
  C   C370      1.0  0.78089  0.03602  0.57718  1.0000
  C   C371      1.0  0.76361  0.00791  0.57782  1.0000
  N   N48       1.0  0.75422  0.99511  0.49903  1.0000
  H   H227      1.0  0.75851  0.99707  0.63565  1.0000
  C   C372      1.0  0.79226  0.05163  0.65948  1.0000
  H   H228      1.0  0.80544  0.07304  0.64498  1.0000
