data_image0
_chemical_formula_structural       C3NC3NC5NC5NC36H26C4H4C3HC2H3ONC4HC2H3ONC16H16CN6
_chemical_formula_sum              "C84 N12 H54 O2"
_cell_length_a       34.3435
_cell_length_b       34.3433
_cell_length_c       14.6842
_cell_angle_alpha    90
_cell_angle_beta     90
_cell_angle_gamma    90.1689

_space_group_name_H-M_alt    "P 1"
_space_group_IT_number       1

loop_
  _space_group_symop_operation_xyz
  'x, y, z'

loop_
  _atom_site_type_symbol
  _atom_site_label
  _atom_site_symmetry_multiplicity
  _atom_site_fract_x
  _atom_site_fract_y
  _atom_site_fract_z
  _atom_site_occupancy
  C   C1        1.0  0.90773  0.93737  0.34106  1.0000
  C   C2        1.0  0.93635  0.90916  0.34048  1.0000
  C   C3        1.0  0.97265  0.92764  0.34165  1.0000
  N   N1        1.0  0.96451  0.96636  0.34276  1.0000
  C   C4        1.0  0.92568  0.97395  0.34186  1.0000
  C   C5        1.0  0.90556  0.01026  0.34155  1.0000
  C   C6        1.0  0.92431  0.04730  0.34159  1.0000
  N   N2        1.0  0.96296  0.05527  0.34267  1.0000
  C   C7        1.0  0.97042  0.09402  0.34125  1.0000
  C   C8        1.0  0.93404  0.11210  0.33944  1.0000
  C   C9        1.0  0.90574  0.08342  0.33937  1.0000
  C   C10       1.0  0.00719  0.11329  0.34140  1.0000
  C   C11       1.0  0.04378  0.09373  0.34197  1.0000
  N   N3        1.0  0.05192  0.05503  0.34201  1.0000
  C   C12       1.0  0.09074  0.04747  0.34125  1.0000
  C   C13       1.0  0.10868  0.08406  0.34161  1.0000
  C   C14       1.0  0.08006  0.11226  0.34171  1.0000
  C   C15       1.0  0.11087  0.01117  0.34040  1.0000
  C   C16       1.0  0.09213  0.97414  0.34064  1.0000
  N   N4        1.0  0.05347  0.96614  0.34157  1.0000
  C   C17       1.0  0.04602  0.92738  0.34061  1.0000
  C   C18       1.0  0.08243  0.90934  0.33942  1.0000
  C   C19       1.0  0.11072  0.93803  0.33898  1.0000
  C   C20       1.0  0.00925  0.90807  0.34069  1.0000
  C   C21       1.0  0.00927  0.86627  0.33738  1.0000
  C   C22       1.0  0.01546  0.84655  0.25423  1.0000
  C   C23       1.0  0.01720  0.80556  0.25120  1.0000
  C   C24       1.0  0.01265  0.78258  0.33082  1.0000
  C   C25       1.0  0.01620  0.74083  0.32767  1.0000
  C   C26       1.0  0.02362  0.65703  0.31775  1.0000
  C   C27       1.0  0.04956  0.68218  0.27089  1.0000
  C   C28       1.0  0.04595  0.72297  0.27571  1.0000
  C   C29       1.0  0.15266  0.01195  0.33703  1.0000
  C   C30       1.0  0.17227  0.01873  0.25392  1.0000
  C   C31       1.0  0.21325  0.02075  0.25066  1.0000
  C   C32       1.0  0.23633  0.01589  0.32997  1.0000
  C   C33       1.0  0.27811  0.01945  0.32653  1.0000
  C   C34       1.0  0.29608  0.04936  0.27496  1.0000
  C   C35       1.0  0.33689  0.05292  0.26977  1.0000
  C   C36       1.0  0.36193  0.02676  0.31585  1.0000
  C   C37       1.0  0.00725  0.15505  0.33777  1.0000
  C   C38       1.0  0.00497  0.23871  0.32930  1.0000
  C   C39       1.0  0.00253  0.21551  0.24952  1.0000
  C   C40       1.0  0.00369  0.17453  0.25349  1.0000
  C   C41       1.0  0.00200  0.28049  0.32457  1.0000
  C   C42       1.0  0.97419  0.29825  0.26690  1.0000
  C   C43       1.0  0.97149  0.33900  0.25912  1.0000
  C   C44       1.0  0.99638  0.36422  0.30877  1.0000
  C   C45       1.0  0.86378  0.00959  0.33802  1.0000
  C   C46       1.0  0.84427  0.00367  0.25447  1.0000
  C   C47       1.0  0.80328  0.00230  0.25065  1.0000
  C   C48       1.0  0.78007  0.00698  0.32984  1.0000
  C   C49       1.0  0.73827  0.00406  0.32546  1.0000
  C   C50       1.0  0.65451  0.99862  0.30978  1.0000
  C   C51       1.0  0.67945  0.97215  0.26441  1.0000
  C   C52       1.0  0.72022  0.97477  0.27216  1.0000
  H   H1        1.0  0.66811  0.95061  0.22400  1.0000
  H   H2        1.0  0.73671  0.95468  0.23822  1.0000
  H   H3        1.0  0.79046  0.99815  0.18850  1.0000
  H   H4        1.0  0.85985  0.00005  0.19564  1.0000
  H   H5        1.0  0.87853  0.93155  0.34020  1.0000
  H   H6        1.0  0.93098  0.87988  0.33900  1.0000
  H   H7        1.0  0.98417  0.98630  0.34334  1.0000
  H   H8        1.0  0.03226  0.03508  0.34142  1.0000
  H   H9        1.0  0.87646  0.08857  0.33760  1.0000
  H   H10       1.0  0.92850  0.14131  0.33798  1.0000
  H   H11       1.0  0.00157  0.15893  0.19426  1.0000
  H   H12       1.0  0.00008  0.22832  0.18690  1.0000
  H   H13       1.0  0.08542  0.14155  0.34147  1.0000
  H   H14       1.0  0.13788  0.08990  0.34153  1.0000
  H   H15       1.0  0.08802  0.88013  0.33862  1.0000
  H   H16       1.0  0.14001  0.93290  0.33764  1.0000
  H   H17       1.0  0.15675  0.02261  0.19510  1.0000
  H   H18       1.0  0.22617  0.02558  0.18888  1.0000
  H   H19       1.0  0.34819  0.07500  0.23090  1.0000
  H   H20       1.0  0.27951  0.06935  0.24095  1.0000
  H   H21       1.0  0.06580  0.73963  0.24117  1.0000
  H   H22       1.0  0.07153  0.67099  0.23172  1.0000
  H   H23       1.0  0.02170  0.79256  0.18941  1.0000
  H   H24       1.0  0.01923  0.86199  0.19522  1.0000
  H   H25       1.0  0.95521  0.28157  0.22981  1.0000
  H   H26       1.0  0.95102  0.35010  0.21558  1.0000
  C   C53       1.0  0.02732  0.61662  0.30713  1.0000
  C   C54       1.0  0.40234  0.03041  0.30489  1.0000
  C   C55       1.0  0.99383  0.40447  0.29429  1.0000
  C   C56       1.0  0.61429  0.99618  0.29480  1.0000
  H   H27       1.0  0.04680  0.60704  0.26213  1.0000
  H   H28       1.0  0.60552  0.98091  0.24098  1.0000
  H   H29       1.0  0.97898  0.41318  0.23986  1.0000
  H   H30       1.0  0.41200  0.04968  0.25938  1.0000
  C   C57       1.0  0.00770  0.47002  0.33882  1.0000
  C   C58       1.0  0.00171  0.49077  0.25681  1.0000
  C   C59       1.0  0.00141  0.53204  0.25625  1.0000
  H   H31       1.0  0.99735  0.47588  0.19736  1.0000
  C   C60       1.0  0.99329  0.55232  0.17676  1.0000
  C   C61       1.0  0.01863  0.54866  0.09832  1.0000
  H   H32       1.0  0.04918  0.54987  0.11888  1.0000
  H   H33       1.0  0.01339  0.57261  0.05099  1.0000
  H   H34       1.0  0.01328  0.52120  0.06288  1.0000
  O   O1        1.0  0.95851  0.55562  0.16030  1.0000
  N   N5        1.0  0.00838  0.43105  0.34651  1.0000
  C   C62       1.0  0.54884  0.01075  0.33807  1.0000
  C   C63       1.0  0.52818  0.00465  0.25592  1.0000
  C   C64       1.0  0.48691  0.00446  0.25498  1.0000
  C   C65       1.0  0.46685  0.01092  0.33824  1.0000
  H   H35       1.0  0.54315  0.00013  0.19668  1.0000
  C   C66       1.0  0.46669  0.99623  0.17540  1.0000
  C   C67       1.0  0.47071  0.02139  0.09670  1.0000
  H   H36       1.0  0.46975  0.05198  0.11688  1.0000
  H   H37       1.0  0.44679  0.01613  0.04921  1.0000
  H   H38       1.0  0.49818  0.01587  0.06156  1.0000
  O   O2        1.0  0.46308  0.96143  0.15934  1.0000
  N   N6        1.0  0.58780  0.01130  0.34612  1.0000
  C   C68       1.0  0.00562  0.80263  0.41360  1.0000
  C   C69       1.0  0.00418  0.84369  0.41702  1.0000
  C   C70       1.0  0.99054  0.71574  0.37568  1.0000
  C   C71       1.0  0.99400  0.67478  0.37047  1.0000
  C   C72       1.0  0.21639  0.00840  0.41272  1.0000
  C   C73       1.0  0.17535  0.00664  0.41638  1.0000
  C   C74       1.0  0.34406  0.99700  0.36821  1.0000
  C   C75       1.0  0.30310  0.99359  0.37378  1.0000
  C   C76       1.0  0.01025  0.17782  0.41769  1.0000
  C   C77       1.0  0.00933  0.21889  0.41337  1.0000
  C   C78       1.0  0.02381  0.34664  0.36785  1.0000
  C   C79       1.0  0.02639  0.30568  0.37586  1.0000
  C   C80       1.0  0.84099  0.01478  0.41728  1.0000
  C   C81       1.0  0.79992  0.01367  0.41309  1.0000
  C   C82       1.0  0.71334  0.03006  0.37253  1.0000
  C   C83       1.0  0.67236  0.02755  0.36460  1.0000
  H   H39       1.0  0.65565  0.04772  0.39765  1.0000
  H   H40       1.0  0.72492  0.05213  0.41083  1.0000
  H   H41       1.0  0.78458  0.01663  0.47240  1.0000
  H   H42       1.0  0.85423  0.01906  0.47894  1.0000
  H   H43       1.0  0.01267  0.16457  0.47986  1.0000
  H   H44       1.0  0.01055  0.23422  0.47304  1.0000
  H   H45       1.0  0.16204  0.00189  0.47778  1.0000
  H   H46       1.0  0.23162  0.00533  0.47216  1.0000
  H   H47       1.0  0.29162  0.97109  0.41084  1.0000
  H   H48       1.0  0.36077  0.97705  0.40198  1.0000
  H   H49       1.0  0.99994  0.85707  0.47849  1.0000
  H   H50       1.0  0.00288  0.78748  0.47327  1.0000
  H   H51       1.0  0.97422  0.65799  0.40489  1.0000
  H   H52       1.0  0.96820  0.72713  0.41317  1.0000
  H   H53       1.0  0.04736  0.29432  0.41754  1.0000
  H   H54       1.0  0.04278  0.36355  0.40438  1.0000
  C   C84       1.0  0.00766  0.55202  0.33975  1.0000
  N   N7        1.0  0.01302  0.52996  0.41565  1.0000
  N   N8        1.0  0.01324  0.49173  0.41513  1.0000
  N   N9        1.0  0.00684  0.59083  0.34966  1.0000
  N   N10       1.0  0.48883  0.01636  0.41428  1.0000
  N   N11       1.0  0.52705  0.01650  0.41412  1.0000
  N   N12       1.0  0.42803  0.01016  0.34799  1.0000
