data_image0
_chemical_formula_structural       HCH3CH2CNCOCH3NCNCOCH3N2CHNCHCNCOCH3NCNCOCH3N2CHNCHNCOCH3NCOCH3C6HOC6OH5C4H4C6HOC6OH5C4H4C6HOC6OH5C4H4C6HOC6OH4C3H2C6HOC6OH4C3H2NC2HN2C2HNC2NCOCH3N2C2NCOCH3N3C2HN2C2HNC2NCOCH3N2C2NCOCH3N2CNC2HN2CNC2HN2
_chemical_formula_sum              "H90 C130 N40 O20"
_cell_length_a       33.1143
_cell_length_b       41.5013
_cell_length_c       14.75
_cell_angle_alpha    88.207
_cell_angle_beta     91.4055
_cell_angle_gamma    90.3231

_space_group_name_H-M_alt    "P 1"
_space_group_IT_number       1

loop_
  _space_group_symop_operation_xyz
  'x, y, z'

loop_
  _atom_site_type_symbol
  _atom_site_label
  _atom_site_symmetry_multiplicity
  _atom_site_fract_x
  _atom_site_fract_y
  _atom_site_fract_z
  _atom_site_occupancy
  H   H1        1.0  0.77558  0.37935  0.35455  1.0000
  C   C1        1.0  0.84781  0.35514  0.36217  1.0000
  H   H2        1.0  0.84813  0.37974  0.35686  1.0000
  H   H3        1.0  0.58152  0.32579  0.31095  1.0000
  H   H4        1.0  0.18611  0.67019  0.35426  1.0000
  C   C2        1.0  0.11404  0.69422  0.36186  1.0000
  H   H5        1.0  0.11361  0.66974  0.35660  1.0000
  H   H6        1.0  0.37924  0.72466  0.31074  1.0000
  C   C3        1.0  0.15050  0.19056  0.39266  1.0000
  N   N1        1.0  0.15226  0.13292  0.37947  1.0000
  C   C4        1.0  0.17230  0.16194  0.37921  1.0000
  O   O1        1.0  0.21322  0.16271  0.37018  1.0000
  C   C5        1.0  0.22495  0.16247  0.27714  1.0000
  H   H7        1.0  0.25781  0.16321  0.27560  1.0000
  H   H8        1.0  0.21340  0.18352  0.23860  1.0000
  H   H9        1.0  0.21471  0.14053  0.24430  1.0000
  N   N2        1.0  0.16780  0.22081  0.39516  1.0000
  C   C6        1.0  0.81204  0.85810  0.39252  1.0000
  N   N3        1.0  0.80998  0.91602  0.37891  1.0000
  C   C7        1.0  0.78995  0.88700  0.37861  1.0000
  O   O2        1.0  0.74886  0.88641  0.36905  1.0000
  C   C8        1.0  0.73536  0.88859  0.27583  1.0000
  H   H10       1.0  0.70246  0.88787  0.27385  1.0000
  H   H11       1.0  0.74619  0.86834  0.23765  1.0000
  H   H12       1.0  0.74496  0.91121  0.24289  1.0000
  N   N4        1.0  0.79482  0.82779  0.39499  1.0000
  N   N5        1.0  0.78319  0.17759  0.37609  1.0000
  C   C9        1.0  0.79439  0.14602  0.37751  1.0000
  H   H13       1.0  0.77278  0.12842  0.38022  1.0000
  N   N6        1.0  0.17894  0.87146  0.37632  1.0000
  C   C10       1.0  0.16777  0.90300  0.37779  1.0000
  H   H14       1.0  0.18943  0.92054  0.38057  1.0000
  C   C11       1.0  0.25459  0.48663  0.36422  1.0000
  N   N7        1.0  0.22809  0.53960  0.38075  1.0000
  C   C12       1.0  0.22125  0.50738  0.37145  1.0000
  O   O3        1.0  0.18261  0.49573  0.37264  1.0000
  C   C13       1.0  0.16285  0.49735  0.28492  1.0000
  H   H15       1.0  0.13241  0.48761  0.29165  1.0000
  H   H16       1.0  0.17855  0.48293  0.23616  1.0000
  H   H17       1.0  0.16038  0.52220  0.25869  1.0000
  N   N8        1.0  0.25007  0.45414  0.35740  1.0000
  C   C14       1.0  0.70734  0.56270  0.36424  1.0000
  N   N9        1.0  0.73420  0.50936  0.38082  1.0000
  C   C15       1.0  0.74084  0.54178  0.37148  1.0000
  O   O4        1.0  0.77950  0.55340  0.37266  1.0000
  C   C16       1.0  0.79736  0.55372  0.28492  1.0000
  H   H18       1.0  0.82795  0.56330  0.29164  1.0000
  H   H19       1.0  0.78060  0.56922  0.23616  1.0000
  H   H20       1.0  0.79925  0.52945  0.25870  1.0000
  N   N10       1.0  0.71171  0.59534  0.35733  1.0000
  N   N11       1.0  0.98847  0.37080  0.37430  1.0000
  C   C17       1.0  0.94724  0.37244  0.36800  1.0000
  H   H21       1.0  0.93353  0.39394  0.35278  1.0000
  N   N12       1.0  0.97364  0.67832  0.37406  1.0000
  C   C18       1.0  0.01473  0.67681  0.36770  1.0000
  H   H22       1.0  0.02810  0.65566  0.35240  1.0000
  N   N13       1.0  0.49317  0.34204  0.30445  1.0000
  C   C19       1.0  0.45260  0.33957  0.28697  1.0000
  O   O5        1.0  0.43862  0.34165  0.19909  1.0000
  C   C20       1.0  0.43873  0.31121  0.15557  1.0000
  H   H23       1.0  0.42715  0.31491  0.08628  1.0000
  H   H24       1.0  0.41921  0.29362  0.18990  1.0000
  H   H25       1.0  0.46925  0.30149  0.15254  1.0000
  N   N14       1.0  0.46744  0.70855  0.30436  1.0000
  C   C21       1.0  0.50762  0.71138  0.28682  1.0000
  O   O6        1.0  0.51968  0.71118  0.19893  1.0000
  C   C22       1.0  0.51868  0.74256  0.15529  1.0000
  H   H26       1.0  0.52874  0.74034  0.08599  1.0000
  H   H27       1.0  0.53900  0.75938  0.18952  1.0000
  H   H28       1.0  0.48812  0.75240  0.15225  1.0000
  C   C23       1.0  0.95940  0.02665  0.38209  1.0000
  C   C24       1.0  0.93049  0.00086  0.38595  1.0000
  C   C25       1.0  0.88788  0.00506  0.38327  1.0000
  C   C26       1.0  0.87304  0.03714  0.38015  1.0000
  C   C27       1.0  0.89973  0.06396  0.37693  1.0000
  C   C28       1.0  0.94179  0.05783  0.37697  1.0000
  H   H29       1.0  0.94011  0.97773  0.39168  1.0000
  O   O7        1.0  0.83238  0.04230  0.37810  1.0000
  C   C29       1.0  0.00285  0.02227  0.38214  1.0000
  C   C30       1.0  0.02035  0.99119  0.37709  1.0000
  C   C31       1.0  0.06240  0.98507  0.37718  1.0000
  C   C32       1.0  0.08916  0.01181  0.38049  1.0000
  C   C33       1.0  0.07439  0.04382  0.38354  1.0000
  C   C34       1.0  0.03184  0.04796  0.38605  1.0000
  O   O8        1.0  0.12979  0.00669  0.37859  1.0000
  H   H30       1.0  0.02234  0.07097  0.39174  1.0000
  H   H31       1.0  0.82417  0.04245  0.44166  1.0000
  H   H32       1.0  0.13933  0.00513  0.44217  1.0000
  H   H33       1.0  0.95997  0.07752  0.37124  1.0000
  H   H34       1.0  0.00204  0.97164  0.37133  1.0000
  C   C35       1.0  0.88702  0.09656  0.37397  1.0000
  C   C36       1.0  0.86053  0.97844  0.38335  1.0000
  C   C37       1.0  0.07505  0.95253  0.37422  1.0000
  C   C38       1.0  0.10175  0.07043  0.38369  1.0000
  H   H35       1.0  0.13202  0.06636  0.37936  1.0000
  H   H36       1.0  0.90899  0.11400  0.37168  1.0000
  H   H37       1.0  0.83017  0.98261  0.37882  1.0000
  H   H38       1.0  0.05304  0.93514  0.37186  1.0000
  C   C39       1.0  0.19819  0.33156  0.38570  1.0000
  C   C40       1.0  0.19313  0.29710  0.39315  1.0000
  C   C41       1.0  0.15542  0.28173  0.41069  1.0000
  C   C42       1.0  0.12211  0.30226  0.42561  1.0000
  C   C43       1.0  0.12263  0.33542  0.40157  1.0000
  C   C44       1.0  0.16093  0.34910  0.38368  1.0000
  H   H39       1.0  0.21716  0.28236  0.38500  1.0000
  O   O9        1.0  0.08828  0.28987  0.46500  1.0000
  C   C45       1.0  0.23706  0.34778  0.37670  1.0000
  C   C46       1.0  0.27513  0.33159  0.38615  1.0000
  C   C47       1.0  0.31324  0.34664  0.37011  1.0000
  C   C48       1.0  0.31350  0.38014  0.34770  1.0000
  C   C49       1.0  0.27768  0.39863  0.35026  1.0000
  C   C50       1.0  0.24074  0.38200  0.36304  1.0000
  O   O10       1.0  0.34954  0.39590  0.33574  1.0000
  H   H40       1.0  0.21609  0.39628  0.36283  1.0000
  H   H41       1.0  0.09366  0.28993  0.53079  1.0000
  H   H42       1.0  0.35985  0.40152  0.39636  1.0000
  H   H43       1.0  0.16049  0.37310  0.36937  1.0000
  H   H44       1.0  0.27570  0.30768  0.40396  1.0000
  C   C51       1.0  0.08642  0.35389  0.39354  1.0000
  C   C52       1.0  0.14649  0.24802  0.41107  1.0000
  C   C53       1.0  0.35066  0.33066  0.38816  1.0000
  C   C54       1.0  0.28036  0.43281  0.34609  1.0000
  H   H45       1.0  0.30841  0.44274  0.33883  1.0000
  H   H46       1.0  0.08761  0.37788  0.37625  1.0000
  H   H47       1.0  0.11686  0.24290  0.42150  1.0000
  H   H48       1.0  0.35187  0.31191  0.43464  1.0000
  C   C55       1.0  0.76420  0.71729  0.38553  1.0000
  C   C56       1.0  0.76943  0.75158  0.39302  1.0000
  C   C57       1.0  0.80751  0.76654  0.41084  1.0000
  C   C58       1.0  0.84112  0.74568  0.42580  1.0000
  C   C59       1.0  0.84010  0.71307  0.40153  1.0000
  C   C60       1.0  0.80142  0.69980  0.38344  1.0000
  H   H49       1.0  0.74523  0.76650  0.38486  1.0000
  O   O11       1.0  0.87580  0.75716  0.46531  1.0000
  C   C61       1.0  0.72513  0.70127  0.37641  1.0000
  C   C62       1.0  0.68727  0.71726  0.38585  1.0000
  C   C63       1.0  0.64882  0.70256  0.36979  1.0000
  C   C64       1.0  0.64808  0.66955  0.34741  1.0000
  C   C65       1.0  0.68395  0.65100  0.35002  1.0000
  C   C66       1.0  0.72116  0.66735  0.36284  1.0000
  O   O12       1.0  0.61179  0.65404  0.33548  1.0000
  H   H50       1.0  0.74581  0.65307  0.36282  1.0000
  H   H51       1.0  0.87183  0.75560  0.53110  1.0000
  H   H52       1.0  0.60279  0.64709  0.39612  1.0000
  H   H53       1.0  0.80155  0.67612  0.36896  1.0000
  H   H54       1.0  0.68709  0.74077  0.40370  1.0000
  C   C67       1.0  0.87613  0.69477  0.39353  1.0000
  C   C68       1.0  0.81645  0.80024  0.41127  1.0000
  C   C69       1.0  0.61177  0.71812  0.38787  1.0000
  C   C70       1.0  0.68118  0.61691  0.34597  1.0000
  H   H55       1.0  0.65298  0.60714  0.33871  1.0000
  H   H56       1.0  0.87457  0.67120  0.37586  1.0000
  H   H57       1.0  0.84627  0.80514  0.42221  1.0000
  H   H58       1.0  0.61156  0.73581  0.43443  1.0000
  C   C71       1.0  0.73433  0.34004  0.36343  1.0000
  C   C72       1.0  0.73496  0.30567  0.36730  1.0000
  C   C73       1.0  0.77066  0.28696  0.36683  1.0000
  C   C74       1.0  0.80822  0.30369  0.36327  1.0000
  C   C75       1.0  0.81041  0.33792  0.36182  1.0000
  C   C76       1.0  0.77333  0.35494  0.35991  1.0000
  H   H59       1.0  0.70860  0.29323  0.37456  1.0000
  O   O13       1.0  0.84313  0.28650  0.36037  1.0000
  C   C77       1.0  0.69703  0.35799  0.36720  1.0000
  C   C78       1.0  0.65790  0.34372  0.35476  1.0000
  C   C79       1.0  0.62102  0.35962  0.37128  1.0000
  C   C80       1.0  0.62317  0.39250  0.39429  1.0000
  C   C81       1.0  0.66059  0.40948  0.39450  1.0000
  C   C82       1.0  0.69640  0.39166  0.38388  1.0000
  O   O14       1.0  0.58811  0.40907  0.40517  1.0000
  H   H60       1.0  0.72272  0.40407  0.39131  1.0000
  H   H61       1.0  0.84888  0.28421  0.29582  1.0000
  H   H62       1.0  0.57861  0.41630  0.34425  1.0000
  H   H63       1.0  0.65551  0.32056  0.33446  1.0000
  C   C83       1.0  0.76767  0.25272  0.37042  1.0000
  C   C84       1.0  0.58304  0.34443  0.35460  1.0000
  C   C85       1.0  0.66125  0.44354  0.39992  1.0000
  H   H64       1.0  0.63427  0.45488  0.40535  1.0000
  H   H65       1.0  0.74006  0.24164  0.37280  1.0000
  C   C86       1.0  0.22755  0.70930  0.36330  1.0000
  C   C87       1.0  0.22700  0.74359  0.36732  1.0000
  C   C88       1.0  0.19129  0.76230  0.36682  1.0000
  C   C89       1.0  0.15365  0.74565  0.36316  1.0000
  C   C90       1.0  0.15143  0.71146  0.36163  1.0000
  C   C91       1.0  0.18847  0.69447  0.35974  1.0000
  H   H66       1.0  0.25352  0.75586  0.37456  1.0000
  O   O15       1.0  0.11868  0.76291  0.36021  1.0000
  C   C92       1.0  0.26493  0.69127  0.36707  1.0000
  C   C93       1.0  0.30379  0.70582  0.35465  1.0000
  C   C94       1.0  0.34102  0.68957  0.37119  1.0000
  C   C95       1.0  0.33938  0.65618  0.39427  1.0000
  C   C96       1.0  0.30197  0.63918  0.39446  1.0000
  C   C97       1.0  0.26592  0.65723  0.38372  1.0000
  O   O16       1.0  0.37467  0.63937  0.40524  1.0000
  H   H67       1.0  0.23977  0.64465  0.39123  1.0000
  H   H68       1.0  0.11155  0.76664  0.29566  1.0000
  H   H69       1.0  0.38289  0.63350  0.34435  1.0000
  H   H70       1.0  0.30573  0.72944  0.33433  1.0000
  C   C98       1.0  0.19435  0.79646  0.37050  1.0000
  C   C99       1.0  0.37865  0.70513  0.35468  1.0000
  C   C100      1.0  0.30144  0.60500  0.39990  1.0000
  H   H71       1.0  0.32854  0.59355  0.40530  1.0000
  H   H72       1.0  0.22201  0.80749  0.37296  1.0000
  N   N15       1.0  0.10987  0.18644  0.40220  1.0000
  C   C101      1.0  0.08968  0.15804  0.40063  1.0000
  C   C102      1.0  0.11154  0.12965  0.38948  1.0000
  H   H73       1.0  0.05915  0.15767  0.40878  1.0000
  N   N16       1.0  0.09038  0.10153  0.38975  1.0000
  N   N17       1.0  0.85286  0.86203  0.40250  1.0000
  C   C103      1.0  0.87300  0.89046  0.40094  1.0000
  C   C104      1.0  0.85090  0.91909  0.38935  1.0000
  H   H74       1.0  0.90369  0.89068  0.40947  1.0000
  N   N18       1.0  0.87204  0.94721  0.38967  1.0000
  C   C105      1.0  0.81042  0.20225  0.37249  1.0000
  C   C106      1.0  0.83569  0.13811  0.37476  1.0000
  N   N19       1.0  0.86246  0.16300  0.37101  1.0000
  C   C107      1.0  0.85179  0.19448  0.37074  1.0000
  O   O17       1.0  0.88121  0.21755  0.36329  1.0000
  C   C108      1.0  0.90010  0.22478  0.44886  1.0000
  H   H75       1.0  0.92271  0.24342  0.43658  1.0000
  H   H76       1.0  0.91534  0.20373  0.47974  1.0000
  H   H77       1.0  0.87838  0.23399  0.49614  1.0000
  N   N20       1.0  0.80067  0.23378  0.37034  1.0000
  N   N21       1.0  0.84833  0.10704  0.37588  1.0000
  C   C109      1.0  0.15164  0.84688  0.37264  1.0000
  C   C110      1.0  0.12640  0.91097  0.37502  1.0000
  N   N22       1.0  0.09955  0.88615  0.37119  1.0000
  C   C111      1.0  0.11023  0.85469  0.37084  1.0000
  O   O18       1.0  0.08066  0.83177  0.36338  1.0000
  C   C112      1.0  0.06363  0.82264  0.44895  1.0000
  H   H78       1.0  0.04076  0.80426  0.43666  1.0000
  H   H79       1.0  0.04905  0.84299  0.47984  1.0000
  H   H80       1.0  0.08638  0.81237  0.49622  1.0000
  N   N23       1.0  0.16135  0.81540  0.37042  1.0000
  N   N24       1.0  0.11378  0.94200  0.37618  1.0000
  N   N25       1.0  0.29184  0.50062  0.36662  1.0000
  C   C113      1.0  0.29861  0.53254  0.37608  1.0000
  C   C114      1.0  0.26543  0.55345  0.38359  1.0000
  H   H81       1.0  0.32769  0.54060  0.37606  1.0000
  N   N26       1.0  0.26814  0.58599  0.39107  1.0000
  N   N27       1.0  0.67015  0.54865  0.36662  1.0000
  C   C115      1.0  0.66358  0.51653  0.37612  1.0000
  C   C116      1.0  0.69692  0.49545  0.38369  1.0000
  H   H82       1.0  0.63450  0.50847  0.37608  1.0000
  N   N28       1.0  0.69437  0.46275  0.39114  1.0000
  C   C117      1.0  0.00879  0.34283  0.39380  1.0000
  C   C118      1.0  0.92423  0.34397  0.38024  1.0000
  N   N29       1.0  0.94472  0.31641  0.39966  1.0000
  C   C119      1.0  0.98549  0.31460  0.40853  1.0000
  O   O19       1.0  0.00246  0.28517  0.42810  1.0000
  C   C120      1.0  0.99969  0.27561  0.52229  1.0000
  H   H83       1.0  0.01405  0.25217  0.53242  1.0000
  H   H84       1.0  0.96837  0.27326  0.54306  1.0000
  H   H85       1.0  0.01539  0.29265  0.56600  1.0000
  N   N30       1.0  0.04948  0.33978  0.39907  1.0000
  N   N31       1.0  0.88372  0.34008  0.37483  1.0000
  C   C121      1.0  0.95376  0.70585  0.39366  1.0000
  C   C122      1.0  0.03802  0.70500  0.38003  1.0000
  N   N32       1.0  0.01796  0.73213  0.39956  1.0000
  C   C123      1.0  0.97738  0.73374  0.40845  1.0000
  O   O20       1.0  0.96084  0.76272  0.42820  1.0000
  C   C124      1.0  0.96566  0.77014  0.52243  1.0000
  H   H86       1.0  0.95153  0.79335  0.53269  1.0000
  H   H87       1.0  0.99745  0.77202  0.54318  1.0000
  H   H88       1.0  0.95093  0.75210  0.56605  1.0000
  N   N33       1.0  0.91318  0.70878  0.39904  1.0000
  N   N34       1.0  0.07840  0.70900  0.37460  1.0000
  C   C125      1.0  0.42572  0.33665  0.35996  1.0000
  N   N35       1.0  0.44238  0.33727  0.44521  1.0000
  C   C126      1.0  0.48282  0.34092  0.46214  1.0000
  C   C127      1.0  0.50984  0.34291  0.38953  1.0000
  H   H89       1.0  0.49326  0.34200  0.52764  1.0000
  N   N36       1.0  0.38514  0.33863  0.34406  1.0000
  N   N37       1.0  0.54975  0.34943  0.40450  1.0000
  C   C128      1.0  0.53610  0.71267  0.35979  1.0000
  N   N38       1.0  0.52132  0.71026  0.44507  1.0000
  C   C129      1.0  0.48124  0.70627  0.46204  1.0000
  C   C130      1.0  0.45263  0.70586  0.38948  1.0000
  H   H90       1.0  0.47223  0.70380  0.52757  1.0000
  N   N39       1.0  0.57633  0.71110  0.34384  1.0000
  N   N40       1.0  0.41305  0.69902  0.40447  1.0000
