data_image0
_chemical_formula_structural       C3NC3NC5NC4NC35H25C21H18C16H16NCHNCHNC2HNCHNCHNC2HC18H17C3NC3NC2NC5NC34H24C3NC3NC5NC5NC36H26C2NCNO2C2NCNO2CNCNO2C2NCNO2C2NCNO2CNCNO2
_chemical_formula_sum              "C228 N30 H132 O12"
_cell_length_a       58.5887
_cell_length_b       58.5887
_cell_length_c       14.9785
_cell_angle_alpha    89.7732
_cell_angle_beta     90.2268
_cell_angle_gamma    120

_space_group_name_H-M_alt    "P 1"
_space_group_IT_number       1

loop_
  _space_group_symop_operation_xyz
  'x, y, z'

loop_
  _atom_site_type_symbol
  _atom_site_label
  _atom_site_symmetry_multiplicity
  _atom_site_fract_x
  _atom_site_fract_y
  _atom_site_fract_z
  _atom_site_occupancy
  C   C1        1.0  0.04936  0.64668  0.33588  1.0000
  C   C2        1.0  0.02214  0.63311  0.33490  1.0000
  C   C3        1.0  0.01348  0.60614  0.33350  1.0000
  N   N1        1.0  0.03569  0.60438  0.33369  1.0000
  C   C4        1.0  0.05794  0.62831  0.33504  1.0000
  C   C5        1.0  0.08476  0.63465  0.33510  1.0000
  C   C6        1.0  0.09342  0.61593  0.33387  1.0000
  N   N2        1.0  0.07849  0.58936  0.33353  1.0000
  C   C7        1.0  0.09335  0.57766  0.33235  1.0000
  C   C8        1.0  0.11956  0.59807  0.33174  1.0000
  C   C9        1.0  0.11960  0.62164  0.33308  1.0000
  C   C10       1.0  0.08462  0.55026  0.33205  1.0000
  C   C11       1.0  0.05778  0.52984  0.33326  1.0000
  N   N3        1.0  0.03557  0.53161  0.33359  1.0000
  C   C12       1.0  0.01332  0.50768  0.33506  1.0000
  C   C13       1.0  0.02191  0.48930  0.33581  1.0000
  C   C14       1.0  0.04912  0.50287  0.33467  1.0000
  C   C15       1.0  0.98650  0.50133  0.33528  1.0000
  N   N4        1.0  0.99277  0.54662  0.33382  1.0000
  C   C16       1.0  0.97790  0.55832  0.33265  1.0000
  C   C17       1.0  0.95170  0.53790  0.33195  1.0000
  C   C18       1.0  0.95166  0.51433  0.33325  1.0000
  C   C19       1.0  0.98664  0.58572  0.33241  1.0000
  C   C20       1.0  0.96689  0.59313  0.33076  1.0000
  C   C21       1.0  0.95816  0.59802  0.24875  1.0000
  C   C22       1.0  0.93736  0.60350  0.24658  1.0000
  C   C23       1.0  0.92467  0.60420  0.32602  1.0000
  C   C24       1.0  0.90243  0.60808  0.32333  1.0000
  C   C25       1.0  0.85948  0.59736  0.25960  1.0000
  C   C26       1.0  0.88205  0.59472  0.25988  1.0000
  C   C27       1.0  0.96672  0.47420  0.33738  1.0000
  C   C28       1.0  0.95490  0.46057  0.25762  1.0000
  C   C29       1.0  0.93435  0.43419  0.26034  1.0000
  C   C30       1.0  0.92499  0.42066  0.34259  1.0000
  C   C31       1.0  0.90316  0.39430  0.34542  1.0000
  C   C32       1.0  0.90068  0.37499  0.28338  1.0000
  C   C33       1.0  0.87852  0.34944  0.28390  1.0000
  C   C34       1.0  0.85824  0.34215  0.34743  1.0000
  C   C35       1.0  0.10435  0.54284  0.33030  1.0000
  C   C36       1.0  0.14615  0.53116  0.32565  1.0000
  C   C37       1.0  0.13362  0.53239  0.24610  1.0000
  C   C38       1.0  0.11303  0.53816  0.24824  1.0000
  C   C39       1.0  0.16808  0.52681  0.32307  1.0000
  C   C40       1.0  0.18856  0.54014  0.26018  1.0000
  C   C41       1.0  0.21080  0.53692  0.25985  1.0000
  C   C42       1.0  0.21354  0.52025  0.32241  1.0000
  C   C43       1.0  0.10457  0.66178  0.33713  1.0000
  C   C44       1.0  0.11651  0.67539  0.25742  1.0000
  C   C45       1.0  0.13728  0.70168  0.26016  1.0000
  C   C46       1.0  0.14675  0.71510  0.34239  1.0000
  C   C47       1.0  0.16889  0.74129  0.34530  1.0000
  C   C48       1.0  0.21451  0.79298  0.34723  1.0000
  C   C49       1.0  0.19430  0.78609  0.28326  1.0000
  C   C50       1.0  0.17180  0.76078  0.28280  1.0000
  H   H1        1.0  0.19575  0.79953  0.23645  1.0000
  H   H2        1.0  0.15752  0.75671  0.23596  1.0000
  H   H3        1.0  0.14610  0.71058  0.20130  1.0000
  H   H4        1.0  0.11061  0.66605  0.19708  1.0000
  H   H5        1.0  0.06076  0.66676  0.33671  1.0000
  H   H6        1.0  0.01078  0.64184  0.33531  1.0000
  H   H7        1.0  0.03567  0.58799  0.33235  1.0000
  H   H8        1.0  0.03559  0.54800  0.33227  1.0000
  H   H9        1.0  0.13621  0.63982  0.33318  1.0000
  H   H10       1.0  0.13613  0.59643  0.33088  1.0000
  H   H11       1.0  0.10469  0.53933  0.18943  1.0000
  H   H12       1.0  0.13945  0.52916  0.18542  1.0000
  H   H13       1.0  0.06048  0.49414  0.33500  1.0000
  H   H14       1.0  0.01051  0.46922  0.33673  1.0000
  H   H15       1.0  0.93506  0.49615  0.33323  1.0000
  H   H16       1.0  0.96077  0.46996  0.19723  1.0000
  H   H17       1.0  0.92563  0.42525  0.20141  1.0000
  H   H18       1.0  0.87739  0.33613  0.23748  1.0000
  H   H19       1.0  0.91505  0.37935  0.23691  1.0000
  H   H20       1.0  0.88292  0.58200  0.21522  1.0000
  H   H21       1.0  0.84486  0.58636  0.21481  1.0000
  H   H22       1.0  0.93147  0.60685  0.18592  1.0000
  H   H23       1.0  0.96655  0.59716  0.18998  1.0000
  H   H24       1.0  0.18800  0.55319  0.21585  1.0000
  H   H25       1.0  0.22552  0.54790  0.21546  1.0000
  C   C51       1.0  0.52419  0.61248  0.33511  1.0000
  C   C52       1.0  0.50378  0.61827  0.33444  1.0000
  C   C53       1.0  0.48021  0.59475  0.33571  1.0000
  C   C54       1.0  0.50380  0.45709  0.25150  1.0000
  C   C55       1.0  0.49833  0.43082  0.24930  1.0000
  C   C56       1.0  0.50445  0.35904  0.26218  1.0000
  C   C57       1.0  0.50711  0.38426  0.26256  1.0000
  C   C58       1.0  0.64120  0.59128  0.25975  1.0000
  C   C59       1.0  0.66759  0.59710  0.26213  1.0000
  C   C60       1.0  0.72681  0.62262  0.28453  1.0000
  C   C61       1.0  0.75236  0.62602  0.28462  1.0000
  C   C62       1.0  0.75971  0.61287  0.34783  1.0000
  C   C63       1.0  0.56946  0.69818  0.24888  1.0000
  C   C64       1.0  0.56369  0.67182  0.25102  1.0000
  C   C65       1.0  0.56169  0.74534  0.26297  1.0000
  C   C66       1.0  0.56490  0.77079  0.26262  1.0000
  C   C67       1.0  0.42651  0.53803  0.25954  1.0000
  C   C68       1.0  0.40023  0.53252  0.26196  1.0000
  C   C69       1.0  0.30885  0.51829  0.34763  1.0000
  C   C70       1.0  0.31579  0.50505  0.28402  1.0000
  C   C71       1.0  0.34111  0.50787  0.28397  1.0000
  H   H26       1.0  0.30240  0.49314  0.23713  1.0000
  H   H27       1.0  0.34522  0.49772  0.23735  1.0000
  H   H28       1.0  0.39136  0.53252  0.20297  1.0000
  H   H29       1.0  0.43590  0.54158  0.19930  1.0000
  H   H30       1.0  0.46203  0.59318  0.33581  1.0000
  H   H31       1.0  0.56251  0.66243  0.19222  1.0000
  H   H32       1.0  0.57268  0.70736  0.18820  1.0000
  H   H33       1.0  0.60771  0.66311  0.33763  1.0000
  H   H34       1.0  0.63177  0.58792  0.19945  1.0000
  H   H35       1.0  0.67649  0.59750  0.20305  1.0000
  H   H36       1.0  0.76562  0.63832  0.23814  1.0000
  H   H37       1.0  0.72240  0.63275  0.23829  1.0000
  H   H38       1.0  0.51983  0.39794  0.21789  1.0000
  H   H39       1.0  0.51549  0.35554  0.21749  1.0000
  H   H40       1.0  0.49498  0.42170  0.18862  1.0000
  H   H41       1.0  0.50470  0.46648  0.19272  1.0000
  H   H42       1.0  0.54865  0.73182  0.21861  1.0000
  H   H43       1.0  0.55393  0.77462  0.21819  1.0000
  C   C72       1.0  0.64462  0.14356  0.25288  1.0000
  C   C73       1.0  0.67089  0.16436  0.25019  1.0000
  C   C74       1.0  0.74266  0.24226  0.26154  1.0000
  C   C75       1.0  0.71744  0.21969  0.26241  1.0000
  C   C76       1.0  0.51055  0.14685  0.26236  1.0000
  C   C77       1.0  0.50470  0.16740  0.26476  1.0000
  C   C78       1.0  0.47921  0.20106  0.28722  1.0000
  C   C79       1.0  0.47583  0.22323  0.28731  1.0000
  C   C80       1.0  0.40379  0.96833  0.24968  1.0000
  C   C81       1.0  0.43016  0.98892  0.25236  1.0000
  C   C82       1.0  0.35660  0.91339  0.26264  1.0000
  C   C83       1.0  0.33115  0.89115  0.26176  1.0000
  C   C84       1.0  0.56382  0.98541  0.26208  1.0000
  C   C85       1.0  0.56936  0.96465  0.26451  1.0000
  C   C86       1.0  0.59678  0.90761  0.28665  1.0000
  C   C87       1.0  0.59397  0.93011  0.28658  1.0000
  H   H44       1.0  0.60871  0.90623  0.23979  1.0000
  H   H45       1.0  0.60413  0.94447  0.23997  1.0000
  H   H46       1.0  0.56933  0.95588  0.20553  1.0000
  H   H47       1.0  0.56028  0.99137  0.20182  1.0000
  H   H48       1.0  0.43963  0.99732  0.19375  1.0000
  H   H49       1.0  0.39470  0.96259  0.18882  1.0000
  H   H50       1.0  0.51392  0.14092  0.20206  1.0000
  H   H51       1.0  0.50435  0.17606  0.20572  1.0000
  H   H52       1.0  0.46355  0.22430  0.24080  1.0000
  H   H53       1.0  0.46908  0.18663  0.24095  1.0000
  H   H54       1.0  0.70369  0.21876  0.21794  1.0000
  H   H55       1.0  0.74610  0.25682  0.21663  1.0000
  H   H56       1.0  0.67991  0.17017  0.18935  1.0000
  H   H57       1.0  0.63514  0.13510  0.19430  1.0000
  H   H58       1.0  0.37020  0.91398  0.21861  1.0000
  H   H59       1.0  0.32740  0.87647  0.21731  1.0000
  N   N5        1.0  0.27542  0.52060  0.26343  1.0000
  C   C88       1.0  0.25281  0.52127  0.25162  1.0000
  H   H60       1.0  0.24789  0.52407  0.18868  1.0000
  N   N6        1.0  0.58123  0.85172  0.26608  1.0000
  C   C89       1.0  0.58056  0.82847  0.25429  1.0000
  H   H61       1.0  0.57776  0.82087  0.19137  1.0000
  N   N7        1.0  0.25022  0.82650  0.26374  1.0000
  C   C90       1.0  0.27350  0.84913  0.25241  1.0000
  C   C91       1.0  0.28644  0.86505  0.32729  1.0000
  H   H62       1.0  0.28119  0.85411  0.18963  1.0000
  N   N8        1.0  0.79364  0.61180  0.26361  1.0000
  C   C92       1.0  0.81656  0.61178  0.25181  1.0000
  H   H63       1.0  0.82161  0.60940  0.18880  1.0000
  N   N9        1.0  0.49006  0.27877  0.26629  1.0000
  C   C93       1.0  0.49008  0.30173  0.25447  1.0000
  H   H64       1.0  0.49245  0.30928  0.19146  1.0000
  N   N10       1.0  0.82294  0.30813  0.26392  1.0000
  C   C94       1.0  0.79996  0.28519  0.25261  1.0000
  C   C95       1.0  0.78726  0.26916  0.32761  1.0000
  H   H65       1.0  0.79230  0.28006  0.18975  1.0000
  C   C96       1.0  0.97784  0.52005  0.33409  1.0000
  C   C97       1.0  0.93393  0.59971  0.40806  1.0000
  C   C98       1.0  0.95471  0.59419  0.41051  1.0000
  C   C99       1.0  0.89940  0.62439  0.38597  1.0000
  C   C100      1.0  0.87676  0.62696  0.38584  1.0000
  C   C101      1.0  0.85629  0.61350  0.32268  1.0000
  C   C102      1.0  0.93730  0.43447  0.42207  1.0000
  C   C103      1.0  0.95783  0.46086  0.41968  1.0000
  C   C104      1.0  0.86063  0.36136  0.40945  1.0000
  C   C105      1.0  0.88270  0.38692  0.40854  1.0000
  C   C106      1.0  0.11639  0.54130  0.41013  1.0000
  C   C107      1.0  0.13696  0.53549  0.40771  1.0000
  C   C108      1.0  0.19297  0.50684  0.38506  1.0000
  C   C109      1.0  0.17066  0.50997  0.38518  1.0000
  C   C110      1.0  0.11353  0.67504  0.41938  1.0000
  C   C111      1.0  0.13428  0.70133  0.42179  1.0000
  C   C112      1.0  0.18927  0.74825  0.40885  1.0000
  C   C113      1.0  0.21167  0.77359  0.40978  1.0000
  H   H66       1.0  0.22642  0.77735  0.45434  1.0000
  H   H67       1.0  0.18854  0.73458  0.45322  1.0000
  H   H68       1.0  0.14029  0.71031  0.48264  1.0000
  H   H69       1.0  0.10530  0.66551  0.47812  1.0000
  H   H70       1.0  0.11067  0.54497  0.47035  1.0000
  H   H71       1.0  0.14586  0.53547  0.46660  1.0000
  H   H72       1.0  0.93513  0.53953  0.33104  1.0000
  H   H73       1.0  0.96602  0.47038  0.47843  1.0000
  H   H74       1.0  0.93138  0.42542  0.48292  1.0000
  H   H75       1.0  0.88312  0.40045  0.45254  1.0000
  H   H76       1.0  0.84581  0.35728  0.45372  1.0000
  H   H77       1.0  0.96043  0.59030  0.47065  1.0000
  H   H78       1.0  0.92491  0.59932  0.46685  1.0000
  H   H79       1.0  0.87542  0.63889  0.43276  1.0000
  H   H80       1.0  0.91372  0.63461  0.43262  1.0000
  H   H81       1.0  0.15623  0.49974  0.43139  1.0000
  H   H82       1.0  0.19398  0.49452  0.43156  1.0000
  C   C114      1.0  0.45516  0.49945  0.33849  1.0000
  C   C115      1.0  0.46872  0.48581  0.33758  1.0000
  C   C116      1.0  0.49570  0.50412  0.33625  1.0000
  N   N11       1.0  0.49746  0.52809  0.33644  1.0000
  C   C117      1.0  0.47353  0.52641  0.33771  1.0000
  C   C118      1.0  0.46719  0.54689  0.33768  1.0000
  C   C119      1.0  0.48592  0.57427  0.33650  1.0000
  N   N12       1.0  0.51248  0.58591  0.33624  1.0000
  C   C120      1.0  0.55159  0.63114  0.33485  1.0000
  C   C121      1.0  0.57200  0.62471  0.33602  1.0000
  N   N13       1.0  0.57024  0.60074  0.33634  1.0000
  C   C122      1.0  0.59417  0.60242  0.33771  1.0000
  C   C123      1.0  0.61254  0.62938  0.33839  1.0000
  C   C124      1.0  0.59898  0.64302  0.33733  1.0000
  C   C125      1.0  0.60051  0.58194  0.33788  1.0000
  C   C126      1.0  0.58179  0.55456  0.33678  1.0000
  N   N14       1.0  0.55522  0.54293  0.33658  1.0000
  C   C127      1.0  0.54352  0.51636  0.33542  1.0000
  C   C128      1.0  0.56394  0.51057  0.33468  1.0000
  C   C129      1.0  0.58750  0.53410  0.33590  1.0000
  C   C130      1.0  0.51611  0.49770  0.33518  1.0000
  C   C131      1.0  0.50871  0.47054  0.33352  1.0000
  C   C132      1.0  0.49762  0.41725  0.32873  1.0000
  C   C133      1.0  0.50213  0.43085  0.41076  1.0000
  C   C134      1.0  0.50762  0.45712  0.41326  1.0000
  C   C135      1.0  0.49375  0.39115  0.32600  1.0000
  C   C136      1.0  0.47744  0.37168  0.38863  1.0000
  C   C137      1.0  0.47488  0.34647  0.38849  1.0000
  C   C138      1.0  0.48835  0.33960  0.32533  1.0000
  C   C139      1.0  0.62765  0.58928  0.33969  1.0000
  C   C140      1.0  0.68119  0.60109  0.34421  1.0000
  C   C141      1.0  0.66745  0.59940  0.42388  1.0000
  C   C142      1.0  0.64105  0.59355  0.42183  1.0000
  C   C143      1.0  0.70756  0.60564  0.34667  1.0000
  C   C144      1.0  0.74057  0.59590  0.40997  1.0000
  C   C145      1.0  0.71500  0.59239  0.40943  1.0000
  C   C146      1.0  0.55901  0.65829  0.33309  1.0000
  C   C147      1.0  0.56057  0.67172  0.41293  1.0000
  C   C148      1.0  0.56636  0.69810  0.41049  1.0000
  C   C149      1.0  0.57070  0.71178  0.32843  1.0000
  C   C150      1.0  0.57503  0.73806  0.32584  1.0000
  C   C151      1.0  0.58157  0.79008  0.32515  1.0000
  C   C152      1.0  0.59499  0.78281  0.38781  1.0000
  C   C153      1.0  0.59187  0.75737  0.38795  1.0000
  C   C154      1.0  0.44006  0.53958  0.33943  1.0000
  C   C155      1.0  0.42673  0.53512  0.42153  1.0000
  C   C156      1.0  0.38673  0.52840  0.34403  1.0000
  C   C157      1.0  0.40044  0.52958  0.42362  1.0000
  C   C158      1.0  0.36054  0.52434  0.34658  1.0000
  C   C159      1.0  0.35351  0.53766  0.40982  1.0000
  C   C160      1.0  0.32817  0.53472  0.41031  1.0000
  H   H83       1.0  0.32438  0.54564  0.45466  1.0000
  H   H84       1.0  0.36715  0.55053  0.45426  1.0000
  H   H85       1.0  0.39141  0.52650  0.48436  1.0000
  H   H86       1.0  0.43622  0.53632  0.48039  1.0000
  H   H87       1.0  0.43508  0.49078  0.33924  1.0000
  H   H88       1.0  0.45999  0.46572  0.33795  1.0000
  H   H89       1.0  0.51385  0.54445  0.33514  1.0000
  H   H90       1.0  0.55385  0.58438  0.33516  1.0000
  H   H91       1.0  0.50542  0.63648  0.33367  1.0000
  H   H92       1.0  0.55687  0.66220  0.47313  1.0000
  H   H93       1.0  0.56638  0.70691  0.46938  1.0000
  H   H94       1.0  0.63263  0.63805  0.33924  1.0000
  H   H95       1.0  0.56230  0.49237  0.33373  1.0000
  H   H96       1.0  0.60569  0.53568  0.33582  1.0000
  H   H97       1.0  0.63158  0.59208  0.48071  1.0000
  H   H98       1.0  0.67655  0.60240  0.48463  1.0000
  H   H99       1.0  0.70153  0.57921  0.45359  1.0000
  H   H100      1.0  0.74470  0.58506  0.45406  1.0000
  H   H101      1.0  0.51154  0.46662  0.47340  1.0000
  H   H102      1.0  0.50251  0.42208  0.46954  1.0000
  H   H103      1.0  0.46296  0.33311  0.43543  1.0000
  H   H104      1.0  0.46722  0.37567  0.43529  1.0000
  H   H105      1.0  0.60211  0.75309  0.43415  1.0000
  H   H106      1.0  0.60731  0.79604  0.43428  1.0000
  C   C161      1.0  0.60239  0.05248  0.34072  1.0000
  C   C162      1.0  0.61603  0.07969  0.33966  1.0000
  C   C163      1.0  0.59771  0.08835  0.33843  1.0000
  N   N15       1.0  0.57375  0.06614  0.33881  1.0000
  C   C164      1.0  0.57543  0.04389  0.34010  1.0000
  C   C165      1.0  0.55495  0.01707  0.34019  1.0000
  C   C166      1.0  0.52757  0.00841  0.33896  1.0000
  N   N16       1.0  0.51593  0.02335  0.33863  1.0000
  C   C167      1.0  0.48936  0.00848  0.33733  1.0000
  C   C168      1.0  0.48357  0.98228  0.33662  1.0000
  C   C169      1.0  0.50709  0.98223  0.33809  1.0000
  C   C170      1.0  0.47070  0.01722  0.33693  1.0000
  C   C171      1.0  0.47713  0.04406  0.33827  1.0000
  N   N17       1.0  0.50110  0.06627  0.33882  1.0000
  C   C172      1.0  0.49941  0.08851  0.34022  1.0000
  C   C173      1.0  0.47246  0.07993  0.34083  1.0000
  C   C174      1.0  0.45881  0.05272  0.33956  1.0000
  C   C175      1.0  0.51989  0.11533  0.34044  1.0000
  C   C176      1.0  0.54727  0.12400  0.33926  1.0000
  N   N18       1.0  0.55890  0.10906  0.33898  1.0000
  C   C177      1.0  0.58547  0.12393  0.33767  1.0000
  C   C178      1.0  0.59125  0.15014  0.33691  1.0000
  C   C179      1.0  0.56773  0.15018  0.33830  1.0000
  C   C180      1.0  0.60414  0.11519  0.33727  1.0000
  C   C181      1.0  0.63128  0.13494  0.33515  1.0000
  C   C182      1.0  0.68456  0.17715  0.32933  1.0000
  C   C183      1.0  0.67109  0.16801  0.41162  1.0000
  C   C184      1.0  0.64482  0.14722  0.41462  1.0000
  C   C185      1.0  0.71066  0.19939  0.32608  1.0000
  C   C186      1.0  0.73023  0.20251  0.38841  1.0000
  C   C187      1.0  0.75544  0.22515  0.38773  1.0000
  C   C188      1.0  0.76221  0.24554  0.32431  1.0000
  C   C189      1.0  0.51254  0.13512  0.34228  1.0000
  C   C190      1.0  0.50073  0.17684  0.34687  1.0000
  C   C191      1.0  0.50242  0.16462  0.42652  1.0000
  C   C192      1.0  0.50827  0.14408  0.42444  1.0000
  C   C193      1.0  0.49618  0.19866  0.34935  1.0000
  C   C194      1.0  0.48899  0.24360  0.35052  1.0000
  C   C195      1.0  0.50592  0.24127  0.41276  1.0000
  C   C196      1.0  0.50942  0.21920  0.41219  1.0000
  C   C197      1.0  0.44355  0.99750  0.33469  1.0000
  C   C198      1.0  0.42999  0.98536  0.41424  1.0000
  C   C199      1.0  0.40362  0.96478  0.41126  1.0000
  C   C200      1.0  0.39007  0.95571  0.32893  1.0000
  C   C201      1.0  0.36378  0.93379  0.32579  1.0000
  C   C202      1.0  0.31176  0.88833  0.32403  1.0000
  C   C203      1.0  0.31894  0.90882  0.38691  1.0000
  C   C204      1.0  0.34438  0.93113  0.38759  1.0000
  C   C205      1.0  0.56227  0.99726  0.34195  1.0000
  C   C206      1.0  0.56672  0.98822  0.42406  1.0000
  C   C207      1.0  0.57344  0.95509  0.34659  1.0000
  C   C208      1.0  0.57226  0.96746  0.42618  1.0000
  C   C209      1.0  0.57749  0.93295  0.34916  1.0000
  C   C210      1.0  0.56417  0.91248  0.41243  1.0000
  C   C211      1.0  0.56708  0.89006  0.41287  1.0000
  C   C212      1.0  0.58353  0.88730  0.35024  1.0000
  H   H107      1.0  0.55618  0.87527  0.45727  1.0000
  H   H108      1.0  0.55129  0.91315  0.45683  1.0000
  H   H109      1.0  0.57533  0.96139  0.48693  1.0000
  H   H110      1.0  0.56552  0.99638  0.48292  1.0000
  H   H111      1.0  0.61107  0.04107  0.34144  1.0000
  H   H112      1.0  0.63612  0.09105  0.33990  1.0000
  H   H113      1.0  0.55738  0.06617  0.33769  1.0000
  H   H114      1.0  0.51746  0.06624  0.33761  1.0000
  H   H115      1.0  0.50867  0.96563  0.33812  1.0000
  H   H116      1.0  0.46536  0.96571  0.33571  1.0000
  H   H117      1.0  0.43942  0.99099  0.47461  1.0000
  H   H118      1.0  0.39472  0.95581  0.46996  1.0000
  H   H119      1.0  0.43872  0.04136  0.33969  1.0000
  H   H120      1.0  0.46377  0.09133  0.34158  1.0000
  H   H121      1.0  0.60946  0.16671  0.33582  1.0000
  H   H122      1.0  0.56615  0.16678  0.33821  1.0000
  H   H123      1.0  0.50974  0.13596  0.48330  1.0000
  H   H124      1.0  0.49941  0.17060  0.48728  1.0000
  H   H125      1.0  0.52263  0.21884  0.45626  1.0000
  H   H126      1.0  0.51680  0.25616  0.45673  1.0000
  H   H127      1.0  0.63541  0.14158  0.47493  1.0000
  H   H128      1.0  0.67995  0.17709  0.47023  1.0000
  H   H129      1.0  0.76888  0.22655  0.43445  1.0000
  H   H130      1.0  0.72631  0.18824  0.43523  1.0000
  H   H131      1.0  0.34860  0.94549  0.43397  1.0000
  H   H132      1.0  0.30564  0.90775  0.43320  1.0000
  C   C213      1.0  0.28392  0.51684  0.34386  1.0000
  C   C214      1.0  0.23681  0.51820  0.32622  1.0000
  N   N19       1.0  0.24516  0.51387  0.40612  1.0000
  C   C215      1.0  0.26772  0.51293  0.41900  1.0000
  N   N20       1.0  0.27408  0.50752  0.50441  1.0000
  O   O1        1.0  0.27586  0.52445  0.55949  1.0000
  O   O2        1.0  0.25636  0.48532  0.53096  1.0000
  C   C216      1.0  0.58498  0.86382  0.34650  1.0000
  C   C217      1.0  0.58363  0.81540  0.32891  1.0000
  N   N21       1.0  0.58796  0.82792  0.40880  1.0000
  C   C218      1.0  0.58890  0.85139  0.42165  1.0000
  N   N22       1.0  0.59431  0.86300  0.50704  1.0000
  O   O3        1.0  0.57738  0.84775  0.56215  1.0000
  O   O4        1.0  0.61652  0.86744  0.53359  1.0000
  C   C219      1.0  0.23799  0.81792  0.34393  1.0000
  N   N23       1.0  0.27378  0.85662  0.40694  1.0000
  C   C220      1.0  0.25029  0.83404  0.41933  1.0000
  N   N24       1.0  0.23855  0.82760  0.50449  1.0000
  O   O5        1.0  0.25371  0.82577  0.55988  1.0000
  O   O6        1.0  0.23406  0.84528  0.53098  1.0000
  C   C221      1.0  0.78493  0.61496  0.34414  1.0000
  C   C222      1.0  0.83267  0.61491  0.32652  1.0000
  N   N25       1.0  0.82411  0.61865  0.40654  1.0000
  C   C223      1.0  0.80124  0.61894  0.41942  1.0000
  N   N26       1.0  0.79466  0.62378  0.50497  1.0000
  O   O7        1.0  0.79329  0.60681  0.55955  1.0000
  O   O8        1.0  0.81202  0.64605  0.53219  1.0000
  C   C224      1.0  0.48693  0.26675  0.34683  1.0000
  C   C225      1.0  0.48695  0.31456  0.32918  1.0000
  N   N27       1.0  0.48321  0.30210  0.40920  1.0000
  C   C226      1.0  0.48293  0.27892  0.42209  1.0000
  N   N28       1.0  0.47810  0.26733  0.50765  1.0000
  O   O9        1.0  0.49506  0.28283  0.56224  1.0000
  O   O10       1.0  0.45583  0.26237  0.53486  1.0000
  C   C227      1.0  0.83509  0.31694  0.34422  1.0000
  N   N29       1.0  0.79986  0.27782  0.40737  1.0000
  C   C228      1.0  0.82306  0.30071  0.41977  1.0000
  N   N30       1.0  0.83479  0.30738  0.50508  1.0000
  O   O11       1.0  0.81939  0.30879  0.55995  1.0000
  O   O12       1.0  0.83981  0.29006  0.53226  1.0000
