data_image0
_chemical_formula_structural       H2CNOC2OCHC10H5C6H3N2C10H5C6H3N2C2HC3HC2H4CHC2HC3HC2H4CHCHC3HCHCHC8H7NC8H7NC7H3NO2CHC7H3NO2CHC5H3CH
_chemical_formula_sum              "H63 C96 N9 O6"
_cell_length_a       44.5052
_cell_length_b       44.475
_cell_length_c       14.9706
_cell_angle_alpha    90
_cell_angle_beta     90
_cell_angle_gamma    120.019

_space_group_name_H-M_alt    "P 1"
_space_group_IT_number       1

loop_
  _space_group_symop_operation_xyz
  'x, y, z'

loop_
  _atom_site_type_symbol
  _atom_site_label
  _atom_site_symmetry_multiplicity
  _atom_site_fract_x
  _atom_site_fract_y
  _atom_site_fract_z
  _atom_site_occupancy
  H   H1        1.0  0.00371  0.55485  0.23056  1.0000
  H   H2        1.0  0.01707  0.49542  0.18151  1.0000
  C   C1        1.0  0.01986  0.51334  0.37399  1.0000
  N   N1        1.0  0.01658  0.51584  0.53875  1.0000
  O   O1        1.0  0.01993  0.49612  0.59298  1.0000
  C   C2        1.0  0.02584  0.52159  0.20681  1.0000
  C   C3        1.0  0.03609  0.52102  0.45961  1.0000
  O   O2        1.0  0.02483  0.54403  0.57739  1.0000
  C   C4        1.0  0.04160  0.52497  0.29683  1.0000
  H   H3        1.0  0.04459  0.54012  0.15916  1.0000
  C   C5        1.0  0.37162  0.63008  0.32182  1.0000
  C   C6        1.0  0.26057  0.63053  0.32704  1.0000
  C   C7        1.0  0.36195  0.60089  0.26609  1.0000
  C   C8        1.0  0.37993  0.58233  0.26912  1.0000
  C   C9        1.0  0.40782  0.59203  0.32877  1.0000
  C   C10       1.0  0.38132  0.79816  0.27651  1.0000
  C   C11       1.0  0.36295  0.76163  0.27188  1.0000
  C   C12       1.0  0.24066  0.64011  0.27269  1.0000
  C   C13       1.0  0.20417  0.62217  0.27776  1.0000
  C   C14       1.0  0.18643  0.59442  0.33816  1.0000
  H   H4        1.0  0.37220  0.56135  0.22793  1.0000
  H   H5        1.0  0.34324  0.74986  0.22642  1.0000
  H   H6        1.0  0.37427  0.81192  0.23517  1.0000
  H   H7        1.0  0.25255  0.66000  0.22772  1.0000
  H   H8        1.0  0.19060  0.62976  0.23736  1.0000
  C   C15       1.0  0.29764  0.64893  0.32280  1.0000
  C   C16       1.0  0.31661  0.68567  0.32343  1.0000
  C   C17       1.0  0.35331  0.70445  0.32298  1.0000
  C   C18       1.0  0.37103  0.68547  0.32113  1.0000
  C   C19       1.0  0.35314  0.64872  0.32029  1.0000
  C   C20       1.0  0.31643  0.63099  0.32099  1.0000
  H   H9        1.0  0.39759  0.69873  0.31866  1.0000
  H   H10       1.0  0.30307  0.60440  0.32137  1.0000
  H   H11       1.0  0.34191  0.59310  0.22174  1.0000
  N   N2        1.0  0.15188  0.57866  0.33966  1.0000
  N   N3        1.0  0.42358  0.57321  0.32886  1.0000
  C   C21       1.0  0.63199  0.37263  0.32377  1.0000
  C   C22       1.0  0.74312  0.37164  0.33364  1.0000
  C   C23       1.0  0.64369  0.40295  0.27096  1.0000
  C   C24       1.0  0.62613  0.42193  0.27104  1.0000
  C   C25       1.0  0.59580  0.41065  0.32227  1.0000
  C   C26       1.0  0.62345  0.20501  0.28117  1.0000
  C   C27       1.0  0.64164  0.24153  0.27957  1.0000
  C   C28       1.0  0.76212  0.35948  0.28419  1.0000
  C   C29       1.0  0.79862  0.37696  0.28651  1.0000
  C   C30       1.0  0.81728  0.40768  0.33658  1.0000
  H   H12       1.0  0.63550  0.44392  0.23297  1.0000
  H   H13       1.0  0.66246  0.25391  0.23754  1.0000
  H   H14       1.0  0.63214  0.19209  0.24205  1.0000
  H   H15       1.0  0.74955  0.33776  0.24516  1.0000
  H   H16       1.0  0.81151  0.36731  0.25064  1.0000
  C   C31       1.0  0.70590  0.35339  0.33224  1.0000
  C   C32       1.0  0.68664  0.31667  0.33489  1.0000
  C   C33       1.0  0.64996  0.29797  0.33222  1.0000
  C   C34       1.0  0.63241  0.31707  0.32773  1.0000
  C   C35       1.0  0.65042  0.35384  0.32624  1.0000
  C   C36       1.0  0.68716  0.37137  0.32828  1.0000
  H   H17       1.0  0.60591  0.30383  0.32290  1.0000
  H   H18       1.0  0.70063  0.39793  0.32703  1.0000
  H   H19       1.0  0.66516  0.41154  0.23130  1.0000
  N   N4        1.0  0.85158  0.42279  0.34081  1.0000
  N   N5        1.0  0.58078  0.42997  0.32520  1.0000
  C   C37       1.0  0.47700  0.51630  0.28546  1.0000
  C   C38       1.0  0.46115  0.53690  0.29424  1.0000
  H   H20       1.0  0.45337  0.54419  0.23794  1.0000
  C   C39       1.0  0.53649  0.44351  0.31970  1.0000
  C   C40       1.0  0.51235  0.44339  0.25824  1.0000
  C   C41       1.0  0.49769  0.46491  0.27094  1.0000
  H   H21       1.0  0.50543  0.42757  0.20328  1.0000
  C   C42       1.0  0.47431  0.46634  0.20201  1.0000
  C   C43       1.0  0.48000  0.50365  0.19544  1.0000
  H   H22       1.0  0.44743  0.44825  0.22082  1.0000
  H   H23       1.0  0.47894  0.45870  0.13628  1.0000
  H   H24       1.0  0.46107  0.50345  0.14847  1.0000
  H   H25       1.0  0.50593  0.52118  0.16905  1.0000
  C   C44       1.0  0.54888  0.42065  0.30952  1.0000
  H   H26       1.0  0.53234  0.39635  0.29084  1.0000
  C   C45       1.0  0.48481  0.95972  0.28899  1.0000
  C   C46       1.0  0.46682  0.92331  0.30063  1.0000
  H   H27       1.0  0.46027  0.90765  0.24549  1.0000
  C   C47       1.0  0.55276  0.09274  0.30864  1.0000
  C   C48       1.0  0.55274  0.06806  0.24900  1.0000
  C   C49       1.0  0.53352  0.03205  0.26695  1.0000
  H   H28       1.0  0.56680  0.07632  0.19102  1.0000
  C   C50       1.0  0.53210  0.00678  0.19943  1.0000
  C   C51       1.0  0.49521  0.97449  0.19731  1.0000
  H   H29       1.0  0.55100  0.99896  0.21760  1.0000
  H   H30       1.0  0.53854  0.01813  0.13249  1.0000
  H   H31       1.0  0.49511  0.95565  0.15013  1.0000
  H   H32       1.0  0.47667  0.98198  0.17334  1.0000
  C   C52       1.0  0.57221  0.12802  0.28836  1.0000
  H   H33       1.0  0.58355  0.13495  0.22877  1.0000
  C   C53       1.0  0.07801  0.54041  0.30514  1.0000
  H   H34       1.0  0.09297  0.54765  0.24861  1.0000
  C   C54       1.0  0.90950  0.46682  0.33231  1.0000
  C   C55       1.0  0.93357  0.49046  0.27001  1.0000
  C   C56       1.0  0.96973  0.50497  0.28259  1.0000
  H   H35       1.0  0.92473  0.49708  0.21443  1.0000
  C   C57       1.0  0.99455  0.52777  0.21284  1.0000
  H   H36       1.0  0.98217  0.52289  0.14721  1.0000
  C   C58       1.0  0.87426  0.45435  0.32154  1.0000
  H   H37       1.0  0.86655  0.47042  0.29850  1.0000
  C   C59       1.0  0.37196  0.74152  0.32717  1.0000
  C   C60       1.0  0.41795  0.62147  0.38361  1.0000
  C   C61       1.0  0.40008  0.64007  0.38034  1.0000
  C   C62       1.0  0.40000  0.75928  0.38731  1.0000
  C   C63       1.0  0.41820  0.79575  0.39241  1.0000
  C   C64       1.0  0.40882  0.81567  0.33767  1.0000
  C   C65       1.0  0.20615  0.58447  0.39187  1.0000
  C   C66       1.0  0.24259  0.60230  0.38652  1.0000
  H   H38       1.0  0.43847  0.62973  0.42644  1.0000
  H   H39       1.0  0.40773  0.66070  0.42269  1.0000
  H   H40       1.0  0.40720  0.74577  0.42912  1.0000
  H   H41       1.0  0.43852  0.80761  0.43601  1.0000
  H   H42       1.0  0.19423  0.56407  0.43525  1.0000
  H   H43       1.0  0.25591  0.59474  0.42788  1.0000
  H   H44       1.0  0.30344  0.69902  0.32844  1.0000
  N   N6        1.0  0.42545  0.85025  0.33794  1.0000
  C   C67       1.0  0.63123  0.26084  0.33364  1.0000
  C   C68       1.0  0.58392  0.38061  0.37549  1.0000
  C   C69       1.0  0.60176  0.36194  0.37614  1.0000
  C   C70       1.0  0.60196  0.24219  0.38964  1.0000
  C   C71       1.0  0.58388  0.20563  0.39169  1.0000
  C   C72       1.0  0.59411  0.18655  0.33683  1.0000
  C   C73       1.0  0.79878  0.42005  0.38647  1.0000
  C   C74       1.0  0.76226  0.40227  0.38493  1.0000
  H   H45       1.0  0.56265  0.37262  0.41563  1.0000
  H   H46       1.0  0.59286  0.34088  0.41752  1.0000
  H   H47       1.0  0.59398  0.25510  0.43121  1.0000
  H   H48       1.0  0.56305  0.19299  0.43361  1.0000
  H   H49       1.0  0.81179  0.44171  0.42551  1.0000
  H   H50       1.0  0.74977  0.41157  0.42369  1.0000
  H   H51       1.0  0.69959  0.30317  0.34143  1.0000
  N   N7        1.0  0.57629  0.15205  0.34330  1.0000
  C   C75       1.0  0.45600  0.54764  0.37883  1.0000
  C   C76       1.0  0.46611  0.53608  0.45480  1.0000
  C   C77       1.0  0.48199  0.51541  0.44807  1.0000
  C   C78       1.0  0.48931  0.50670  0.36223  1.0000
  C   C79       1.0  0.50562  0.48591  0.34897  1.0000
  C   C80       1.0  0.53167  0.48755  0.40658  1.0000
  C   C81       1.0  0.54653  0.46650  0.39302  1.0000
  H   H52       1.0  0.54088  0.50468  0.45851  1.0000
  H   H53       1.0  0.56444  0.46780  0.43817  1.0000
  H   H54       1.0  0.46124  0.54211  0.51722  1.0000
  N   N8        1.0  0.48787  0.50155  0.52710  1.0000
  O   O3        1.0  0.50770  0.52496  0.58048  1.0000
  O   O4        1.0  0.46003  0.48147  0.56688  1.0000
  C   C82       1.0  0.44119  0.56856  0.39004  1.0000
  H   H55       1.0  0.44376  0.57985  0.44913  1.0000
  C   C83       1.0  0.45874  0.90818  0.38650  1.0000
  C   C84       1.0  0.46993  0.93076  0.46079  1.0000
  C   C85       1.0  0.48812  0.96736  0.45121  1.0000
  C   C86       1.0  0.49475  0.98247  0.36423  1.0000
  C   C87       1.0  0.51424  0.01953  0.34777  1.0000
  C   C88       1.0  0.51275  0.04428  0.40441  1.0000
  C   C89       1.0  0.53186  0.08007  0.38600  1.0000
  H   H56       1.0  0.49663  0.03661  0.45846  1.0000
  H   H57       1.0  0.52986  0.09678  0.42939  1.0000
  H   H58       1.0  0.46575  0.92053  0.52393  1.0000
  N   N9        1.0  0.50191  0.98827  0.52849  1.0000
  O   O5        1.0  0.47857  0.98361  0.58341  1.0000
  O   O6        1.0  0.52383  0.98290  0.56734  1.0000
  C   C90       1.0  0.44259  0.87241  0.39974  1.0000
  H   H59       1.0  0.44398  0.86366  0.45989  1.0000
  C   C91       1.0  0.09405  0.54587  0.38960  1.0000
  C   C92       1.0  0.07260  0.53649  0.46590  1.0000
  C   C93       1.0  0.98277  0.49736  0.36117  1.0000
  C   C94       1.0  0.95829  0.47179  0.41970  1.0000
  C   C95       1.0  0.92241  0.45713  0.40639  1.0000
  H   H60       1.0  0.96615  0.46276  0.47216  1.0000
  H   H61       1.0  0.90578  0.43952  0.45208  1.0000
  H   H62       1.0  0.08367  0.54160  0.52813  1.0000
  C   C96       1.0  0.12973  0.56024  0.40022  1.0000
  H   H63       1.0  0.13844  0.55675  0.45826  1.0000
