data_image0
_chemical_formula_structural       C3NC3NC5NC5NC20H18N4C3NC3NC5NC5NC20H18N4C3NC3NC5NC5NC20H18N4C4H3CH3CHC4H3CH3CHC4H3CH3CHC4H3CH3CHC4H3CH3CHC4H3CH3CHC8H8C8H8C8H8C4H3CH3CHC4H3CH3CHC4H3CH3CHC4H3CH3CHC4H3CH3CHC4H3CH3CH
_chemical_formula_sum              "C204 N24 H162"
_cell_length_a       51.0874
_cell_length_b       51.0874
_cell_length_c       14.9507
_cell_angle_alpha    90.097
_cell_angle_beta     89.903
_cell_angle_gamma    120

_space_group_name_H-M_alt    "P 1"
_space_group_IT_number       1

loop_
  _space_group_symop_operation_xyz
  'x, y, z'

loop_
  _atom_site_type_symbol
  _atom_site_label
  _atom_site_symmetry_multiplicity
  _atom_site_fract_x
  _atom_site_fract_y
  _atom_site_fract_z
  _atom_site_occupancy
  C   C1        1.0  0.04828  0.64949  0.30884  1.0000
  C   C2        1.0  0.01733  0.63493  0.31361  1.0000
  C   C3        1.0  0.00632  0.60381  0.31166  1.0000
  N   N1        1.0  0.03127  0.60079  0.31153  1.0000
  C   C4        1.0  0.05731  0.62777  0.31112  1.0000
  C   C5        1.0  0.08786  0.63422  0.31230  1.0000
  C   C6        1.0  0.09697  0.61205  0.31322  1.0000
  N   N2        1.0  0.07949  0.58157  0.31245  1.0000
  C   C7        1.0  0.09608  0.56755  0.31209  1.0000
  C   C8        1.0  0.12621  0.59071  0.31061  1.0000
  C   C9        1.0  0.12676  0.61787  0.31522  1.0000
  C   C10       1.0  0.08577  0.53595  0.31241  1.0000
  C   C11       1.0  0.05433  0.51370  0.31256  1.0000
  N   N3        1.0  0.02918  0.51655  0.31171  1.0000
  C   C12       1.0  0.00294  0.48954  0.31073  1.0000
  C   C13       1.0  0.01216  0.46798  0.30896  1.0000
  C   C14       1.0  0.04316  0.48257  0.31423  1.0000
  C   C15       1.0  0.97210  0.48260  0.31084  1.0000
  C   C16       1.0  0.96322  0.50501  0.31144  1.0000
  N   N4        1.0  0.98098  0.53549  0.31087  1.0000
  C   C17       1.0  0.96466  0.54981  0.31022  1.0000
  C   C18       1.0  0.93445  0.52689  0.30847  1.0000
  C   C19       1.0  0.93356  0.49957  0.31323  1.0000
  C   C20       1.0  0.97510  0.58142  0.31055  1.0000
  C   C21       1.0  0.95311  0.59129  0.31126  1.0000
  C   C22       1.0  0.90842  0.60991  0.31340  1.0000
  C   C23       1.0  0.93057  0.61970  0.24530  1.0000
  C   C24       1.0  0.95201  0.60996  0.24303  1.0000
  C   C25       1.0  0.94856  0.45116  0.31093  1.0000
  C   C26       1.0  0.90104  0.38826  0.31356  1.0000
  C   C27       1.0  0.90236  0.40858  0.24706  1.0000
  C   C28       1.0  0.92618  0.43891  0.24331  1.0000
  C   C29       1.0  0.10801  0.52616  0.31273  1.0000
  C   C30       1.0  0.10875  0.50702  0.24513  1.0000
  C   C31       1.0  0.12995  0.49692  0.24693  1.0000
  C   C32       1.0  0.15236  0.50668  0.31413  1.0000
  C   C33       1.0  0.11115  0.66529  0.31252  1.0000
  C   C34       1.0  0.13286  0.67732  0.24290  1.0000
  C   C35       1.0  0.15851  0.72645  0.31773  1.0000
  C   C36       1.0  0.15710  0.70736  0.24696  1.0000
  H   H1        1.0  0.17255  0.71562  0.19618  1.0000
  H   H2        1.0  0.13169  0.66399  0.19008  1.0000
  H   H3        1.0  0.06145  0.67245  0.30576  1.0000
  H   H4        1.0  0.00543  0.64608  0.31621  1.0000
  H   H5        1.0  0.03070  0.58173  0.31172  1.0000
  H   H6        1.0  0.02975  0.53560  0.31174  1.0000
  H   H7        1.0  0.14625  0.63828  0.31780  1.0000
  H   H8        1.0  0.14521  0.58892  0.30813  1.0000
  H   H9        1.0  0.09361  0.50012  0.19348  1.0000
  H   H10       1.0  0.12969  0.48328  0.19633  1.0000
  H   H11       1.0  0.05502  0.47140  0.31728  1.0000
  H   H12       1.0  0.99904  0.44503  0.30575  1.0000
  H   H13       1.0  0.91561  0.52898  0.30609  1.0000
  H   H14       1.0  0.91393  0.47930  0.31587  1.0000
  H   H15       1.0  0.92620  0.45242  0.19279  1.0000
  H   H16       1.0  0.88535  0.40143  0.20107  1.0000
  H   H17       1.0  0.96691  0.61663  0.19069  1.0000
  H   H18       1.0  0.93027  0.63283  0.19410  1.0000
  N   N5        1.0  0.87471  0.36193  0.32700  1.0000
  N   N6        1.0  0.17470  0.49995  0.30666  1.0000
  N   N7        1.0  0.17659  0.75593  0.32650  1.0000
  N   N8        1.0  0.88569  0.61601  0.30588  1.0000
  C   C37       1.0  0.43853  0.48369  0.30788  1.0000
  C   C38       1.0  0.45308  0.46729  0.31273  1.0000
  C   C39       1.0  0.48420  0.48740  0.31072  1.0000
  N   N9        1.0  0.48721  0.51538  0.31059  1.0000
  C   C40       1.0  0.46022  0.51445  0.31013  1.0000
  C   C41       1.0  0.45366  0.53849  0.31116  1.0000
  C   C42       1.0  0.47591  0.56979  0.31218  1.0000
  N   N10       1.0  0.50641  0.58280  0.31148  1.0000
  C   C43       1.0  0.52046  0.61342  0.31116  1.0000
  C   C44       1.0  0.49728  0.62038  0.30965  1.0000
  C   C45       1.0  0.47011  0.59377  0.31415  1.0000
  C   C46       1.0  0.55206  0.63471  0.31146  1.0000
  C   C47       1.0  0.57431  0.62553  0.31157  1.0000
  N   N11       1.0  0.57146  0.59753  0.31075  1.0000
  C   C48       1.0  0.59847  0.59830  0.30983  1.0000
  C   C49       1.0  0.62003  0.62906  0.30803  1.0000
  C   C50       1.0  0.60544  0.64549  0.31330  1.0000
  C   C51       1.0  0.60539  0.57439  0.31007  1.0000
  C   C52       1.0  0.58300  0.54310  0.31053  1.0000
  N   N12       1.0  0.55251  0.53037  0.30991  1.0000
  C   C53       1.0  0.53820  0.49974  0.30922  1.0000
  C   C54       1.0  0.56112  0.49244  0.30757  1.0000
  C   C55       1.0  0.58844  0.51887  0.31228  1.0000
  C   C56       1.0  0.50659  0.47857  0.30955  1.0000
  C   C57       1.0  0.49672  0.44672  0.31029  1.0000
  C   C58       1.0  0.47811  0.38342  0.31247  1.0000
  C   C59       1.0  0.46834  0.39570  0.24429  1.0000
  C   C60       1.0  0.47805  0.42687  0.24206  1.0000
  C   C61       1.0  0.63681  0.58228  0.31011  1.0000
  C   C62       1.0  0.69971  0.59763  0.31155  1.0000
  C   C63       1.0  0.67925  0.57853  0.24547  1.0000
  C   C64       1.0  0.64895  0.57206  0.24226  1.0000
  C   C65       1.0  0.56185  0.66674  0.31177  1.0000
  C   C66       1.0  0.58100  0.68656  0.24415  1.0000
  C   C67       1.0  0.59111  0.71786  0.24597  1.0000
  C   C68       1.0  0.58135  0.73058  0.31314  1.0000
  C   C69       1.0  0.42240  0.53047  0.31101  1.0000
  C   C70       1.0  0.41015  0.53982  0.24149  1.0000
  C   C71       1.0  0.35993  0.51544  0.31451  1.0000
  C   C72       1.0  0.37989  0.53350  0.24551  1.0000
  H   H19       1.0  0.37268  0.54312  0.19894  1.0000
  H   H20       1.0  0.42372  0.55299  0.19043  1.0000
  H   H21       1.0  0.41557  0.47388  0.30471  1.0000
  H   H22       1.0  0.44193  0.44425  0.31510  1.0000
  H   H23       1.0  0.50628  0.53387  0.31071  1.0000
  H   H24       1.0  0.55240  0.57904  0.31081  1.0000
  H   H25       1.0  0.44968  0.59281  0.31682  1.0000
  H   H26       1.0  0.49909  0.64117  0.30725  1.0000
  H   H27       1.0  0.58788  0.67825  0.19250  1.0000
  H   H28       1.0  0.60473  0.73119  0.19533  1.0000
  H   H29       1.0  0.61662  0.66852  0.31621  1.0000
  H   H30       1.0  0.64298  0.63889  0.30481  1.0000
  H   H31       1.0  0.55903  0.47152  0.30498  1.0000
  H   H32       1.0  0.60870  0.51951  0.31496  1.0000
  H   H33       1.0  0.63534  0.55852  0.19186  1.0000
  H   H34       1.0  0.68630  0.56858  0.19932  1.0000
  H   H35       1.0  0.47137  0.43506  0.18974  1.0000
  H   H36       1.0  0.45514  0.38221  0.19323  1.0000
  N   N13       1.0  0.72593  0.59742  0.32445  1.0000
  N   N14       1.0  0.58807  0.75965  0.30574  1.0000
  N   N15       1.0  0.33410  0.51593  0.33293  1.0000
  N   N16       1.0  0.47195  0.35457  0.30524  1.0000
  C   C73       1.0  0.60432  0.03972  0.30689  1.0000
  C   C74       1.0  0.62072  0.07069  0.31176  1.0000
  C   C75       1.0  0.60061  0.08169  0.30969  1.0000
  N   N17       1.0  0.57264  0.05672  0.30962  1.0000
  C   C76       1.0  0.57356  0.03065  0.30914  1.0000
  C   C77       1.0  0.54953  0.00003  0.31007  1.0000
  C   C78       1.0  0.51823  0.99101  0.31116  1.0000
  N   N18       1.0  0.50522  0.00850  0.31050  1.0000
  C   C79       1.0  0.47459  0.99192  0.31017  1.0000
  C   C80       1.0  0.46764  0.96180  0.30867  1.0000
  C   C81       1.0  0.49425  0.96124  0.31320  1.0000
  C   C82       1.0  0.45329  0.00223  0.31039  1.0000
  C   C83       1.0  0.46248  0.03366  0.31057  1.0000
  N   N19       1.0  0.49048  0.05881  0.30977  1.0000
  C   C84       1.0  0.48973  0.08504  0.30871  1.0000
  C   C85       1.0  0.45895  0.07583  0.30697  1.0000
  C   C86       1.0  0.44252  0.04483  0.31230  1.0000
  C   C87       1.0  0.51366  0.11586  0.30873  1.0000
  C   C88       1.0  0.54494  0.12478  0.30949  1.0000
  N   N20       1.0  0.55766  0.10703  0.30891  1.0000
  C   C89       1.0  0.58828  0.12335  0.30822  1.0000
  C   C90       1.0  0.59557  0.15357  0.30660  1.0000
  C   C91       1.0  0.56914  0.15446  0.31123  1.0000
  C   C92       1.0  0.60946  0.11292  0.30848  1.0000
  C   C93       1.0  0.64132  0.13492  0.30932  1.0000
  C   C94       1.0  0.70467  0.17959  0.31231  1.0000
  C   C95       1.0  0.69243  0.15756  0.24382  1.0000
  C   C96       1.0  0.66124  0.13609  0.24123  1.0000
  C   C97       1.0  0.50576  0.13934  0.30910  1.0000
  C   C98       1.0  0.48988  0.18645  0.31318  1.0000
  C   C99       1.0  0.50889  0.18538  0.24570  1.0000
  C   C100      1.0  0.51573  0.16176  0.24155  1.0000
  C   C101      1.0  0.42126  0.97999  0.31079  1.0000
  C   C102      1.0  0.40136  0.97918  0.24332  1.0000
  C   C103      1.0  0.37006  0.95799  0.24547  1.0000
  C   C104      1.0  0.35741  0.93568  0.31297  1.0000
  C   C105      1.0  0.55756  0.97677  0.30988  1.0000
  C   C106      1.0  0.54822  0.95502  0.24057  1.0000
  C   C107      1.0  0.57261  0.92935  0.31411  1.0000
  C   C108      1.0  0.55461  0.93112  0.24478  1.0000
  H   H37       1.0  0.54490  0.91413  0.19858  1.0000
  H   H38       1.0  0.53501  0.95529  0.18952  1.0000
  H   H39       1.0  0.61415  0.02659  0.30372  1.0000
  H   H40       1.0  0.64377  0.08258  0.31399  1.0000
  H   H41       1.0  0.55415  0.05729  0.30970  1.0000
  H   H42       1.0  0.50897  0.05824  0.30980  1.0000
  H   H43       1.0  0.49522  0.94177  0.31569  1.0000
  H   H44       1.0  0.44685  0.94280  0.30615  1.0000
  H   H45       1.0  0.40962  0.99428  0.19157  1.0000
  H   H46       1.0  0.35666  0.95819  0.19498  1.0000
  H   H47       1.0  0.41949  0.03298  0.31516  1.0000
  H   H48       1.0  0.44911  0.08894  0.30361  1.0000
  H   H49       1.0  0.61650  0.17241  0.30396  1.0000
  H   H50       1.0  0.56847  0.17408  0.31390  1.0000
  H   H51       1.0  0.52933  0.16189  0.19093  1.0000
  H   H52       1.0  0.51867  0.20250  0.20002  1.0000
  H   H53       1.0  0.65311  0.12122  0.18881  1.0000
  H   H54       1.0  0.70597  0.15785  0.19287  1.0000
  N   N21       1.0  0.48966  0.21247  0.33119  1.0000
  N   N22       1.0  0.32832  0.91337  0.30633  1.0000
  N   N23       1.0  0.57201  0.90307  0.33352  1.0000
  N   N24       1.0  0.73355  0.20232  0.30565  1.0000
  C   C109      1.0  0.28073  0.50355  0.32582  1.0000
  C   C110      1.0  0.26667  0.50987  0.25261  1.0000
  C   C111      1.0  0.23776  0.50820  0.26223  1.0000
  C   C112      1.0  0.28257  0.51881  0.16279  1.0000
  H   H55       1.0  0.30456  0.52040  0.15905  1.0000
  H   H56       1.0  0.28685  0.54119  0.14368  1.0000
  H   H57       1.0  0.26863  0.50244  0.11188  1.0000
  C   C113      1.0  0.22630  0.51669  0.18018  1.0000
  H   H58       1.0  0.20547  0.51697  0.18435  1.0000
  H   H59       1.0  0.22297  0.50107  0.12576  1.0000
  H   H60       1.0  0.24268  0.53962  0.15956  1.0000
  C   C114      1.0  0.30625  0.49973  0.30693  1.0000
  H   H61       1.0  0.30240  0.48377  0.26228  1.0000
  C   C115      1.0  0.58455  0.86216  0.32461  1.0000
  C   C116      1.0  0.57818  0.84168  0.25147  1.0000
  C   C117      1.0  0.57981  0.81442  0.26121  1.0000
  C   C118      1.0  0.56917  0.84847  0.16164  1.0000
  H   H62       1.0  0.56753  0.86884  0.15780  1.0000
  H   H63       1.0  0.54680  0.83032  0.14263  1.0000
  H   H64       1.0  0.58553  0.85085  0.11068  1.0000
  C   C119      1.0  0.57132  0.79437  0.17924  1.0000
  H   H65       1.0  0.57105  0.77327  0.18346  1.0000
  H   H66       1.0  0.58693  0.80659  0.12479  1.0000
  H   H67       1.0  0.54838  0.78777  0.15861  1.0000
  C   C120      1.0  0.58798  0.89132  0.30596  1.0000
  H   H68       1.0  0.60351  0.90331  0.26013  1.0000
  C   C121      1.0  0.22691  0.80831  0.32708  1.0000
  C   C122      1.0  0.24687  0.82194  0.25283  1.0000
  C   C123      1.0  0.27388  0.85075  0.26270  1.0000
  C   C124      1.0  0.23974  0.80584  0.16255  1.0000
  H   H69       1.0  0.21890  0.78425  0.15675  1.0000
  H   H70       1.0  0.25747  0.80089  0.14441  1.0000
  H   H71       1.0  0.23798  0.82005  0.11142  1.0000
  C   C125      1.0  0.29380  0.86179  0.18063  1.0000
  H   H72       1.0  0.31502  0.88247  0.18451  1.0000
  H   H73       1.0  0.28162  0.86520  0.12619  1.0000
  H   H74       1.0  0.30010  0.84518  0.16035  1.0000
  C   C126      1.0  0.20151  0.77982  0.30809  1.0000
  H   H75       1.0  0.19041  0.78912  0.28072  1.0000
  C   C127      1.0  0.77956  0.61196  0.32726  1.0000
  C   C128      1.0  0.79322  0.60530  0.25352  1.0000
  C   C129      1.0  0.82209  0.60676  0.26223  1.0000
  C   C130      1.0  0.77716  0.59668  0.16445  1.0000
  H   H76       1.0  0.75546  0.59580  0.16240  1.0000
  H   H77       1.0  0.77244  0.57417  0.14484  1.0000
  H   H78       1.0  0.79123  0.61293  0.11346  1.0000
  C   C131      1.0  0.83357  0.59830  0.17992  1.0000
  H   H79       1.0  0.85429  0.59778  0.18448  1.0000
  H   H80       1.0  0.83713  0.61408  0.12588  1.0000
  H   H81       1.0  0.81705  0.57550  0.15862  1.0000
  C   C132      1.0  0.75445  0.61664  0.31296  1.0000
  H   H82       1.0  0.75955  0.63637  0.28613  1.0000
  C   C133      1.0  0.47630  0.25273  0.32506  1.0000
  C   C134      1.0  0.48262  0.27307  0.25173  1.0000
  C   C135      1.0  0.48102  0.30035  0.26126  1.0000
  C   C136      1.0  0.49161  0.26610  0.16197  1.0000
  H   H83       1.0  0.49302  0.24560  0.15821  1.0000
  H   H84       1.0  0.51406  0.28412  0.14306  1.0000
  H   H85       1.0  0.47536  0.26383  0.11093  1.0000
  C   C137      1.0  0.48964  0.32036  0.17925  1.0000
  H   H86       1.0  0.49015  0.34159  0.18371  1.0000
  H   H87       1.0  0.47398  0.30818  0.12489  1.0000
  H   H88       1.0  0.51252  0.32676  0.15842  1.0000
  C   C138      1.0  0.47273  0.22347  0.30664  1.0000
  H   H89       1.0  0.45653  0.21100  0.26315  1.0000
  C   C139      1.0  0.83553  0.30846  0.32784  1.0000
  C   C140      1.0  0.81523  0.29481  0.25426  1.0000
  C   C141      1.0  0.78782  0.26595  0.26297  1.0000
  C   C142      1.0  0.82279  0.31088  0.16518  1.0000
  H   H90       1.0  0.84361  0.33258  0.16305  1.0000
  H   H91       1.0  0.80504  0.31563  0.14555  1.0000
  H   H92       1.0  0.82502  0.29680  0.11424  1.0000
  C   C143      1.0  0.76801  0.25454  0.18057  1.0000
  H   H93       1.0  0.74670  0.23388  0.18495  1.0000
  H   H94       1.0  0.78028  0.25093  0.12662  1.0000
  H   H95       1.0  0.76182  0.27112  0.15925  1.0000
  C   C144      1.0  0.86536  0.33352  0.31284  1.0000
  H   H96       1.0  0.87969  0.32864  0.28238  1.0000
  C   C145      1.0  0.93169  0.58255  0.38120  1.0000
  C   C146      1.0  0.90913  0.59064  0.38024  1.0000
  C   C147      1.0  0.94671  0.43116  0.37942  1.0000
  C   C148      1.0  0.92422  0.40023  0.37880  1.0000
  C   C149      1.0  0.15250  0.52690  0.37937  1.0000
  C   C150      1.0  0.13025  0.53550  0.38055  1.0000
  C   C151      1.0  0.11291  0.68474  0.38251  1.0000
  C   C152      1.0  0.13541  0.71520  0.38228  1.0000
  H   H97       1.0  0.13519  0.72895  0.43205  1.0000
  H   H98       1.0  0.09730  0.67711  0.43310  1.0000
  H   H99       1.0  0.13101  0.54957  0.43058  1.0000
  H   H100      1.0  0.16907  0.53598  0.42680  1.0000
  H   H101      1.0  0.96191  0.43906  0.43102  1.0000
  H   H102      1.0  0.92340  0.38693  0.43100  1.0000
  H   H103      1.0  0.89290  0.58173  0.42872  1.0000
  H   H104      1.0  0.93146  0.56893  0.43173  1.0000
  C   C153      1.0  0.50546  0.43411  0.38025  1.0000
  C   C154      1.0  0.49740  0.40347  0.37925  1.0000
  C   C155      1.0  0.65692  0.60050  0.37840  1.0000
  C   C156      1.0  0.68786  0.60894  0.37713  1.0000
  C   C157      1.0  0.56111  0.71056  0.37837  1.0000
  C   C158      1.0  0.55252  0.67971  0.37959  1.0000
  C   C159      1.0  0.40271  0.51272  0.38053  1.0000
  C   C160      1.0  0.37191  0.50444  0.38010  1.0000
  H   H105      1.0  0.35879  0.49249  0.43328  1.0000
  H   H106      1.0  0.41070  0.50573  0.43264  1.0000
  H   H107      1.0  0.53843  0.66647  0.42958  1.0000
  H   H108      1.0  0.55203  0.71810  0.42576  1.0000
  H   H109      1.0  0.64912  0.60788  0.43018  1.0000
  H   H110      1.0  0.70122  0.62141  0.42926  1.0000
  H   H111      1.0  0.50628  0.39619  0.42781  1.0000
  H   H112      1.0  0.51908  0.44755  0.43076  1.0000
  C   C161      1.0  0.65386  0.15631  0.37935  1.0000
  C   C162      1.0  0.68451  0.17886  0.37876  1.0000
  C   C163      1.0  0.48759  0.14093  0.37813  1.0000
  C   C164      1.0  0.47892  0.16319  0.37801  1.0000
  C   C165      1.0  0.37752  0.93554  0.37787  1.0000
  C   C166      1.0  0.40836  0.95777  0.37870  1.0000
  C   C167      1.0  0.57535  0.97496  0.37942  1.0000
  C   C168      1.0  0.58367  0.95250  0.37927  1.0000
  H   H113      1.0  0.59565  0.95145  0.43249  1.0000
  H   H114      1.0  0.58228  0.99000  0.43152  1.0000
  H   H115      1.0  0.42166  0.95703  0.42862  1.0000
  H   H116      1.0  0.37004  0.91901  0.42538  1.0000
  H   H117      1.0  0.48041  0.12570  0.42965  1.0000
  H   H118      1.0  0.46649  0.16386  0.43069  1.0000
  H   H119      1.0  0.69173  0.19503  0.42740  1.0000
  H   H120      1.0  0.64037  0.15651  0.42977  1.0000
  C   C169      1.0  0.22164  0.49953  0.34610  1.0000
  C   C170      1.0  0.23585  0.49325  0.42036  1.0000
  C   C171      1.0  0.26487  0.49506  0.40967  1.0000
  C   C172      1.0  0.27999  0.48803  0.48501  1.0000
  H   H121      1.0  0.26832  0.48214  0.54896  1.0000
  H   H122      1.0  0.30216  0.50769  0.49776  1.0000
  H   H123      1.0  0.28296  0.46903  0.46617  1.0000
  C   C173      1.0  0.22107  0.48449  0.51176  1.0000
  H   H124      1.0  0.19867  0.48177  0.51827  1.0000
  H   H125      1.0  0.23539  0.50149  0.56092  1.0000
  H   H126      1.0  0.21808  0.46258  0.53121  1.0000
  C   C174      1.0  0.19519  0.50193  0.36167  1.0000
  H   H127      1.0  0.19405  0.50968  0.42112  1.0000
  C   C175      1.0  0.58846  0.80706  0.34510  1.0000
  C   C176      1.0  0.59476  0.82765  0.41930  1.0000
  C   C177      1.0  0.59297  0.85486  0.40856  1.0000
  C   C178      1.0  0.59997  0.87706  0.48388  1.0000
  H   H128      1.0  0.60586  0.87134  0.54783  1.0000
  H   H129      1.0  0.58029  0.87956  0.49664  1.0000
  H   H130      1.0  0.61897  0.89903  0.46506  1.0000
  C   C179      1.0  0.60351  0.82172  0.51070  1.0000
  H   H131      1.0  0.60623  0.80204  0.51721  1.0000
  H   H132      1.0  0.58650  0.81908  0.55986  1.0000
  H   H133      1.0  0.62542  0.84066  0.53016  1.0000
  C   C180      1.0  0.58608  0.77823  0.36069  1.0000
  H   H134      1.0  0.57828  0.76940  0.42013  1.0000
  C   C181      1.0  0.28111  0.86669  0.34686  1.0000
  C   C182      1.0  0.26056  0.85267  0.42132  1.0000
  C   C183      1.0  0.23342  0.82373  0.41115  1.0000
  C   C184      1.0  0.21115  0.80818  0.48618  1.0000
  H   H135      1.0  0.21676  0.81980  0.55027  1.0000
  H   H136      1.0  0.20884  0.78608  0.49859  1.0000
  H   H137      1.0  0.18911  0.80498  0.46723  1.0000
  C   C185      1.0  0.26657  0.86720  0.51287  1.0000
  H   H138      1.0  0.28633  0.88953  0.51936  1.0000
  H   H139      1.0  0.26916  0.85274  0.56164  1.0000
  H   H140      1.0  0.24769  0.87023  0.53268  1.0000
  C   C186      1.0  0.30989  0.89307  0.36197  1.0000
  H   H141      1.0  0.31881  0.89426  0.42132  1.0000
  C   C187      1.0  0.83837  0.61554  0.34576  1.0000
  C   C188      1.0  0.82436  0.62193  0.42042  1.0000
  C   C189      1.0  0.79548  0.62030  0.41061  1.0000
  C   C190      1.0  0.78052  0.62741  0.48657  1.0000
  H   H142      1.0  0.79211  0.63310  0.55051  1.0000
  H   H143      1.0  0.75823  0.60786  0.49906  1.0000
  H   H144      1.0  0.77781  0.64661  0.46845  1.0000
  C   C191      1.0  0.83920  0.63083  0.51152  1.0000
  H   H145      1.0  0.86157  0.63354  0.51800  1.0000
  H   H146      1.0  0.82487  0.61392  0.56087  1.0000
  H   H147      1.0  0.84222  0.65280  0.53070  1.0000
  C   C192      1.0  0.86498  0.61350  0.36097  1.0000
  H   H148      1.0  0.86619  0.60578  0.42027  1.0000
  C   C193      1.0  0.47228  0.30774  0.34514  1.0000
  C   C194      1.0  0.46594  0.28728  0.41951  1.0000
  C   C195      1.0  0.46773  0.26007  0.40886  1.0000
  C   C196      1.0  0.46067  0.23793  0.48425  1.0000
  H   H149      1.0  0.45475  0.24370  0.54822  1.0000
  H   H150      1.0  0.48033  0.23542  0.49695  1.0000
  H   H151      1.0  0.44167  0.21595  0.46548  1.0000
  C   C197      1.0  0.45715  0.29331  0.51093  1.0000
  H   H152      1.0  0.45449  0.31302  0.51753  1.0000
  H   H153      1.0  0.47412  0.29594  0.56006  1.0000
  H   H154      1.0  0.43522  0.27441  0.53038  1.0000
  C   C198      1.0  0.47444  0.33643  0.36045  1.0000
  H   H155      1.0  0.48218  0.34542  0.41976  1.0000
  C   C199      1.0  0.78026  0.24962  0.34639  1.0000
  C   C200      1.0  0.80055  0.26367  0.42114  1.0000
  C   C201      1.0  0.82782  0.29259  0.41133  1.0000
  C   C202      1.0  0.84986  0.30755  0.48717  1.0000
  H   H156      1.0  0.84390  0.29593  0.55109  1.0000
  H   H157      1.0  0.85259  0.32984  0.49974  1.0000
  H   H158      1.0  0.87178  0.31027  0.46891  1.0000
  C   C203      1.0  0.79451  0.24882  0.51222  1.0000
  H   H159      1.0  0.77480  0.22646  0.51860  1.0000
  H   H160      1.0  0.79188  0.26314  0.56161  1.0000
  H   H161      1.0  0.81341  0.24576  0.53139  1.0000
  C   C204      1.0  0.75162  0.22291  0.36121  1.0000
  H   H162      1.0  0.74253  0.22162  0.42042  1.0000
