data_image0
_chemical_formula_structural       NC2OCH3NC2OCH3NC2OCH3NC2OCH3NC2OCH3NC2OCH3CNCOCH3CNCOCH3CNCOCH3CNCOCH3CNCOCH3CNCOCH3CNCOCH3CNCOCH3CNCOCH3CNCOCH3CNCOCH3CNCOCH3C6H3C6H3C6H3C6H3C6H3C6H3C6H3C6H3C6H3C6H3C6H3C6H3CNCOCH3CNCOCH3CNCOCH3CNCOCH3CNCOCH3CNCOCH3NC2OCH3NC2OCH3NC2OCH3NC2OCH3NC2OCH3NC2OCH3NC2OCH3NC2OCH3NC2OCH3NC2OCH3NC2OCH3NC2OCH3
_chemical_formula_sum              "N36 C180 O36 H144"
_cell_length_a       37.3581
_cell_length_b       37.358
_cell_length_c       14.8204
_cell_angle_alpha    90
_cell_angle_beta     90
_cell_angle_gamma    120

_space_group_name_H-M_alt    "P 1"
_space_group_IT_number       1

loop_
  _space_group_symop_operation_xyz
  'x, y, z'

loop_
  _atom_site_type_symbol
  _atom_site_label
  _atom_site_symmetry_multiplicity
  _atom_site_fract_x
  _atom_site_fract_y
  _atom_site_fract_z
  _atom_site_occupancy
  N   N1        1.0  0.22635  0.41919  0.28246  1.0000
  C   C1        1.0  0.20639  0.37717  0.27584  1.0000
  C   C2        1.0  0.18168  0.35336  0.34915  1.0000
  O   O1        1.0  0.20609  0.35880  0.19563  1.0000
  C   C3        1.0  0.24585  0.36585  0.16716  1.0000
  H   H1        1.0  0.24168  0.34869  0.10485  1.0000
  H   H2        1.0  0.25950  0.35483  0.21744  1.0000
  H   H3        1.0  0.26702  0.39856  0.15348  1.0000
  N   N2        1.0  0.58714  0.80118  0.28212  1.0000
  C   C4        1.0  0.62916  0.82325  0.27550  1.0000
  C   C5        1.0  0.65298  0.82253  0.34901  1.0000
  O   O2        1.0  0.64753  0.84115  0.19518  1.0000
  C   C6        1.0  0.64058  0.87389  0.16639  1.0000
  H   H4        1.0  0.65772  0.88673  0.10399  1.0000
  H   H5        1.0  0.65170  0.89865  0.21646  1.0000
  H   H6        1.0  0.60788  0.86242  0.15276  1.0000
  N   N3        1.0  0.20513  0.78019  0.28227  1.0000
  C   C7        1.0  0.18307  0.80015  0.27567  1.0000
  C   C8        1.0  0.18381  0.82470  0.34916  1.0000
  O   O3        1.0  0.16515  0.80060  0.19536  1.0000
  C   C9        1.0  0.13241  0.76090  0.16660  1.0000
  H   H7        1.0  0.11955  0.76518  0.10422  1.0000
  H   H8        1.0  0.10766  0.74725  0.21670  1.0000
  H   H9        1.0  0.14390  0.73968  0.15295  1.0000
  N   N4        1.0  0.78620  0.58117  0.28195  1.0000
  C   C10       1.0  0.80617  0.62320  0.27532  1.0000
  C   C11       1.0  0.83064  0.64702  0.34888  1.0000
  O   O4        1.0  0.80670  0.64156  0.19494  1.0000
  C   C12       1.0  0.76704  0.63466  0.16605  1.0000
  H   H10       1.0  0.77137  0.65178  0.10361  1.0000
  H   H11       1.0  0.75341  0.64583  0.21605  1.0000
  H   H12       1.0  0.74578  0.60196  0.15247  1.0000
  N   N5        1.0  0.42523  0.19914  0.28234  1.0000
  C   C13       1.0  0.38320  0.17708  0.27573  1.0000
  C   C14       1.0  0.35939  0.17788  0.34917  1.0000
  O   O5        1.0  0.36483  0.15912  0.19546  1.0000
  C   C15       1.0  0.37180  0.12637  0.16680  1.0000
  H   H13       1.0  0.35465  0.11348  0.10444  1.0000
  H   H14       1.0  0.36072  0.10165  0.21696  1.0000
  H   H15       1.0  0.40451  0.13786  0.15315  1.0000
  N   N6        1.0  0.80711  0.22020  0.28207  1.0000
  C   C16       1.0  0.82918  0.20024  0.27545  1.0000
  C   C17       1.0  0.82847  0.17571  0.34895  1.0000
  O   O6        1.0  0.84710  0.19980  0.19514  1.0000
  C   C18       1.0  0.87984  0.23950  0.16640  1.0000
  H   H16       1.0  0.89270  0.23522  0.10400  1.0000
  H   H17       1.0  0.90460  0.25313  0.21649  1.0000
  H   H18       1.0  0.86837  0.26073  0.15280  1.0000
  C   C19       1.0  0.18046  0.22047  0.34188  1.0000
  N   N7        1.0  0.19299  0.16615  0.29640  1.0000
  C   C20       1.0  0.16941  0.18447  0.29017  1.0000
  O   O7        1.0  0.13617  0.16728  0.23322  1.0000
  C   C21       1.0  0.14642  0.18244  0.14228  1.0000
  H   H19       1.0  0.11826  0.16726  0.10202  1.0000
  H   H20       1.0  0.16885  0.17519  0.11265  1.0000
  H   H21       1.0  0.15851  0.21579  0.13910  1.0000
  C   C22       1.0  0.78586  0.95420  0.34175  1.0000
  N   N8        1.0  0.84020  0.02105  0.29626  1.0000
  C   C23       1.0  0.82185  0.97915  0.29002  1.0000
  O   O8        1.0  0.83903  0.96309  0.23306  1.0000
  C   C24       1.0  0.82386  0.95818  0.14213  1.0000
  H   H22       1.0  0.83903  0.94519  0.10186  1.0000
  H   H23       1.0  0.83111  0.98786  0.11251  1.0000
  H   H24       1.0  0.79051  0.93692  0.13898  1.0000
  C   C25       1.0  0.05215  0.82592  0.34180  1.0000
  N   N9        1.0  0.98530  0.81341  0.29627  1.0000
  C   C26       1.0  0.02721  0.83698  0.29006  1.0000
  O   O9        1.0  0.04327  0.87022  0.23311  1.0000
  C   C27       1.0  0.04818  0.85996  0.14217  1.0000
  H   H25       1.0  0.06118  0.88813  0.10191  1.0000
  H   H26       1.0  0.01851  0.83754  0.11255  1.0000
  H   H27       1.0  0.06945  0.84787  0.13902  1.0000
  C   C28       1.0  0.83185  0.77990  0.34168  1.0000
  N   N10       1.0  0.81934  0.83425  0.29625  1.0000
  C   C29       1.0  0.84290  0.81591  0.28998  1.0000
  O   O10       1.0  0.87613  0.83308  0.23300  1.0000
  C   C30       1.0  0.86586  0.81792  0.14207  1.0000
  H   H28       1.0  0.89401  0.83309  0.10178  1.0000
  H   H29       1.0  0.84343  0.82517  0.11247  1.0000
  H   H30       1.0  0.85377  0.78457  0.13890  1.0000
  C   C31       1.0  0.22649  0.04622  0.34186  1.0000
  N   N11       1.0  0.17214  0.97937  0.29637  1.0000
  C   C32       1.0  0.19050  0.02128  0.29012  1.0000
  O   O11       1.0  0.17334  0.03734  0.23312  1.0000
  C   C33       1.0  0.18851  0.04223  0.14219  1.0000
  H   H31       1.0  0.17336  0.05523  0.10189  1.0000
  H   H32       1.0  0.18125  0.01255  0.11260  1.0000
  H   H33       1.0  0.22187  0.06348  0.13906  1.0000
  C   C34       1.0  0.96015  0.17450  0.34176  1.0000
  N   N12       1.0  0.02701  0.18699  0.29636  1.0000
  C   C35       1.0  0.98510  0.16344  0.29007  1.0000
  O   O12       1.0  0.96905  0.13020  0.23310  1.0000
  C   C36       1.0  0.96417  0.14048  0.14216  1.0000
  H   H34       1.0  0.95118  0.11232  0.10189  1.0000
  H   H35       1.0  0.99385  0.16290  0.11257  1.0000
  H   H36       1.0  0.94291  0.15257  0.13898  1.0000
  C   C37       1.0  0.22750  0.57335  0.32880  1.0000
  N   N13       1.0  0.23604  0.63403  0.25548  1.0000
  C   C38       1.0  0.23333  0.59657  0.24907  1.0000
  O   O13       1.0  0.24548  0.58716  0.16979  1.0000
  C   C39       1.0  0.21119  0.56184  0.11175  1.0000
  H   H37       1.0  0.22331  0.55577  0.05032  1.0000
  H   H38       1.0  0.19421  0.57753  0.09289  1.0000
  H   H39       1.0  0.19007  0.53216  0.14329  1.0000
  C   C40       1.0  0.43292  0.64836  0.32935  1.0000
  N   N14       1.0  0.37231  0.59616  0.25579  1.0000
  C   C41       1.0  0.40975  0.63094  0.24955  1.0000
  O   O14       1.0  0.41923  0.65249  0.17026  1.0000
  C   C42       1.0  0.44454  0.64347  0.11231  1.0000
  H   H40       1.0  0.45066  0.66167  0.05087  1.0000
  H   H41       1.0  0.42882  0.61081  0.09345  1.0000
  H   H42       1.0  0.47419  0.65199  0.14394  1.0000
  C   C43       1.0  0.35802  0.77892  0.32867  1.0000
  N   N15       1.0  0.41027  0.77051  0.25579  1.0000
  C   C44       1.0  0.37552  0.77321  0.24905  1.0000
  O   O15       1.0  0.35409  0.76116  0.16960  1.0000
  C   C45       1.0  0.36317  0.79551  0.11169  1.0000
  H   H43       1.0  0.34507  0.78346  0.05012  1.0000
  H   H44       1.0  0.39586  0.81251  0.09308  1.0000
  H   H45       1.0  0.35456  0.81660  0.14322  1.0000
  C   C46       1.0  0.78481  0.42699  0.32968  1.0000
  N   N16       1.0  0.77655  0.36649  0.25621  1.0000
  C   C47       1.0  0.77928  0.40396  0.24983  1.0000
  O   O16       1.0  0.76741  0.41354  0.17039  1.0000
  C   C48       1.0  0.80189  0.43888  0.11282  1.0000
  H   H46       1.0  0.78998  0.44509  0.05124  1.0000
  H   H47       1.0  0.81885  0.42315  0.09418  1.0000
  H   H48       1.0  0.82298  0.46850  0.14466  1.0000
  C   C49       1.0  0.57935  0.35209  0.32844  1.0000
  N   N17       1.0  0.63999  0.40440  0.25552  1.0000
  C   C50       1.0  0.60254  0.36966  0.24881  1.0000
  O   O17       1.0  0.59310  0.34829  0.16927  1.0000
  C   C51       1.0  0.56771  0.35735  0.11167  1.0000
  H   H49       1.0  0.56164  0.33931  0.05001  1.0000
  H   H50       1.0  0.58335  0.39006  0.09319  1.0000
  H   H51       1.0  0.53804  0.34868  0.14341  1.0000
  C   C52       1.0  0.65424  0.22151  0.32900  1.0000
  N   N18       1.0  0.60236  0.23012  0.25513  1.0000
  C   C53       1.0  0.63707  0.22734  0.24897  1.0000
  O   O18       1.0  0.65876  0.23944  0.16984  1.0000
  C   C54       1.0  0.64983  0.20512  0.11195  1.0000
  H   H52       1.0  0.66812  0.21720  0.05064  1.0000
  H   H53       1.0  0.61719  0.18817  0.09286  1.0000
  H   H54       1.0  0.65830  0.18398  0.14375  1.0000
  C   C55       1.0  0.09215  0.24367  0.34828  1.0000
  C   C56       1.0  0.11440  0.22208  0.34379  1.0000
  C   C57       1.0  0.15824  0.24265  0.34265  1.0000
  C   C58       1.0  0.17990  0.28645  0.34529  1.0000
  C   C59       1.0  0.15908  0.30932  0.34849  1.0000
  C   C60       1.0  0.11538  0.28749  0.35060  1.0000
  H   H55       1.0  0.21155  0.30213  0.34448  1.0000
  H   H56       1.0  0.10031  0.30404  0.35000  1.0000
  H   H57       1.0  0.09821  0.19046  0.34531  1.0000
  C   C61       1.0  0.76267  0.84271  0.34816  1.0000
  C   C62       1.0  0.78425  0.88655  0.34368  1.0000
  C   C63       1.0  0.76368  0.90982  0.34253  1.0000
  C   C64       1.0  0.71988  0.88767  0.34517  1.0000
  C   C65       1.0  0.69701  0.84398  0.34837  1.0000
  C   C66       1.0  0.71885  0.82211  0.35048  1.0000
  H   H58       1.0  0.70419  0.90364  0.34433  1.0000
  H   H59       1.0  0.70230  0.79049  0.34987  1.0000
  H   H60       1.0  0.81586  0.90197  0.34521  1.0000
  C   C67       1.0  0.16365  0.91422  0.34828  1.0000
  C   C68       1.0  0.11982  0.89198  0.34368  1.0000
  C   C69       1.0  0.09654  0.84813  0.34259  1.0000
  C   C70       1.0  0.11868  0.82648  0.34527  1.0000
  C   C71       1.0  0.16237  0.84729  0.34850  1.0000
  C   C72       1.0  0.18425  0.89100  0.35062  1.0000
  H   H61       1.0  0.10271  0.79482  0.34445  1.0000
  H   H62       1.0  0.21586  0.90606  0.35005  1.0000
  H   H63       1.0  0.10440  0.90817  0.34530  1.0000
  C   C73       1.0  0.92015  0.75671  0.34806  1.0000
  C   C74       1.0  0.89790  0.77829  0.34352  1.0000
  C   C75       1.0  0.85406  0.75772  0.34241  1.0000
  C   C76       1.0  0.83240  0.71392  0.34504  1.0000
  C   C77       1.0  0.85323  0.69105  0.34822  1.0000
  C   C78       1.0  0.89693  0.71289  0.35029  1.0000
  H   H64       1.0  0.80075  0.69823  0.34424  1.0000
  H   H65       1.0  0.91200  0.69634  0.34979  1.0000
  H   H66       1.0  0.91409  0.80990  0.34520  1.0000
  C   C79       1.0  0.24970  0.15771  0.34825  1.0000
  C   C80       1.0  0.22811  0.11388  0.34369  1.0000
  C   C81       1.0  0.24868  0.09061  0.34263  1.0000
  C   C82       1.0  0.29248  0.11275  0.34531  1.0000
  C   C83       1.0  0.31535  0.15644  0.34850  1.0000
  C   C84       1.0  0.29352  0.17831  0.35055  1.0000
  H   H67       1.0  0.30816  0.09677  0.34452  1.0000
  H   H68       1.0  0.31007  0.20993  0.35004  1.0000
  H   H69       1.0  0.19650  0.09846  0.34533  1.0000
  C   C85       1.0  0.84865  0.08620  0.34811  1.0000
  C   C86       1.0  0.89249  0.10845  0.34361  1.0000
  C   C87       1.0  0.91576  0.15230  0.34249  1.0000
  C   C88       1.0  0.89361  0.17395  0.34512  1.0000
  C   C89       1.0  0.84992  0.15313  0.34829  1.0000
  C   C90       1.0  0.82805  0.10942  0.35035  1.0000
  H   H70       1.0  0.90959  0.20561  0.34432  1.0000
  H   H71       1.0  0.79644  0.09435  0.34982  1.0000
  H   H72       1.0  0.90791  0.09226  0.34523  1.0000
  C   C91       1.0  0.31323  0.54941  0.33703  1.0000
  C   C92       1.0  0.29065  0.57028  0.32876  1.0000
  C   C93       1.0  0.24718  0.54964  0.33750  1.0000
  C   C94       1.0  0.22582  0.50644  0.35235  1.0000
  C   C95       1.0  0.24735  0.48410  0.35537  1.0000
  C   C96       1.0  0.29116  0.50613  0.35018  1.0000
  H   H73       1.0  0.19419  0.49086  0.35508  1.0000
  H   H74       1.0  0.30708  0.49041  0.35288  1.0000
  H   H75       1.0  0.30649  0.60179  0.32021  1.0000
  C   C97       1.0  0.45692  0.75804  0.33729  1.0000
  C   C98       1.0  0.43600  0.71458  0.32933  1.0000
  C   C99       1.0  0.45665  0.69176  0.33796  1.0000
  C   C100      1.0  0.49987  0.71359  0.35247  1.0000
  C   C101      1.0  0.52224  0.75747  0.35526  1.0000
  C   C102      1.0  0.50022  0.77926  0.35000  1.0000
  H   H76       1.0  0.51544  0.69753  0.35517  1.0000
  H   H77       1.0  0.51596  0.81090  0.35255  1.0000
  H   H78       1.0  0.40449  0.69891  0.32093  1.0000
  C   C103      1.0  0.24833  0.69319  0.33662  1.0000
  C   C104      1.0  0.29178  0.71576  0.32830  1.0000
  C   C105      1.0  0.31460  0.75922  0.33724  1.0000
  C   C106      1.0  0.29277  0.78058  0.35224  1.0000
  C   C107      1.0  0.24890  0.75904  0.35529  1.0000
  C   C108      1.0  0.22712  0.71524  0.35003  1.0000
  H   H79       1.0  0.30882  0.81221  0.35508  1.0000
  H   H80       1.0  0.19548  0.69932  0.35269  1.0000
  H   H81       1.0  0.30745  0.69994  0.31956  1.0000
  C   C109      1.0  0.69908  0.45093  0.33737  1.0000
  C   C110      1.0  0.72163  0.43002  0.32957  1.0000
  C   C111      1.0  0.76510  0.45069  0.33825  1.0000
  C   C112      1.0  0.78648  0.49392  0.35270  1.0000
  C   C113      1.0  0.76495  0.51628  0.35523  1.0000
  C   C114      1.0  0.72115  0.49424  0.34997  1.0000
  H   H82       1.0  0.81811  0.50951  0.35518  1.0000
  H   H83       1.0  0.70524  0.50998  0.35223  1.0000
  H   H84       1.0  0.70580  0.39851  0.32108  1.0000
  C   C115      1.0  0.55544  0.24243  0.33625  1.0000
  C   C116      1.0  0.57627  0.28586  0.32764  1.0000
  C   C117      1.0  0.55563  0.30867  0.33689  1.0000
  C   C118      1.0  0.51248  0.28684  0.35236  1.0000
  C   C119      1.0  0.49015  0.24296  0.35526  1.0000
  C   C120      1.0  0.51219  0.22121  0.34991  1.0000
  H   H85       1.0  0.49689  0.30288  0.35512  1.0000
  H   H86       1.0  0.49649  0.18957  0.35263  1.0000
  H   H87       1.0  0.60776  0.30155  0.31885  1.0000
  C   C121      1.0  0.76393  0.30725  0.33756  1.0000
  C   C122      1.0  0.72047  0.28470  0.32942  1.0000
  C   C123      1.0  0.69765  0.24122  0.33789  1.0000
  C   C124      1.0  0.71949  0.21983  0.35236  1.0000
  C   C125      1.0  0.76337  0.24135  0.35523  1.0000
  C   C126      1.0  0.78515  0.28516  0.35021  1.0000
  H   H88       1.0  0.70343  0.18819  0.35478  1.0000
  H   H89       1.0  0.81679  0.30107  0.35278  1.0000
  H   H90       1.0  0.70480  0.30054  0.32108  1.0000
  C   C127      1.0  0.22543  0.44012  0.35679  1.0000
  N   N19       1.0  0.18047  0.37423  0.42335  1.0000
  C   C128      1.0  0.20143  0.41624  0.43072  1.0000
  O   O19       1.0  0.19854  0.43408  0.50886  1.0000
  C   C129      1.0  0.22861  0.43849  0.57521  1.0000
  H   H91       1.0  0.22431  0.45297  0.63488  1.0000
  H   H92       1.0  0.26017  0.45828  0.55077  1.0000
  H   H93       1.0  0.22451  0.40848  0.59507  1.0000
  C   C130      1.0  0.56622  0.77950  0.35661  1.0000
  N   N20       1.0  0.63210  0.80061  0.42338  1.0000
  C   C131      1.0  0.59010  0.77957  0.43073  1.0000
  O   O20       1.0  0.57226  0.75902  0.50904  1.0000
  C   C132      1.0  0.56789  0.78483  0.57502  1.0000
  H   H94       1.0  0.55339  0.76619  0.63485  1.0000
  H   H95       1.0  0.54812  0.79658  0.55032  1.0000
  H   H96       1.0  0.59791  0.81076  0.59473  1.0000
  C   C133      1.0  0.22684  0.78096  0.35673  1.0000
  N   N21       1.0  0.20576  0.82577  0.42349  1.0000
  C   C134      1.0  0.22681  0.80480  0.43082  1.0000
  O   O21       1.0  0.24740  0.80755  0.50909  1.0000
  C   C135      1.0  0.22162  0.77738  0.57514  1.0000
  H   H97       1.0  0.24030  0.78156  0.63493  1.0000
  H   H98       1.0  0.20987  0.74586  0.55048  1.0000
  H   H99       1.0  0.19570  0.78147  0.59490  1.0000
  C   C136      1.0  0.78689  0.56026  0.35651  1.0000
  N   N22       1.0  0.83162  0.62615  0.42333  1.0000
  C   C137      1.0  0.81064  0.58415  0.43070  1.0000
  O   O22       1.0  0.81329  0.56632  0.50909  1.0000
  C   C138      1.0  0.78306  0.56196  0.57492  1.0000
  H   H100      1.0  0.78716  0.54748  0.63483  1.0000
  H   H101      1.0  0.75156  0.54220  0.55012  1.0000
  H   H102      1.0  0.78714  0.59199  0.59456  1.0000
  C   C139      1.0  0.44616  0.22090  0.35674  1.0000
  N   N23       1.0  0.38028  0.19988  0.42346  1.0000
  C   C140      1.0  0.42229  0.22091  0.43079  1.0000
  O   O23       1.0  0.44014  0.24155  0.50902  1.0000
  C   C141      1.0  0.44455  0.21581  0.57514  1.0000
  H   H103      1.0  0.45904  0.23451  0.63490  1.0000
  H   H104      1.0  0.46432  0.20406  0.55053  1.0000
  H   H105      1.0  0.41453  0.18988  0.59494  1.0000
  C   C142      1.0  0.78542  0.21942  0.35655  1.0000
  N   N24       1.0  0.80654  0.17465  0.42331  1.0000
  C   C143      1.0  0.78549  0.19561  0.43066  1.0000
  O   O24       1.0  0.76492  0.19287  0.50897  1.0000
  C   C144      1.0  0.79073  0.22305  0.57498  1.0000
  H   H106      1.0  0.77207  0.21889  0.63480  1.0000
  H   H107      1.0  0.80247  0.25457  0.55029  1.0000
  H   H108      1.0  0.81666  0.21897  0.59469  1.0000
  N   N25       1.0  0.21491  0.23424  0.39400  1.0000
  C   C145      1.0  0.23848  0.21593  0.40024  1.0000
  C   C146      1.0  0.22749  0.17993  0.34850  1.0000
  O   O25       1.0  0.27153  0.23310  0.45771  1.0000
  C   C147      1.0  0.26099  0.21783  0.54852  1.0000
  H   H109      1.0  0.28902  0.23300  0.58921  1.0000
  H   H110      1.0  0.24894  0.18449  0.55158  1.0000
  H   H111      1.0  0.23845  0.22501  0.57774  1.0000
  N   N26       1.0  0.77210  0.97490  0.39388  1.0000
  C   C148      1.0  0.79043  0.01678  0.40012  1.0000
  C   C149      1.0  0.82643  0.04177  0.34837  1.0000
  O   O26       1.0  0.77327  0.03267  0.45760  1.0000
  C   C150      1.0  0.78855  0.03740  0.54840  1.0000
  H   H112      1.0  0.77340  0.05028  0.58910  1.0000
  H   H113      1.0  0.82190  0.05869  0.55145  1.0000
  H   H114      1.0  0.78137  0.00768  0.57762  1.0000
  N   N27       1.0  0.03145  0.79147  0.39392  1.0000
  C   C151      1.0  0.98957  0.76791  0.40013  1.0000
  C   C152      1.0  0.96458  0.77892  0.34836  1.0000
  O   O27       1.0  0.97368  0.73486  0.45759  1.0000
  C   C153      1.0  0.96893  0.74540  0.54839  1.0000
  H   H115      1.0  0.95605  0.71737  0.58908  1.0000
  H   H116      1.0  0.94764  0.75745  0.55143  1.0000
  H   H117      1.0  0.99865  0.76794  0.57763  1.0000
  N   N28       1.0  0.79741  0.76614  0.39384  1.0000
  C   C154      1.0  0.77386  0.78448  0.40013  1.0000
  C   C155      1.0  0.78487  0.82048  0.34840  1.0000
  O   O28       1.0  0.74083  0.76732  0.45762  1.0000
  C   C156      1.0  0.75138  0.78260  0.54842  1.0000
  H   H118      1.0  0.72336  0.76744  0.58914  1.0000
  H   H119      1.0  0.76344  0.81594  0.55149  1.0000
  H   H120      1.0  0.77393  0.77541  0.57762  1.0000
  N   N29       1.0  0.24022  0.02552  0.39404  1.0000
  C   C157      1.0  0.22188  0.98363  0.40030  1.0000
  C   C158      1.0  0.18588  0.95865  0.34853  1.0000
  O   O29       1.0  0.23902  0.96775  0.45783  1.0000
  C   C159      1.0  0.22372  0.96302  0.54861  1.0000
  H   H121      1.0  0.23886  0.95014  0.58934  1.0000
  H   H122      1.0  0.19037  0.94175  0.55164  1.0000
  H   H123      1.0  0.23090  0.99275  0.57780  1.0000
  N   N30       1.0  0.98084  0.20894  0.39391  1.0000
  C   C160      1.0  0.02273  0.23248  0.40020  1.0000
  C   C161      1.0  0.04772  0.22147  0.34849  1.0000
  O   O30       1.0  0.03860  0.26552  0.45770  1.0000
  C   C162      1.0  0.04331  0.25497  0.54851  1.0000
  H   H124      1.0  0.05618  0.28299  0.58921  1.0000
  H   H125      1.0  0.06459  0.24290  0.55158  1.0000
  H   H126      1.0  0.01358  0.23242  0.57770  1.0000
  N   N31       1.0  0.22309  0.59049  0.40621  1.0000
  C   C163      1.0  0.22058  0.62566  0.41075  1.0000
  C   C164      1.0  0.22862  0.64970  0.33140  1.0000
  O   O31       1.0  0.22302  0.64219  0.49441  1.0000
  C   C165      1.0  0.18323  0.62880  0.53400  1.0000
  H   H127      1.0  0.18803  0.64350  0.59989  1.0000
  H   H128      1.0  0.16612  0.59533  0.54385  1.0000
  H   H129      1.0  0.16492  0.63805  0.49291  1.0000
  N   N32       1.0  0.41576  0.62684  0.40680  1.0000
  C   C166      1.0  0.38061  0.58914  0.41139  1.0000
  C   C167      1.0  0.35673  0.57319  0.33187  1.0000
  O   O32       1.0  0.36402  0.57505  0.49500  1.0000
  C   C168      1.0  0.37738  0.54865  0.53471  1.0000
  H   H130      1.0  0.36264  0.53875  0.60055  1.0000
  H   H131      1.0  0.41085  0.56502  0.54468  1.0000
  H   H132      1.0  0.36817  0.52109  0.49364  1.0000
  N   N33       1.0  0.37928  0.78312  0.40641  1.0000
  C   C169      1.0  0.41692  0.78557  0.41126  1.0000
  C   C170      1.0  0.43318  0.77778  0.33197  1.0000
  O   O33       1.0  0.43081  0.78296  0.49503  1.0000
  C   C171      1.0  0.45732  0.82267  0.53482  1.0000
  H   H133      1.0  0.46705  0.81775  0.60079  1.0000
  H   H134      1.0  0.44109  0.83993  0.54455  1.0000
  H   H135      1.0  0.48498  0.84091  0.49395  1.0000
  N   N34       1.0  0.78880  0.40974  0.40734  1.0000
  C   C172      1.0  0.79125  0.37454  0.41199  1.0000
  C   C173      1.0  0.78365  0.35074  0.33239  1.0000
  O   O34       1.0  0.78847  0.35786  0.49562  1.0000
  C   C174      1.0  0.82812  0.37101  0.53575  1.0000
  H   H136      1.0  0.82307  0.35621  0.60157  1.0000
  H   H137      1.0  0.84533  0.40447  0.54582  1.0000
  H   H138      1.0  0.84645  0.36169  0.49492  1.0000
  N   N35       1.0  0.59643  0.37330  0.40626  1.0000
  C   C175      1.0  0.63163  0.41093  0.41120  1.0000
  C   C176      1.0  0.65560  0.42719  0.33183  1.0000
  O   O35       1.0  0.64816  0.42477  0.49498  1.0000
  C   C177      1.0  0.63498  0.45128  0.53492  1.0000
  H   H139      1.0  0.64966  0.46096  0.60089  1.0000
  H   H140      1.0  0.60150  0.43507  0.54469  1.0000
  H   H141      1.0  0.64442  0.47897  0.49413  1.0000
  N   N36       1.0  0.63275  0.21714  0.40646  1.0000
  C   C178      1.0  0.59509  0.21468  0.41064  1.0000
  C   C179      1.0  0.57926  0.22276  0.33103  1.0000
  O   O36       1.0  0.58087  0.21711  0.49416  1.0000
  C   C180      1.0  0.55452  0.17732  0.53380  1.0000
  H   H142      1.0  0.54451  0.18211  0.59955  1.0000
  H   H143      1.0  0.57097  0.16031  0.54394  1.0000
  H   H144      1.0  0.52703  0.15891  0.49258  1.0000
