data_image0
_chemical_formula_structural       C3NC3NC5NC5NC20H18N4CNCNH2CHCNCNH2CHC8H8NC2HCHNC2HCH
_chemical_formula_sum              "C56 N14 H36"
_cell_length_a       25.5563
_cell_length_b       25.5543
_cell_length_c       14.6485
_cell_angle_alpha    90
_cell_angle_beta     90
_cell_angle_gamma    89.97

_space_group_name_H-M_alt    "P 1"
_space_group_IT_number       1

loop_
  _space_group_symop_operation_xyz
  'x, y, z'

loop_
  _atom_site_type_symbol
  _atom_site_label
  _atom_site_symmetry_multiplicity
  _atom_site_fract_x
  _atom_site_fract_y
  _atom_site_fract_z
  _atom_site_occupancy
  C   C1        1.0  0.91369  0.14736  0.34259  1.0000
  C   C2        1.0  0.87547  0.10920  0.34303  1.0000
  C   C3        1.0  0.89994  0.06028  0.34274  1.0000
  N   N1        1.0  0.95201  0.07077  0.34294  1.0000
  C   C4        1.0  0.96258  0.12283  0.34279  1.0000
  C   C5        1.0  0.01162  0.14937  0.34224  1.0000
  C   C6        1.0  0.06117  0.12401  0.34094  1.0000
  N   N2        1.0  0.07133  0.07204  0.34008  1.0000
  C   C7        1.0  0.12329  0.06179  0.33879  1.0000
  C   C8        1.0  0.14808  0.11049  0.33865  1.0000
  C   C9        1.0  0.10990  0.14874  0.34044  1.0000
  C   C10       1.0  0.14855  0.01219  0.33738  1.0000
  C   C11       1.0  0.12193  0.96320  0.33710  1.0000
  N   N3        1.0  0.06985  0.95272  0.33761  1.0000
  C   C12       1.0  0.05927  0.90066  0.33735  1.0000
  C   C13       1.0  0.10814  0.87610  0.33635  1.0000
  C   C14       1.0  0.14638  0.91426  0.33669  1.0000
  C   C15       1.0  0.01022  0.87414  0.33747  1.0000
  C   C16       1.0  0.96068  0.89949  0.33879  1.0000
  N   N4        1.0  0.95054  0.95146  0.34029  1.0000
  C   C17       1.0  0.89859  0.96169  0.34153  1.0000
  C   C18       1.0  0.87378  0.91300  0.34056  1.0000
  C   C19       1.0  0.91195  0.87475  0.33939  1.0000
  C   C20       1.0  0.87333  0.01128  0.34260  1.0000
  C   C21       1.0  0.81734  0.01172  0.34197  1.0000
  C   C22       1.0  0.70547  0.01077  0.33963  1.0000
  C   C23       1.0  0.73449  0.01916  0.25853  1.0000
  C   C24       1.0  0.78961  0.01957  0.25966  1.0000
  C   C25       1.0  0.01057  0.81815  0.33664  1.0000
  C   C26       1.0  0.01066  0.70628  0.33526  1.0000
  C   C27       1.0  0.00259  0.73504  0.25413  1.0000
  C   C28       1.0  0.00246  0.79019  0.25461  1.0000
  C   C29       1.0  0.20455  0.01168  0.33666  1.0000
  C   C30       1.0  0.23248  0.00372  0.25455  1.0000
  C   C31       1.0  0.28763  0.00359  0.25403  1.0000
  C   C32       1.0  0.31644  0.01129  0.33522  1.0000
  C   C33       1.0  0.01118  0.20537  0.34154  1.0000
  C   C34       1.0  0.01844  0.23319  0.25915  1.0000
  C   C35       1.0  0.00964  0.31725  0.33941  1.0000
  C   C36       1.0  0.01770  0.28831  0.25811  1.0000
  H   H1        1.0  0.02259  0.30699  0.19704  1.0000
  H   H2        1.0  0.02414  0.21343  0.19915  1.0000
  H   H3        1.0  0.90623  0.18667  0.34209  1.0000
  H   H4        1.0  0.83617  0.11669  0.34317  1.0000
  H   H5        1.0  0.97860  0.04414  0.34332  1.0000
  H   H6        1.0  0.04327  0.97935  0.33773  1.0000
  H   H7        1.0  0.11717  0.18807  0.34097  1.0000
  H   H8        1.0  0.18741  0.11771  0.33750  1.0000
  H   H9        1.0  0.21280  0.99810  0.19446  1.0000
  H   H10       1.0  0.30672  0.99784  0.19340  1.0000
  H   H11       1.0  0.18566  0.90674  0.33653  1.0000
  H   H12       1.0  0.11557  0.83679  0.33567  1.0000
  H   H13       1.0  0.83445  0.90578  0.34072  1.0000
  H   H14       1.0  0.90467  0.83543  0.33877  1.0000
  H   H15       1.0  0.99640  0.80984  0.19463  1.0000
  H   H16       1.0  0.99662  0.71591  0.19360  1.0000
  H   H17       1.0  0.80943  0.02536  0.19975  1.0000
  H   H18       1.0  0.71587  0.02440  0.19748  1.0000
  N   N5        1.0  0.01085  0.65409  0.32866  1.0000
  N   N6        1.0  0.36863  0.01147  0.32854  1.0000
  N   N7        1.0  0.00778  0.36951  0.34380  1.0000
  N   N8        1.0  0.65322  0.00897  0.34389  1.0000
  C   C37       1.0  0.01529  0.45880  0.30847  1.0000
  N   N9        1.0  0.01005  0.54989  0.27316  1.0000
  C   C38       1.0  0.01139  0.49954  0.24241  1.0000
  N   N10       1.0  0.00840  0.49237  0.15086  1.0000
  H   H19       1.0  0.00700  0.45780  0.12367  1.0000
  H   H20       1.0  0.00507  0.52225  0.11001  1.0000
  C   C39       1.0  0.02015  0.40600  0.28710  1.0000
  H   H21       1.0  0.03529  0.39624  0.22716  1.0000
  C   C40       1.0  0.56395  0.01627  0.30840  1.0000
  N   N11       1.0  0.47290  0.01051  0.27305  1.0000
  C   C41       1.0  0.52326  0.01186  0.24236  1.0000
  N   N12       1.0  0.53050  0.00839  0.15088  1.0000
  H   H22       1.0  0.56508  0.00707  0.12374  1.0000
  H   H23       1.0  0.50066  0.00481  0.11001  1.0000
  C   C42       1.0  0.61673  0.02116  0.28705  1.0000
  H   H24       1.0  0.62648  0.03606  0.22692  1.0000
  C   C43       1.0  0.78857  0.00325  0.42304  1.0000
  C   C44       1.0  0.73343  0.00260  0.42160  1.0000
  C   C45       1.0  0.01890  0.78959  0.41797  1.0000
  C   C46       1.0  0.01912  0.73446  0.41722  1.0000
  C   C47       1.0  0.28829  0.01952  0.41729  1.0000
  C   C48       1.0  0.23316  0.01955  0.41806  1.0000
  C   C49       1.0  0.00292  0.23406  0.42275  1.0000
  C   C50       1.0  0.00195  0.28921  0.42142  1.0000
  H   H25       1.0  0.99572  0.30889  0.48135  1.0000
  H   H26       1.0  0.99732  0.21496  0.48339  1.0000
  H   H27       1.0  0.21398  0.02567  0.47849  1.0000
  H   H28       1.0  0.30756  0.02596  0.47735  1.0000
  H   H29       1.0  0.02505  0.80882  0.47835  1.0000
  H   H30       1.0  0.02582  0.71521  0.47722  1.0000
  H   H31       1.0  0.71369  0.99609  0.48137  1.0000
  H   H32       1.0  0.80762  0.99713  0.48359  1.0000
  N   N13       1.0  0.01689  0.47335  0.39790  1.0000
  C   C51       1.0  0.01495  0.52368  0.42718  1.0000
  C   C52       1.0  0.01183  0.56446  0.36242  1.0000
  H   H33       1.0  0.01660  0.53116  0.49570  1.0000
  C   C53       1.0  0.01103  0.61681  0.38784  1.0000
  H   H34       1.0  0.01075  0.62554  0.45393  1.0000
  N   N14       1.0  0.54935  0.01831  0.39778  1.0000
  C   C54       1.0  0.49902  0.01634  0.42703  1.0000
  C   C55       1.0  0.45829  0.01272  0.36226  1.0000
  H   H35       1.0  0.49151  0.01838  0.49549  1.0000
  C   C56       1.0  0.40594  0.01188  0.38766  1.0000
  H   H36       1.0  0.39722  0.01186  0.45377  1.0000
