data_image0
_chemical_formula_structural       C3NC3NC5NC5NC20H18C4H4C4H3CH3NC4H3CH3NC8H8C4H3CH3NC4H3CH3N
_chemical_formula_sum              "C68 N8 H54"
_cell_length_a       25.5649
_cell_length_b       25.5647
_cell_length_c       14.5251
_cell_angle_alpha    90
_cell_angle_beta     90
_cell_angle_gamma    90.0371

_space_group_name_H-M_alt    "P 1"
_space_group_IT_number       1

loop_
  _space_group_symop_operation_xyz
  'x, y, z'

loop_
  _atom_site_type_symbol
  _atom_site_label
  _atom_site_symmetry_multiplicity
  _atom_site_fract_x
  _atom_site_fract_y
  _atom_site_fract_z
  _atom_site_occupancy
  C   C1        1.0  0.92168  0.87774  0.34695  1.0000
  C   C2        1.0  0.88246  0.91484  0.34836  1.0000
  C   C3        1.0  0.90553  0.96444  0.34880  1.0000
  N   N1        1.0  0.95787  0.95532  0.34942  1.0000
  C   C4        1.0  0.96987  0.90356  0.34793  1.0000
  C   C5        1.0  0.01957  0.87828  0.34640  1.0000
  C   C6        1.0  0.06839  0.90514  0.34664  1.0000
  N   N2        1.0  0.07719  0.95737  0.34756  1.0000
  C   C7        1.0  0.12886  0.96907  0.34692  1.0000
  C   C8        1.0  0.15494  0.92110  0.34533  1.0000
  C   C9        1.0  0.11783  0.88186  0.34621  1.0000
  C   C10       1.0  0.15289  0.01929  0.34688  1.0000
  C   C11       1.0  0.12481  0.06750  0.34850  1.0000
  N   N3        1.0  0.07246  0.07658  0.34933  1.0000
  C   C12       1.0  0.06046  0.12835  0.34944  1.0000
  C   C13       1.0  0.10862  0.15420  0.34937  1.0000
  C   C14       1.0  0.14784  0.11711  0.34986  1.0000
  C   C15       1.0  0.01076  0.15360  0.34856  1.0000
  C   C16       1.0  0.96194  0.12676  0.34938  1.0000
  N   N4        1.0  0.95313  0.07454  0.35035  1.0000
  C   C17       1.0  0.90146  0.06289  0.34972  1.0000
  C   C18       1.0  0.87540  0.11088  0.34847  1.0000
  C   C19       1.0  0.91253  0.15010  0.34920  1.0000
  C   C20       1.0  0.87745  0.01267  0.34862  1.0000
  C   C21       1.0  0.82147  0.01056  0.34345  1.0000
  C   C22       1.0  0.71006  0.00156  0.33361  1.0000
  C   C23       1.0  0.74170  0.99131  0.25574  1.0000
  C   C24       1.0  0.79650  0.99629  0.26029  1.0000
  C   C25       1.0  0.00948  0.20959  0.34328  1.0000
  C   C26       1.0  0.00087  0.32101  0.33355  1.0000
  C   C27       1.0  0.99067  0.28943  0.25558  1.0000
  C   C28       1.0  0.99546  0.23462  0.26006  1.0000
  C   C29       1.0  0.20893  0.02150  0.34397  1.0000
  C   C30       1.0  0.23517  0.03751  0.26297  1.0000
  C   C31       1.0  0.28996  0.04355  0.26186  1.0000
  C   C32       1.0  0.32015  0.03238  0.34100  1.0000
  C   C33       1.0  0.02087  0.82221  0.34338  1.0000
  C   C34       1.0  0.03590  0.79575  0.26203  1.0000
  C   C35       1.0  0.03110  0.71093  0.34067  1.0000
  C   C36       1.0  0.04158  0.74093  0.26101  1.0000
  H   H1        1.0  0.05438  0.72323  0.20192  1.0000
  H   H2        1.0  0.04470  0.81648  0.20375  1.0000
  H   H3        1.0  0.91523  0.83831  0.34524  1.0000
  H   H4        1.0  0.84345  0.90617  0.34836  1.0000
  H   H5        1.0  0.98369  0.98262  0.34983  1.0000
  H   H6        1.0  0.04665  0.04929  0.34800  1.0000
  H   H7        1.0  0.12632  0.84282  0.34605  1.0000
  H   H8        1.0  0.19440  0.91490  0.34416  1.0000
  H   H9        1.0  0.21431  0.04667  0.20502  1.0000
  H   H10       1.0  0.30751  0.05690  0.20301  1.0000
  H   H11       1.0  0.18684  0.12584  0.35040  1.0000
  H   H12       1.0  0.11507  0.19364  0.34913  1.0000
  H   H13       1.0  0.83594  0.11711  0.34711  1.0000
  H   H14       1.0  0.90411  0.18916  0.34878  1.0000
  H   H15       1.0  0.98713  0.21292  0.20266  1.0000
  H   H16       1.0  0.97901  0.30605  0.19479  1.0000
  H   H17       1.0  0.81824  0.98808  0.20289  1.0000
  H   H18       1.0  0.72513  0.97955  0.19497  1.0000
  C   C37       1.0  0.99189  0.37451  0.32904  1.0000
  C   C38       1.0  0.37328  0.04285  0.34143  1.0000
  C   C39       1.0  0.04163  0.65783  0.34133  1.0000
  C   C40       1.0  0.65653  0.99259  0.32900  1.0000
  H   H19       1.0  0.95950  0.38677  0.29757  1.0000
  H   H20       1.0  0.38487  0.07949  0.33020  1.0000
  H   H21       1.0  0.07829  0.64634  0.33024  1.0000
  H   H22       1.0  0.64422  0.96028  0.29732  1.0000
  C   C41       1.0  0.00982  0.57134  0.35289  1.0000
  C   C42       1.0  0.02219  0.54345  0.27064  1.0000
  C   C43       1.0  0.03012  0.48817  0.27448  1.0000
  C   C44       1.0  0.04889  0.45733  0.19300  1.0000
  H   H23       1.0  0.06314  0.48096  0.13601  1.0000
  H   H24       1.0  0.01721  0.43287  0.16688  1.0000
  H   H25       1.0  0.08146  0.43221  0.21322  1.0000
  C   C45       1.0  0.02472  0.57139  0.18004  1.0000
  H   H26       1.0  0.00986  0.61128  0.18191  1.0000
  H   H27       1.0  0.00092  0.55085  0.12916  1.0000
  H   H28       1.0  0.06516  0.57299  0.15614  1.0000
  N   N5        1.0  0.00517  0.62361  0.35227  1.0000
  C   C46       1.0  0.45970  0.01089  0.35306  1.0000
  C   C47       1.0  0.48761  0.02321  0.27081  1.0000
  C   C48       1.0  0.54292  0.03101  0.27461  1.0000
  C   C49       1.0  0.57380  0.04976  0.19314  1.0000
  H   H29       1.0  0.55019  0.06411  0.13622  1.0000
  H   H30       1.0  0.59813  0.01804  0.16693  1.0000
  H   H31       1.0  0.59904  0.08227  0.21342  1.0000
  C   C50       1.0  0.45966  0.02583  0.18023  1.0000
  H   H32       1.0  0.41973  0.01102  0.18211  1.0000
  H   H33       1.0  0.48012  0.00202  0.12929  1.0000
  H   H34       1.0  0.45816  0.06628  0.15639  1.0000
  N   N6        1.0  0.40741  0.00636  0.35252  1.0000
  C   C51       1.0  0.78992  0.02123  0.42122  1.0000
  C   C52       1.0  0.73496  0.01710  0.41625  1.0000
  C   C53       1.0  0.02009  0.24106  0.42118  1.0000
  C   C54       1.0  0.01615  0.29603  0.41625  1.0000
  C   C55       1.0  0.29413  0.01515  0.42139  1.0000
  C   C56       1.0  0.23921  0.01005  0.42296  1.0000
  C   C57       1.0  0.00995  0.79210  0.42282  1.0000
  C   C58       1.0  0.01470  0.73715  0.42139  1.0000
  H   H35       1.0  0.00816  0.71670  0.48086  1.0000
  H   H36       1.0  0.99972  0.81015  0.48307  1.0000
  H   H37       1.0  0.22131  0.99897  0.48290  1.0000
  H   H38       1.0  0.31472  0.00795  0.48047  1.0000
  H   H39       1.0  0.02983  0.22404  0.48260  1.0000
  H   H40       1.0  0.02284  0.31752  0.47452  1.0000
  H   H41       1.0  0.71344  0.02382  0.47445  1.0000
  H   H42       1.0  0.80688  0.03125  0.48256  1.0000
  C   C59       1.0  0.01974  0.46075  0.35797  1.0000
  C   C60       1.0  0.00589  0.48835  0.43958  1.0000
  C   C61       1.0  0.00136  0.54408  0.43720  1.0000
  C   C62       1.0  0.99617  0.45936  0.52786  1.0000
  H   H43       1.0  0.00078  0.41712  0.52287  1.0000
  H   H44       1.0  0.95626  0.46644  0.55133  1.0000
  H   H45       1.0  0.02346  0.47264  0.58068  1.0000
  C   C63       1.0  0.98757  0.57333  0.52354  1.0000
  H   H46       1.0  0.98474  0.61555  0.51514  1.0000
  H   H47       1.0  0.01723  0.56636  0.57612  1.0000
  H   H48       1.0  0.94970  0.56014  0.54928  1.0000
  N   N7        1.0  0.02448  0.40846  0.36079  1.0000
  C   C64       1.0  0.57033  0.02051  0.35806  1.0000
  C   C65       1.0  0.54270  0.00667  0.43967  1.0000
  C   C66       1.0  0.48695  0.00229  0.43733  1.0000
  C   C67       1.0  0.57168  0.99683  0.52790  1.0000
  H   H49       1.0  0.61393  0.00131  0.52288  1.0000
  H   H50       1.0  0.56444  0.95692  0.55131  1.0000
  H   H51       1.0  0.55853  0.02413  0.58077  1.0000
  C   C68       1.0  0.45768  0.98852  0.52368  1.0000
  H   H52       1.0  0.41545  0.98581  0.51533  1.0000
  H   H53       1.0  0.46479  0.01813  0.57632  1.0000
  H   H54       1.0  0.47072  0.95061  0.54932  1.0000
  N   N8        1.0  0.62263  0.02516  0.36088  1.0000
