data_image0
_chemical_formula_structural       H3CH3CH2C6H4NC6H4NC2H2C2H2C2H2C2H2C6H4NC6H4NC2H2C2H2C2H2C2H2C4H4C4H4C6HOC6OH5C4H2C6HOC6OH5C4H4C6HOC6OH5C4H4C6HOC6OH4C3H2C6HOC6OH4C3H2C4H2C2H2NC4H2C2H2NC8H4N2C8H4N2C4H2C2H2NC4H2C2H2NC8H4N2C8H4N2C4H2C4H2N2C4H2C4H2N2
_chemical_formula_sum              "H130 C200 N20 O10"
_cell_length_a       40.8503
_cell_length_b       52.0024
_cell_length_c       15.0084
_cell_angle_alpha    88.5435
_cell_angle_beta     91.1598
_cell_angle_gamma    89.7539

_space_group_name_H-M_alt    "P 1"
_space_group_IT_number       1

loop_
  _space_group_symop_operation_xyz
  'x, y, z'

loop_
  _atom_site_type_symbol
  _atom_site_label
  _atom_site_symmetry_multiplicity
  _atom_site_fract_x
  _atom_site_fract_y
  _atom_site_fract_z
  _atom_site_occupancy
  H   H1        1.0  0.04598  0.05993  0.23397  1.0000
  H   H2        1.0  0.89560  0.95464  0.23368  1.0000
  H   H3        1.0  0.76917  0.34604  0.33460  1.0000
  C   C1        1.0  0.82744  0.32481  0.32478  1.0000
  H   H4        1.0  0.83002  0.33660  0.27227  1.0000
  H   H5        1.0  0.61680  0.30655  0.28741  1.0000
  H   H6        1.0  0.17403  0.66695  0.33376  1.0000
  C   C2        1.0  0.11566  0.68833  0.32356  1.0000
  H   H7        1.0  0.11215  0.67763  0.27032  1.0000
  H   H8        1.0  0.32617  0.70684  0.28865  1.0000
  C   C3        1.0  0.09709  0.09780  0.24457  1.0000
  C   C4        1.0  0.11364  0.12139  0.23708  1.0000
  C   C5        1.0  0.13754  0.15972  0.30730  1.0000
  C   C6        1.0  0.12279  0.17902  0.25153  1.0000
  C   C7        1.0  0.13352  0.20463  0.25434  1.0000
  C   C8        1.0  0.15934  0.21159  0.31245  1.0000
  H   H9        1.0  0.10257  0.17504  0.21300  1.0000
  H   H10       1.0  0.12100  0.21842  0.21728  1.0000
  H   H11       1.0  0.09032  0.08858  0.18777  1.0000
  H   H12       1.0  0.11835  0.12876  0.17479  1.0000
  N   N1        1.0  0.16418  0.23656  0.32102  1.0000
  C   C9        1.0  0.84478  0.91651  0.24437  1.0000
  C   C10       1.0  0.82811  0.89304  0.23683  1.0000
  C   C11       1.0  0.80524  0.85366  0.30701  1.0000
  C   C12       1.0  0.81923  0.83519  0.25139  1.0000
  C   C13       1.0  0.80860  0.80952  0.25426  1.0000
  C   C14       1.0  0.78368  0.80169  0.31241  1.0000
  H   H13       1.0  0.83890  0.83975  0.21296  1.0000
  H   H14       1.0  0.82064  0.79628  0.21741  1.0000
  H   H15       1.0  0.85078  0.92654  0.18760  1.0000
  H   H16       1.0  0.82252  0.88657  0.17452  1.0000
  N   N2        1.0  0.77896  0.77659  0.32101  1.0000
  C   C15       1.0  0.83089  0.11903  0.32374  1.0000
  C   C16       1.0  0.84595  0.09482  0.31855  1.0000
  H   H17       1.0  0.82873  0.13022  0.26681  1.0000
  H   H18       1.0  0.85406  0.08898  0.25813  1.0000
  C   C17       1.0  0.77457  0.18896  0.34703  1.0000
  C   C18       1.0  0.78388  0.16292  0.34968  1.0000
  H   H19       1.0  0.75851  0.19519  0.29797  1.0000
  H   H20       1.0  0.77377  0.15097  0.30359  1.0000
  C   C19       1.0  0.11256  0.89427  0.32324  1.0000
  C   C20       1.0  0.09742  0.91856  0.31813  1.0000
  H   H21       1.0  0.11395  0.88397  0.26620  1.0000
  H   H22       1.0  0.08853  0.92535  0.25767  1.0000
  C   C21       1.0  0.16894  0.82387  0.34636  1.0000
  C   C22       1.0  0.15979  0.84989  0.34926  1.0000
  H   H23       1.0  0.18438  0.81838  0.29756  1.0000
  H   H24       1.0  0.16932  0.86255  0.30341  1.0000
  C   C23       1.0  0.24755  0.45597  0.26041  1.0000
  C   C24       1.0  0.24544  0.48285  0.26669  1.0000
  C   C25       1.0  0.25586  0.52254  0.34994  1.0000
  C   C26       1.0  0.26736  0.53829  0.27908  1.0000
  C   C27       1.0  0.26874  0.56514  0.28670  1.0000
  C   C28       1.0  0.25895  0.57686  0.36552  1.0000
  H   H25       1.0  0.27596  0.53033  0.22237  1.0000
  H   H26       1.0  0.27779  0.57600  0.23499  1.0000
  H   H27       1.0  0.23912  0.44756  0.20360  1.0000
  H   H28       1.0  0.23541  0.49327  0.21409  1.0000
  N   N3        1.0  0.26164  0.60214  0.36806  1.0000
  C   C29       1.0  0.69421  0.55811  0.25957  1.0000
  C   C30       1.0  0.69635  0.53113  0.26592  1.0000
  C   C31       1.0  0.68723  0.49027  0.34951  1.0000
  C   C32       1.0  0.67430  0.47560  0.27901  1.0000
  C   C33       1.0  0.67291  0.44865  0.28667  1.0000
  C   C34       1.0  0.68414  0.43573  0.36517  1.0000
  H   H29       1.0  0.66469  0.48442  0.22257  1.0000
  H   H30       1.0  0.66283  0.43858  0.23525  1.0000
  H   H31       1.0  0.70157  0.56732  0.20247  1.0000
  H   H32       1.0  0.70536  0.52145  0.21310  1.0000
  N   N4        1.0  0.68143  0.41041  0.36768  1.0000
  C   C35       1.0  0.93662  0.33251  0.31177  1.0000
  C   C36       1.0  0.90226  0.33019  0.30447  1.0000
  H   H33       1.0  0.94964  0.33361  0.25429  1.0000
  H   H34       1.0  0.89151  0.32955  0.24243  1.0000
  C   C37       1.0  0.04279  0.34385  0.35202  1.0000
  C   C38       1.0  0.00835  0.34630  0.34928  1.0000
  H   H35       1.0  0.05628  0.35509  0.30980  1.0000
  H   H36       1.0  0.99796  0.35980  0.30660  1.0000
  C   C39       1.0  0.00630  0.68092  0.31107  1.0000
  C   C40       1.0  0.04054  0.68338  0.30366  1.0000
  H   H37       1.0  0.99238  0.68077  0.25365  1.0000
  H   H38       1.0  0.05034  0.68499  0.24161  1.0000
  C   C41       1.0  0.90079  0.66890  0.35148  1.0000
  C   C42       1.0  0.93519  0.66648  0.34864  1.0000
  H   H39       1.0  0.88666  0.65831  0.30923  1.0000
  H   H40       1.0  0.94492  0.65368  0.30569  1.0000
  C   C43       1.0  0.54377  0.31449  0.29609  1.0000
  C   C44       1.0  0.50926  0.31401  0.29267  1.0000
  C   C45       1.0  0.43935  0.33357  0.29185  1.0000
  C   C46       1.0  0.40511  0.33672  0.28889  1.0000
  H   H41       1.0  0.45257  0.34204  0.24200  1.0000
  H   H42       1.0  0.39460  0.34704  0.23667  1.0000
  H   H43       1.0  0.55631  0.31154  0.23894  1.0000
  H   H44       1.0  0.49789  0.31031  0.23302  1.0000
  C   C47       1.0  0.39903  0.69919  0.29783  1.0000
  C   C48       1.0  0.43348  0.69982  0.29403  1.0000
  C   C49       1.0  0.50340  0.68031  0.29233  1.0000
  C   C50       1.0  0.53759  0.67718  0.28913  1.0000
  H   H45       1.0  0.48937  0.67259  0.24257  1.0000
  H   H46       1.0  0.54726  0.66762  0.23683  1.0000
  H   H47       1.0  0.38554  0.70298  0.24085  1.0000
  H   H48       1.0  0.44386  0.70446  0.23429  1.0000
  C   C51       1.0  0.98915  0.00714  0.36437  1.0000
  C   C52       1.0  0.00855  0.98722  0.40351  1.0000
  C   C53       1.0  0.04301  0.98883  0.40502  1.0000
  C   C54       1.0  0.05846  0.01055  0.36602  1.0000
  C   C55       1.0  0.03922  0.03096  0.32806  1.0000
  C   C56       1.0  0.00474  0.02898  0.32722  1.0000
  H   H49       1.0  0.99740  0.97139  0.43130  1.0000
  O   O1        1.0  0.09186  0.01194  0.36758  1.0000
  C   C57       1.0  0.95453  0.00538  0.36438  1.0000
  C   C58       1.0  0.93837  0.98409  0.32717  1.0000
  C   C59       1.0  0.90391  0.98210  0.32805  1.0000
  C   C60       1.0  0.88525  0.00194  0.36613  1.0000
  C   C61       1.0  0.90128  0.02307  0.40522  1.0000
  C   C62       1.0  0.93572  0.02470  0.40364  1.0000
  O   O2        1.0  0.85187  0.00052  0.36771  1.0000
  H   H50       1.0  0.94729  0.04012  0.43149  1.0000
  H   H51       1.0  0.09898  0.00679  0.30840  1.0000
  H   H52       1.0  0.84386  0.00659  0.30858  1.0000
  H   H53       1.0  0.99075  0.04362  0.29931  1.0000
  H   H54       1.0  0.95195  0.96987  0.29919  1.0000
  C   C63       1.0  0.05340  0.05296  0.29335  1.0000
  C   C64       1.0  0.06084  0.96836  0.44000  1.0000
  C   C65       1.0  0.88922  0.96061  0.29334  1.0000
  C   C66       1.0  0.88399  0.04300  0.44027  1.0000
  H   H55       1.0  0.88788  0.04767  0.50341  1.0000
  H   H56       1.0  0.05773  0.96264  0.50295  1.0000
  C   C67       1.0  0.20735  0.31860  0.36497  1.0000
  C   C68       1.0  0.20811  0.29141  0.36365  1.0000
  C   C69       1.0  0.17946  0.27652  0.37019  1.0000
  C   C70       1.0  0.14865  0.28899  0.37591  1.0000
  C   C71       1.0  0.14649  0.31626  0.37772  1.0000
  C   C72       1.0  0.17607  0.33041  0.37349  1.0000
  H   H57       1.0  0.22985  0.28204  0.35482  1.0000
  O   O3        1.0  0.12112  0.27424  0.38153  1.0000
  C   C73       1.0  0.23709  0.33330  0.35424  1.0000
  C   C74       1.0  0.26846  0.32401  0.38359  1.0000
  C   C75       1.0  0.29767  0.33817  0.37054  1.0000
  C   C76       1.0  0.29502  0.36341  0.33260  1.0000
  C   C77       1.0  0.26427  0.37310  0.30221  1.0000
  C   C78       1.0  0.23608  0.35784  0.31117  1.0000
  O   O4        1.0  0.32195  0.37873  0.32407  1.0000
  H   H58       1.0  0.21428  0.36514  0.28673  1.0000
  H   H59       1.0  0.11190  0.27340  0.32058  1.0000
  H   H60       1.0  0.32616  0.38607  0.38296  1.0000
  H   H61       1.0  0.17459  0.34999  0.37705  1.0000
  H   H62       1.0  0.27027  0.30650  0.41593  1.0000
  C   C79       1.0  0.11637  0.32938  0.37609  1.0000
  C   C80       1.0  0.18235  0.25002  0.37248  1.0000
  C   C81       1.0  0.32794  0.32774  0.39774  1.0000
  C   C82       1.0  0.26051  0.39829  0.27343  1.0000
  H   H63       1.0  0.25342  0.40242  0.21100  1.0000
  H   H64       1.0  0.11486  0.34664  0.34629  1.0000
  H   H65       1.0  0.19714  0.24171  0.41809  1.0000
  H   H66       1.0  0.32954  0.31688  0.45308  1.0000
  C   C83       1.0  0.73650  0.69393  0.36490  1.0000
  C   C84       1.0  0.73574  0.72114  0.36366  1.0000
  C   C85       1.0  0.76449  0.73591  0.37035  1.0000
  C   C86       1.0  0.79538  0.72335  0.37601  1.0000
  C   C87       1.0  0.79754  0.69605  0.37767  1.0000
  C   C88       1.0  0.76790  0.68198  0.37336  1.0000
  H   H67       1.0  0.71386  0.73065  0.35495  1.0000
  O   O5        1.0  0.82300  0.73800  0.38167  1.0000
  C   C89       1.0  0.70659  0.67941  0.35412  1.0000
  C   C90       1.0  0.67569  0.68826  0.38362  1.0000
  C   C91       1.0  0.64627  0.67432  0.37052  1.0000
  C   C92       1.0  0.64831  0.64967  0.33235  1.0000
  C   C93       1.0  0.67859  0.64042  0.30182  1.0000
  C   C94       1.0  0.70693  0.65553  0.31083  1.0000
  O   O6        1.0  0.62123  0.63451  0.32372  1.0000
  H   H68       1.0  0.72835  0.64859  0.28635  1.0000
  H   H69       1.0  0.83131  0.73976  0.32073  1.0000
  H   H70       1.0  0.61788  0.62628  0.38257  1.0000
  H   H71       1.0  0.76942  0.66234  0.37683  1.0000
  H   H72       1.0  0.67439  0.70528  0.41612  1.0000
  C   C95       1.0  0.82762  0.68295  0.37596  1.0000
  C   C96       1.0  0.76166  0.76238  0.37274  1.0000
  C   C97       1.0  0.61644  0.68435  0.39786  1.0000
  C   C98       1.0  0.68187  0.61567  0.27286  1.0000
  H   H73       1.0  0.68854  0.61249  0.21081  1.0000
  H   H74       1.0  0.82870  0.66622  0.34547  1.0000
  H   H75       1.0  0.74767  0.77002  0.41862  1.0000
  H   H76       1.0  0.61569  0.69432  0.45339  1.0000
  C   C99       1.0  0.73755  0.31438  0.35866  1.0000
  C   C100      1.0  0.73770  0.28721  0.36746  1.0000
  C   C101      1.0  0.76639  0.27244  0.35785  1.0000
  C   C102      1.0  0.79642  0.28512  0.34171  1.0000
  C   C103      1.0  0.79776  0.31236  0.33744  1.0000
  C   C104      1.0  0.76818  0.32648  0.34287  1.0000
  H   H77       1.0  0.71645  0.27775  0.38199  1.0000
  O   O7        1.0  0.82424  0.27104  0.32957  1.0000
  C   C105      1.0  0.70737  0.32864  0.36716  1.0000
  C   C106      1.0  0.67632  0.31860  0.34128  1.0000
  C   C107      1.0  0.64657  0.33231  0.35136  1.0000
  C   C108      1.0  0.64828  0.35783  0.38234  1.0000
  C   C109      1.0  0.67874  0.36826  0.40902  1.0000
  C   C110      1.0  0.70760  0.35354  0.40302  1.0000
  O   O8        1.0  0.62064  0.37258  0.38760  1.0000
  H   H78       1.0  0.72923  0.36143  0.42426  1.0000
  H   H79       1.0  0.82542  0.26827  0.26513  1.0000
  H   H80       1.0  0.61645  0.38000  0.32748  1.0000
  H   H81       1.0  0.67517  0.30089  0.31328  1.0000
  C   C111      1.0  0.76377  0.24595  0.35827  1.0000
  C   C112      1.0  0.61648  0.32171  0.32638  1.0000
  C   C113      1.0  0.68138  0.39359  0.43160  1.0000
  H   H82       1.0  0.68383  0.39821  0.49520  1.0000
  H   H83       1.0  0.74554  0.23816  0.32355  1.0000
  C   C114      1.0  0.20600  0.69825  0.35812  1.0000
  C   C115      1.0  0.20597  0.72529  0.36686  1.0000
  C   C116      1.0  0.17716  0.74021  0.35683  1.0000
  C   C117      1.0  0.14690  0.72778  0.34049  1.0000
  C   C118      1.0  0.14551  0.70060  0.33628  1.0000
  C   C119      1.0  0.17515  0.68640  0.34200  1.0000
  H   H84       1.0  0.22741  0.73454  0.38164  1.0000
  O   O9        1.0  0.11890  0.74203  0.32817  1.0000
  C   C120      1.0  0.23628  0.68384  0.36715  1.0000
  C   C121      1.0  0.26704  0.69428  0.34213  1.0000
  C   C122      1.0  0.29691  0.68043  0.35310  1.0000
  C   C123      1.0  0.29560  0.65447  0.38416  1.0000
  C   C124      1.0  0.26544  0.64361  0.40979  1.0000
  C   C125      1.0  0.23648  0.65840  0.40290  1.0000
  O   O10       1.0  0.32334  0.63968  0.39034  1.0000
  H   H85       1.0  0.21511  0.65018  0.42353  1.0000
  H   H86       1.0  0.11681  0.74576  0.26372  1.0000
  H   H87       1.0  0.32687  0.63310  0.33040  1.0000
  H   H88       1.0  0.26788  0.71242  0.31430  1.0000
  C   C126      1.0  0.17978  0.76669  0.35730  1.0000
  C   C127      1.0  0.32669  0.69150  0.32966  1.0000
  C   C128      1.0  0.26311  0.61795  0.43218  1.0000
  H   H89       1.0  0.26228  0.61232  0.49583  1.0000
  H   H90       1.0  0.19757  0.77500  0.32288  1.0000
  C   C129      1.0  0.08969  0.08719  0.32937  1.0000
  C   C130      1.0  0.12340  0.13481  0.31400  1.0000
  C   C131      1.0  0.11652  0.12371  0.39864  1.0000
  C   C132      1.0  0.10007  0.10012  0.40618  1.0000
  H   H91       1.0  0.12237  0.13313  0.45584  1.0000
  H   H92       1.0  0.09487  0.09285  0.46834  1.0000
  C   C133      1.0  0.17517  0.19221  0.36539  1.0000
  C   C134      1.0  0.16439  0.16660  0.36268  1.0000
  H   H93       1.0  0.19358  0.19666  0.40936  1.0000
  H   H94       1.0  0.17560  0.15317  0.40411  1.0000
  N   N5        1.0  0.07360  0.06544  0.34231  1.0000
  C   C135      1.0  0.85341  0.92587  0.32920  1.0000
  C   C136      1.0  0.81942  0.87850  0.31371  1.0000
  C   C137      1.0  0.82751  0.88836  0.39838  1.0000
  C   C138      1.0  0.84408  0.91183  0.40598  1.0000
  H   H95       1.0  0.82250  0.87809  0.45555  1.0000
  H   H96       1.0  0.85021  0.91816  0.46816  1.0000
  C   C139      1.0  0.76850  0.82030  0.36502  1.0000
  C   C140      1.0  0.77916  0.84597  0.36220  1.0000
  H   H97       1.0  0.75073  0.81519  0.40894  1.0000
  H   H98       1.0  0.76852  0.85879  0.40355  1.0000
  N   N6        1.0  0.86976  0.94739  0.34225  1.0000
  C   C141      1.0  0.85136  0.07941  0.39601  1.0000
  C   C142      1.0  0.84044  0.08824  0.47866  1.0000
  C   C143      1.0  0.82532  0.11248  0.48381  1.0000
  C   C144      1.0  0.82057  0.12830  0.40652  1.0000
  C   C145      1.0  0.80790  0.15367  0.41180  1.0000
  C   C146      1.0  0.82153  0.17102  0.47331  1.0000
  C   C147      1.0  0.81230  0.19711  0.47045  1.0000
  C   C148      1.0  0.78905  0.20641  0.40672  1.0000
  H   H99       1.0  0.83977  0.16521  0.51717  1.0000
  H   H100      1.0  0.82385  0.20949  0.51261  1.0000
  H   H101      1.0  0.84387  0.07735  0.53578  1.0000
  H   H102      1.0  0.81809  0.11859  0.54469  1.0000
  N   N7        1.0  0.78498  0.23167  0.40017  1.0000
  N   N8        1.0  0.86766  0.05772  0.38574  1.0000
  C   C149      1.0  0.09304  0.93275  0.39570  1.0000
  C   C150      1.0  0.10508  0.92264  0.47838  1.0000
  C   C151      1.0  0.12025  0.89831  0.48344  1.0000
  C   C152      1.0  0.12396  0.88370  0.40604  1.0000
  C   C153      1.0  0.13663  0.85822  0.41121  1.0000
  C   C154      1.0  0.12378  0.83994  0.47242  1.0000
  C   C155      1.0  0.13285  0.81388  0.46929  1.0000
  C   C156      1.0  0.15523  0.80553  0.40578  1.0000
  H   H103      1.0  0.10614  0.84511  0.51611  1.0000
  H   H104      1.0  0.12189  0.80087  0.51135  1.0000
  H   H105      1.0  0.10239  0.93263  0.53558  1.0000
  H   H106      1.0  0.12828  0.89125  0.54435  1.0000
  N   N9        1.0  0.15917  0.78036  0.39912  1.0000
  N   N10       1.0  0.07655  0.95457  0.38550  1.0000
  C   C157      1.0  0.26107  0.44090  0.33177  1.0000
  C   C158      1.0  0.25660  0.49528  0.34438  1.0000
  C   C159      1.0  0.26980  0.47998  0.41580  1.0000
  C   C160      1.0  0.27191  0.45313  0.40960  1.0000
  H   H107      1.0  0.27878  0.48826  0.47235  1.0000
  H   H108      1.0  0.28185  0.44261  0.46216  1.0000
  C   C161      1.0  0.24656  0.56137  0.43564  1.0000
  C   C162      1.0  0.24513  0.53452  0.42790  1.0000
  H   H109      1.0  0.23864  0.56942  0.49283  1.0000
  H   H110      1.0  0.23619  0.52378  0.48000  1.0000
  N   N11       1.0  0.26400  0.41561  0.33207  1.0000
  C   C163      1.0  0.68203  0.57217  0.33118  1.0000
  C   C164      1.0  0.68657  0.51761  0.34393  1.0000
  C   C165      1.0  0.67474  0.53191  0.41560  1.0000
  C   C166      1.0  0.67259  0.55884  0.40934  1.0000
  H   H111      1.0  0.66674  0.52282  0.47237  1.0000
  H   H112      1.0  0.66360  0.56863  0.46203  1.0000
  C   C167      1.0  0.69793  0.45015  0.43492  1.0000
  C   C168      1.0  0.69936  0.47711  0.42714  1.0000
  H   H113      1.0  0.70689  0.44122  0.49183  1.0000
  H   H114      1.0  0.70935  0.48705  0.47895  1.0000
  N   N12       1.0  0.67906  0.59746  0.33133  1.0000
  C   C169      1.0  0.88321  0.32648  0.38128  1.0000
  C   C170      1.0  0.89936  0.32566  0.46523  1.0000
  C   C171      1.0  0.93362  0.32819  0.47242  1.0000
  C   C172      1.0  0.95314  0.33110  0.39581  1.0000
  C   C173      1.0  0.98828  0.33022  0.40268  1.0000
  C   C174      1.0  0.00428  0.31179  0.45976  1.0000
  C   C175      1.0  0.03860  0.30919  0.46214  1.0000
  C   C176      1.0  0.05837  0.32510  0.40828  1.0000
  H   H115      1.0  0.99098  0.29905  0.49726  1.0000
  H   H116      1.0  0.04902  0.29486  0.50141  1.0000
  H   H117      1.0  0.88636  0.32229  0.52193  1.0000
  H   H118      1.0  0.94433  0.32702  0.53465  1.0000
  N   N13       1.0  0.09007  0.31908  0.40613  1.0000
  N   N14       1.0  0.85179  0.31977  0.37822  1.0000
  C   C177      1.0  0.06080  0.68576  0.38045  1.0000
  C   C178      1.0  0.04596  0.68518  0.46448  1.0000
  C   C179      1.0  0.01181  0.68258  0.47178  1.0000
  C   C180      1.0  0.99110  0.68095  0.39521  1.0000
  C   C181      1.0  0.95607  0.68170  0.40227  1.0000
  C   C182      1.0  0.94096  0.69919  0.45979  1.0000
  C   C183      1.0  0.90668  0.70175  0.46226  1.0000
  C   C184      1.0  0.88609  0.68671  0.40820  1.0000
  H   H119      1.0  0.95484  0.71132  0.49747  1.0000
  H   H120      1.0  0.89685  0.71541  0.50195  1.0000
  H   H121      1.0  0.05986  0.68758  0.52119  1.0000
  H   H122      1.0  0.00209  0.68269  0.53407  1.0000
  N   N15       1.0  0.85435  0.69275  0.40628  1.0000
  N   N16       1.0  0.09220  0.69245  0.37742  1.0000
  C   C185      1.0  0.56083  0.31972  0.37648  1.0000
  C   C186      1.0  0.49052  0.31880  0.36908  1.0000
  C   C187      1.0  0.50789  0.32355  0.44963  1.0000
  C   C188      1.0  0.54237  0.32400  0.45319  1.0000
  H   H123      1.0  0.49557  0.32783  0.50610  1.0000
  H   H124      1.0  0.55395  0.32829  0.51209  1.0000
  C   C189      1.0  0.45541  0.32038  0.36416  1.0000
  C   C190      1.0  0.38554  0.32671  0.35777  1.0000
  C   C191      1.0  0.40117  0.31326  0.42983  1.0000
  C   C192      1.0  0.43552  0.31018  0.43281  1.0000
  H   H125      1.0  0.38778  0.30605  0.48149  1.0000
  H   H126      1.0  0.44595  0.30041  0.48627  1.0000
  N   N17       1.0  0.35373  0.33230  0.35222  1.0000
  N   N18       1.0  0.59322  0.32235  0.38401  1.0000
  C   C193      1.0  0.38334  0.69267  0.37835  1.0000
  C   C194      1.0  0.45350  0.69388  0.37015  1.0000
  C   C195      1.0  0.43749  0.68783  0.45085  1.0000
  C   C196      1.0  0.40307  0.68723  0.45479  1.0000
  H   H127      1.0  0.45076  0.68266  0.50707  1.0000
  H   H128      1.0  0.39249  0.68194  0.51373  1.0000
  C   C197      1.0  0.48852  0.69240  0.36484  1.0000
  C   C198      1.0  0.55826  0.68610  0.35798  1.0000
  C   C199      1.0  0.54380  0.69852  0.43014  1.0000
  C   C200      1.0  0.50950  0.70158  0.43336  1.0000
  H   H129      1.0  0.55802  0.70491  0.48175  1.0000
  H   H130      1.0  0.49994  0.71054  0.48695  1.0000
  N   N19       1.0  0.58996  0.68055  0.35226  1.0000
  N   N20       1.0  0.35112  0.68975  0.38622  1.0000
