data_image0
_chemical_formula_structural       COHC3O2H2NC3O2H2NC6H3C3H3C3H2CH2C3H2CHC2OHNC3OHOHNOHOHC3OHOHNC3OHOHNC3OHOHNC3O2H2NC3O2H2NC3HC2HC3HC2H2C6H3C3H2C6H3C3H3C3O2H2NC3O2H2NC3NC3OHOHNC2OHNC3O2H2NC3O2H2NC6H3C3H4COHC3OHOHNC3OHOHN
_chemical_formula_sum              "C108 O36 H72 N18"
_cell_length_a       47.6071
_cell_length_b       47.607
_cell_length_c       14.5965
_cell_angle_alpha    90
_cell_angle_beta     90
_cell_angle_gamma    120

_space_group_name_H-M_alt    "P 1"
_space_group_IT_number       1

loop_
  _space_group_symop_operation_xyz
  'x, y, z'

loop_
  _atom_site_type_symbol
  _atom_site_label
  _atom_site_symmetry_multiplicity
  _atom_site_fract_x
  _atom_site_fract_y
  _atom_site_fract_z
  _atom_site_occupancy
  C   C1        1.0  0.03935  0.51064  0.28495  1.0000
  O   O1        1.0  0.05652  0.50836  0.21363  1.0000
  H   H1        1.0  0.05668  0.48794  0.22218  1.0000
  C   C2        1.0  0.26034  0.55384  0.37087  1.0000
  C   C3        1.0  0.25929  0.52487  0.34165  1.0000
  C   C4        1.0  0.28762  0.52201  0.34054  1.0000
  O   O2        1.0  0.23099  0.49967  0.30987  1.0000
  O   O3        1.0  0.28597  0.49438  0.30862  1.0000
  H   H2        1.0  0.23049  0.50323  0.24365  1.0000
  H   H3        1.0  0.29086  0.49779  0.24274  1.0000
  N   N1        1.0  0.23292  0.55635  0.36077  1.0000
  C   C5        1.0  0.32115  0.77423  0.37087  1.0000
  C   C6        1.0  0.29323  0.77527  0.34162  1.0000
  C   C7        1.0  0.26203  0.74694  0.34051  1.0000
  O   O4        1.0  0.29633  0.80358  0.30984  1.0000
  O   O5        1.0  0.23605  0.74859  0.30858  1.0000
  H   H4        1.0  0.30040  0.80408  0.24362  1.0000
  H   H5        1.0  0.23459  0.74370  0.24271  1.0000
  N   N2        1.0  0.35108  0.80165  0.36077  1.0000
  C   C8        1.0  0.14553  0.57312  0.35026  1.0000
  C   C9        1.0  0.17060  0.56495  0.35489  1.0000
  C   C10       1.0  0.20391  0.58898  0.35833  1.0000
  C   C11       1.0  0.21135  0.62174  0.35864  1.0000
  C   C12       1.0  0.18792  0.63156  0.35411  1.0000
  C   C13       1.0  0.15498  0.60664  0.34893  1.0000
  H   H6        1.0  0.23516  0.63939  0.35898  1.0000
  H   H7        1.0  0.13755  0.61317  0.34406  1.0000
  H   H8        1.0  0.16462  0.54109  0.35483  1.0000
  C   C14       1.0  0.23087  0.58386  0.36186  1.0000
  C   C15       1.0  0.19801  0.66514  0.35117  1.0000
  C   C16       1.0  0.11271  0.54856  0.34356  1.0000
  H   H9        1.0  0.10792  0.52637  0.32669  1.0000
  H   H10       1.0  0.18149  0.67240  0.33860  1.0000
  H   H11       1.0  0.25284  0.60456  0.35827  1.0000
  C   C17       1.0  0.41283  0.59653  0.35864  1.0000
  C   C18       1.0  0.40301  0.56327  0.35412  1.0000
  C   C19       1.0  0.42792  0.55525  0.34894  1.0000
  H   H12       1.0  0.39518  0.60269  0.35898  1.0000
  H   H13       1.0  0.42140  0.53129  0.34408  1.0000
  C   C20       1.0  0.36943  0.53979  0.35118  1.0000
  H   H14       1.0  0.36216  0.51600  0.33863  1.0000
  H   H15       1.0  0.43000  0.65519  0.35827  1.0000
  C   C21       1.0  0.42200  0.86397  0.35489  1.0000
  C   C22       1.0  0.41272  0.83066  0.35835  1.0000
  C   C23       1.0  0.43803  0.82322  0.35868  1.0000
  H   H16       1.0  0.43187  0.79940  0.35905  1.0000
  H   H17       1.0  0.40413  0.86995  0.35480  1.0000
  C   C24       1.0  0.38064  0.80370  0.36188  1.0000
  H   H18       1.0  0.37937  0.78173  0.35831  1.0000
  C   C25       1.0  0.05582  0.53295  0.35691  1.0000
  C   C26       1.0  0.03667  0.53589  0.42646  1.0000
  O   O6        1.0  0.05135  0.55715  0.49668  1.0000
  H   H19       1.0  0.05556  0.54513  0.54442  1.0000
  N   N3        1.0  0.08832  0.55273  0.35985  1.0000
  C   C27       1.0  0.31778  0.54808  0.36941  1.0000
  C   C28       1.0  0.31868  0.57615  0.40441  1.0000
  C   C29       1.0  0.29046  0.57885  0.40654  1.0000
  O   O7        1.0  0.29365  0.60567  0.44966  1.0000
  H   H20       1.0  0.28345  0.59846  0.51020  1.0000
  O   O8        1.0  0.34687  0.60134  0.43713  1.0000
  H   H21       1.0  0.34885  0.59590  0.50093  1.0000
  N   N4        1.0  0.34624  0.54808  0.36357  1.0000
  O   O9        1.0  0.42890  0.69489  0.44968  1.0000
  H   H22       1.0  0.43611  0.69190  0.51022  1.0000
  O   O10       1.0  0.43323  0.75245  0.43717  1.0000
  H   H23       1.0  0.43867  0.75986  0.50096  1.0000
  C   C30       1.0  0.25795  0.71679  0.36941  1.0000
  C   C31       1.0  0.28512  0.71589  0.40442  1.0000
  C   C32       1.0  0.31603  0.74410  0.40656  1.0000
  O   O11       1.0  0.33967  0.74092  0.44968  1.0000
  H   H24       1.0  0.34265  0.75112  0.51022  1.0000
  O   O12       1.0  0.28211  0.68769  0.43715  1.0000
  H   H25       1.0  0.27470  0.68572  0.50094  1.0000
  N   N5        1.0  0.22949  0.68833  0.36355  1.0000
  C   C33       1.0  0.53948  0.49760  0.35243  1.0000
  C   C34       1.0  0.54241  0.51968  0.28284  1.0000
  C   C35       1.0  0.52390  0.53560  0.28495  1.0000
  O   O13       1.0  0.52618  0.55505  0.21361  1.0000
  H   H26       1.0  0.54660  0.57562  0.22214  1.0000
  O   O14       1.0  0.56365  0.52624  0.21259  1.0000
  H   H27       1.0  0.55163  0.51003  0.16486  1.0000
  N   N6        1.0  0.55922  0.48484  0.34939  1.0000
  C   C36       1.0  0.53696  0.04879  0.35241  1.0000
  C   C37       1.0  0.51493  0.02964  0.28272  1.0000
  C   C38       1.0  0.49901  0.99521  0.28485  1.0000
  O   O15       1.0  0.47961  0.97804  0.21342  1.0000
  H   H28       1.0  0.45903  0.97788  0.22178  1.0000
  O   O16       1.0  0.50841  0.04432  0.21237  1.0000
  H   H29       1.0  0.52467  0.04851  0.16475  1.0000
  N   N7        1.0  0.54971  0.08130  0.34937  1.0000
  C   C39       1.0  0.48073  0.71342  0.37088  1.0000
  C   C40       1.0  0.50969  0.74133  0.34164  1.0000
  C   C41       1.0  0.51255  0.77253  0.34054  1.0000
  O   O17       1.0  0.53490  0.73824  0.30985  1.0000
  O   O18       1.0  0.54018  0.79851  0.30861  1.0000
  H   H30       1.0  0.53133  0.73417  0.24364  1.0000
  H   H31       1.0  0.53676  0.79998  0.24274  1.0000
  N   N8        1.0  0.47822  0.68348  0.36077  1.0000
  C   C42       1.0  0.56114  0.31422  0.36812  1.0000
  C   C43       1.0  0.53135  0.28588  0.34661  1.0000
  C   C44       1.0  0.52858  0.25473  0.34530  1.0000
  O   O19       1.0  0.50507  0.28845  0.32280  1.0000
  O   O20       1.0  0.49997  0.22825  0.32120  1.0000
  H   H32       1.0  0.50626  0.29160  0.25601  1.0000
  H   H33       1.0  0.50106  0.22570  0.25465  1.0000
  N   N9        1.0  0.56316  0.34398  0.35926  1.0000
  C   C45       1.0  0.46144  0.57932  0.35027  1.0000
  C   C46       1.0  0.46962  0.61256  0.35491  1.0000
  C   C47       1.0  0.44559  0.62184  0.35833  1.0000
  H   H34       1.0  0.49347  0.63044  0.35483  1.0000
  C   C48       1.0  0.45071  0.65392  0.36186  1.0000
  C   C49       1.0  0.48600  0.57106  0.34358  1.0000
  H   H35       1.0  0.50819  0.58846  0.32669  1.0000
  C   C50       1.0  0.45525  0.88903  0.35024  1.0000
  C   C51       1.0  0.47129  0.84664  0.35413  1.0000
  C   C52       1.0  0.47931  0.87958  0.34893  1.0000
  H   H36       1.0  0.50327  0.89701  0.34405  1.0000
  C   C53       1.0  0.49477  0.83655  0.35120  1.0000
  C   C54       1.0  0.46351  0.92186  0.34350  1.0000
  H   H37       1.0  0.44611  0.92665  0.32654  1.0000
  H   H38       1.0  0.51857  0.85307  0.33862  1.0000
  C   C55       1.0  0.57974  0.44810  0.35966  1.0000
  C   C56       1.0  0.57164  0.41484  0.36002  1.0000
  C   C57       1.0  0.59562  0.40557  0.35338  1.0000
  C   C58       1.0  0.62832  0.43090  0.34915  1.0000
  C   C59       1.0  0.63812  0.46415  0.35240  1.0000
  C   C60       1.0  0.61321  0.47221  0.35551  1.0000
  H   H39       1.0  0.64594  0.42481  0.34239  1.0000
  H   H40       1.0  0.61973  0.49621  0.35751  1.0000
  H   H41       1.0  0.54783  0.39695  0.36385  1.0000
  C   C61       1.0  0.59057  0.37350  0.35309  1.0000
  C   C62       1.0  0.67168  0.48771  0.35133  1.0000
  C   C63       1.0  0.55520  0.45640  0.36675  1.0000
  H   H42       1.0  0.53311  0.43909  0.38482  1.0000
  H   H43       1.0  0.61101  0.37219  0.34177  1.0000
  C   C64       1.0  0.58644  0.13854  0.35969  1.0000
  C   C65       1.0  0.61970  0.16370  0.35996  1.0000
  C   C66       1.0  0.62897  0.19695  0.35320  1.0000
  C   C67       1.0  0.60365  0.20433  0.34904  1.0000
  C   C68       1.0  0.57039  0.18087  0.35240  1.0000
  C   C69       1.0  0.56233  0.14790  0.35555  1.0000
  H   H44       1.0  0.60973  0.22803  0.34222  1.0000
  H   H45       1.0  0.53833  0.13042  0.35761  1.0000
  H   H46       1.0  0.63760  0.15779  0.36375  1.0000
  C   C70       1.0  0.66104  0.22397  0.35285  1.0000
  C   C71       1.0  0.54684  0.19088  0.35138  1.0000
  C   C72       1.0  0.57815  0.10571  0.36680  1.0000
  H   H47       1.0  0.59545  0.10093  0.38494  1.0000
  H   H48       1.0  0.52275  0.17407  0.34565  1.0000
  H   H49       1.0  0.66235  0.24572  0.34155  1.0000
  C   C73       1.0  0.50161  0.52978  0.35693  1.0000
  C   C74       1.0  0.49867  0.50770  0.42651  1.0000
  C   C75       1.0  0.51718  0.49178  0.42440  1.0000
  O   O21       1.0  0.47743  0.50114  0.49675  1.0000
  O   O22       1.0  0.51491  0.47236  0.49583  1.0000
  H   H50       1.0  0.48946  0.51736  0.54446  1.0000
  H   H51       1.0  0.49447  0.45180  0.48741  1.0000
  N   N10       1.0  0.48183  0.54250  0.35987  1.0000
  C   C76       1.0  0.50478  0.97874  0.35694  1.0000
  C   C77       1.0  0.52681  0.99789  0.42662  1.0000
  C   C78       1.0  0.54272  0.03231  0.42450  1.0000
  O   O23       1.0  0.53331  0.98321  0.49697  1.0000
  O   O24       1.0  0.56209  0.04946  0.49601  1.0000
  H   H52       1.0  0.51705  0.97900  0.54456  1.0000
  H   H53       1.0  0.58266  0.04959  0.48776  1.0000
  N   N11       1.0  0.49206  0.94624  0.35989  1.0000
  C   C79       1.0  0.48649  0.77661  0.36943  1.0000
  C   C80       1.0  0.45841  0.74944  0.40444  1.0000
  C   C81       1.0  0.45572  0.71853  0.40656  1.0000
  N   N12       1.0  0.48648  0.80506  0.36359  1.0000
  C   C82       1.0  0.55556  0.25110  0.36653  1.0000
  C   C83       1.0  0.58466  0.27879  0.39411  1.0000
  C   C84       1.0  0.58732  0.30969  0.39619  1.0000
  O   O25       1.0  0.61541  0.33397  0.43233  1.0000
  H   H54       1.0  0.61024  0.33768  0.49485  1.0000
  O   O26       1.0  0.61083  0.27627  0.41991  1.0000
  H   H55       1.0  0.60753  0.26986  0.48482  1.0000
  N   N13       1.0  0.55529  0.22251  0.36112  1.0000
  C   C85       1.0  0.98577  0.49507  0.35241  1.0000
  C   C86       1.0  0.00492  0.49214  0.28284  1.0000
  O   O27       1.0  0.99024  0.47088  0.21262  1.0000
  H   H56       1.0  0.98605  0.48289  0.16486  1.0000
  N   N14       1.0  0.95326  0.47532  0.34938  1.0000
  C   C87       1.0  0.78073  0.47342  0.36811  1.0000
  C   C88       1.0  0.78217  0.50321  0.34652  1.0000
  C   C89       1.0  0.75379  0.50597  0.34521  1.0000
  O   O28       1.0  0.81101  0.52947  0.32263  1.0000
  O   O29       1.0  0.75591  0.53457  0.32103  1.0000
  H   H57       1.0  0.81296  0.52826  0.25585  1.0000
  H   H58       1.0  0.75226  0.53346  0.25448  1.0000
  N   N15       1.0  0.80846  0.47140  0.35925  1.0000
  C   C90       1.0  0.72032  0.25382  0.36800  1.0000
  C   C91       1.0  0.74867  0.25238  0.34652  1.0000
  C   C92       1.0  0.77982  0.28076  0.34524  1.0000
  O   O30       1.0  0.74610  0.22354  0.32271  1.0000
  O   O31       1.0  0.80629  0.27864  0.32117  1.0000
  H   H59       1.0  0.74296  0.22158  0.25592  1.0000
  H   H60       1.0  0.80886  0.28228  0.25462  1.0000
  N   N16       1.0  0.69057  0.22609  0.35911  1.0000
  C   C93       1.0  0.89602  0.45482  0.35964  1.0000
  C   C94       1.0  0.87086  0.46292  0.36001  1.0000
  C   C95       1.0  0.83760  0.43894  0.35340  1.0000
  C   C96       1.0  0.83022  0.40624  0.34918  1.0000
  C   C97       1.0  0.85367  0.39643  0.35242  1.0000
  C   C98       1.0  0.88665  0.42135  0.35550  1.0000
  H   H61       1.0  0.80651  0.38862  0.34245  1.0000
  H   H62       1.0  0.90412  0.41482  0.35750  1.0000
  H   H63       1.0  0.87677  0.48673  0.36384  1.0000
  C   C99       1.0  0.81059  0.44400  0.35316  1.0000
  C   C100      1.0  0.84366  0.36287  0.35139  1.0000
  C   C101      1.0  0.92885  0.47936  0.36671  1.0000
  H   H64       1.0  0.93363  0.50145  0.38474  1.0000
  H   H65       1.0  0.86046  0.35559  0.34554  1.0000
  H   H66       1.0  0.78884  0.42356  0.34182  1.0000
  H   H67       1.0  0.67895  0.51179  0.34553  1.0000
  C   C102      1.0  0.00225  0.51738  0.42436  1.0000
  O   O32       1.0  0.98510  0.51967  0.49576  1.0000
  H   H68       1.0  0.98497  0.54010  0.48732  1.0000
  C   C103      1.0  0.72319  0.47900  0.36651  1.0000
  C   C104      1.0  0.72179  0.44991  0.39416  1.0000
  C   C105      1.0  0.75002  0.44725  0.39625  1.0000
  O   O33       1.0  0.74622  0.41917  0.43245  1.0000
  H   H69       1.0  0.75511  0.42435  0.49495  1.0000
  O   O34       1.0  0.69310  0.42374  0.42002  1.0000
  H   H70       1.0  0.69000  0.42706  0.48492  1.0000
  N   N17       1.0  0.69486  0.47925  0.36110  1.0000
  C   C106      1.0  0.78343  0.31137  0.36648  1.0000
  C   C107      1.0  0.75574  0.31277  0.39403  1.0000
  C   C108      1.0  0.72484  0.28454  0.39607  1.0000
  O   O35       1.0  0.70055  0.28834  0.43217  1.0000
  H   H71       1.0  0.69684  0.27946  0.49469  1.0000
  O   O36       1.0  0.75825  0.34146  0.41984  1.0000
  H   H72       1.0  0.76465  0.34456  0.48475  1.0000
  N   N18       1.0  0.81203  0.33970  0.36110  1.0000
