data_image0
_chemical_formula_structural       CNC2NC4NC18H14C2NC16H12C3NC2NC5NC4NC18H14CNC16H12C11H11CNCNC4NC16H13N24C7NC12H12C2NC3NC3NC18H14C12H12C3NC3NC3NC18H14C3NC3NC2NC5NC20H15C8NC14H13C4H2C4H2C4H2C4H2C4H2C4H2C4H2C4H2C4H2C4H2C4H2C4H2
_chemical_formula_sum              "C312 N48 H180"
_cell_length_a       56.8731
_cell_length_b       56.8731
_cell_length_c       14.9902
_cell_angle_alpha    90.0018
_cell_angle_beta     89.9652
_cell_angle_gamma    120

_space_group_name_H-M_alt    "P 1"
_space_group_IT_number       1

loop_
  _space_group_symop_operation_xyz
  'x, y, z'

loop_
  _atom_site_type_symbol
  _atom_site_label
  _atom_site_symmetry_multiplicity
  _atom_site_fract_x
  _atom_site_fract_y
  _atom_site_fract_z
  _atom_site_occupancy
  C   C1        1.0  0.28768  0.53085  0.32917  1.0000
  N   N1        1.0  0.27850  0.48858  0.32577  1.0000
  C   C2        1.0  0.30597  0.50375  0.32653  1.0000
  C   C3        1.0  0.32569  0.49533  0.32638  1.0000
  N   N2        1.0  0.29500  0.44529  0.32491  1.0000
  C   C4        1.0  0.29681  0.42250  0.32545  1.0000
  C   C5        1.0  0.32455  0.43116  0.32616  1.0000
  C   C6        1.0  0.33866  0.45917  0.32611  1.0000
  C   C7        1.0  0.27522  0.39515  0.32635  1.0000
  N   N3        1.0  0.23502  0.40226  0.32610  1.0000
  C   C8        1.0  0.20755  0.38710  0.32840  1.0000
  C   C9        1.0  0.22588  0.36000  0.32880  1.0000
  C   C10       1.0  0.21677  0.46846  0.32926  1.0000
  C   C11       1.0  0.23835  0.49577  0.32951  1.0000
  C   C12       1.0  0.23139  0.51656  0.33381  1.0000
  C   C13       1.0  0.22787  0.52800  0.25501  1.0000
  C   C14       1.0  0.22348  0.55023  0.25950  1.0000
  C   C15       1.0  0.22231  0.56152  0.34255  1.0000
  C   C16       1.0  0.14481  0.36445  0.25507  1.0000
  C   C17       1.0  0.11665  0.34637  0.25937  1.0000
  C   C18       1.0  0.28255  0.37462  0.33035  1.0000
  C   C19       1.0  0.30300  0.33789  0.34028  1.0000
  C   C20       1.0  0.29898  0.34718  0.25698  1.0000
  C   C21       1.0  0.28887  0.36523  0.25187  1.0000
  C   C22       1.0  0.35350  0.51595  0.33057  1.0000
  C   C23       1.0  0.36798  0.52877  0.25216  1.0000
  C   C24       1.0  0.39455  0.55103  0.25743  1.0000
  C   C25       1.0  0.40750  0.56109  0.34082  1.0000
  H   H1        1.0  0.40421  0.56009  0.19915  1.0000
  H   H2        1.0  0.35899  0.52253  0.19096  1.0000
  H   H3        1.0  0.28624  0.54805  0.33101  1.0000
  H   H4        1.0  0.26869  0.46909  0.32458  1.0000
  H   H5        1.0  0.24483  0.42174  0.32487  1.0000
  H   H6        1.0  0.35935  0.47093  0.32704  1.0000
  H   H7        1.0  0.33339  0.41932  0.32718  1.0000
  H   H8        1.0  0.28696  0.37211  0.19072  1.0000
  H   H9        1.0  0.30379  0.34121  0.19864  1.0000
  H   H10       1.0  0.22740  0.34284  0.32990  1.0000
  H   H11       1.0  0.15401  0.37032  0.19401  1.0000
  H   H12       1.0  0.10623  0.33931  0.20074  1.0000
  H   H13       1.0  0.22141  0.55827  0.20095  1.0000
  H   H14       1.0  0.22921  0.52073  0.19389  1.0000
  C   C26       1.0  0.53733  0.75701  0.32898  1.0000
  C   C27       1.0  0.56443  0.80241  0.32654  1.0000
  N   N4        1.0  0.62289  0.84989  0.32531  1.0000
  C   C28       1.0  0.64568  0.87449  0.32601  1.0000
  C   C29       1.0  0.63702  0.89358  0.32685  1.0000
  C   C30       1.0  0.60901  0.87968  0.32675  1.0000
  C   C31       1.0  0.67303  0.88026  0.32690  1.0000
  C   C32       1.0  0.68108  0.82064  0.32872  1.0000
  C   C33       1.0  0.70818  0.86607  0.32902  1.0000
  C   C34       1.0  0.59972  0.74850  0.32975  1.0000
  C   C35       1.0  0.54020  0.70004  0.25540  1.0000
  C   C36       1.0  0.51798  0.67344  0.25990  1.0000
  C   C37       1.0  0.70373  0.78051  0.25543  1.0000
  C   C38       1.0  0.72181  0.77044  0.25973  1.0000
  C   C39       1.0  0.69356  0.90812  0.33080  1.0000
  C   C40       1.0  0.72100  0.95196  0.25726  1.0000
  C   C41       1.0  0.70294  0.92381  0.25226  1.0000
  C   C42       1.0  0.53946  0.83941  0.25230  1.0000
  C   C43       1.0  0.51720  0.84373  0.25749  1.0000
  H   H15       1.0  0.50820  0.84438  0.19917  1.0000
  H   H16       1.0  0.54577  0.83672  0.19111  1.0000
  H   H17       1.0  0.52012  0.73837  0.33099  1.0000
  H   H18       1.0  0.59725  0.88860  0.32767  1.0000
  H   H19       1.0  0.64886  0.91425  0.32798  1.0000
  H   H20       1.0  0.69604  0.91499  0.19115  1.0000
  H   H21       1.0  0.72694  0.96272  0.19888  1.0000
  H   H22       1.0  0.72534  0.88475  0.33018  1.0000
  H   H23       1.0  0.69788  0.78384  0.19435  1.0000
  H   H24       1.0  0.72887  0.76705  0.20111  1.0000
  H   H25       1.0  0.50997  0.66332  0.20136  1.0000
  H   H26       1.0  0.54750  0.70865  0.19427  1.0000
  C   C44       1.0  0.28687  0.75633  0.32790  1.0000
  C   C45       1.0  0.31118  0.78052  0.32868  1.0000
  C   C46       1.0  0.30552  0.80177  0.32759  1.0000
  N   N5        1.0  0.27808  0.78969  0.32527  1.0000
  C   C47       1.0  0.26578  0.76222  0.32598  1.0000
  C   C48       1.0  0.23764  0.74250  0.32579  1.0000
  N   N6        1.0  0.21830  0.77319  0.32438  1.0000
  C   C49       1.0  0.19369  0.77137  0.32490  1.0000
  C   C50       1.0  0.17461  0.74364  0.32559  1.0000
  C   C51       1.0  0.18851  0.72952  0.32555  1.0000
  C   C52       1.0  0.18793  0.79296  0.32589  1.0000
  C   C53       1.0  0.20777  0.82105  0.32650  1.0000
  N   N7        1.0  0.23523  0.83316  0.32571  1.0000
  C   C54       1.0  0.24754  0.86063  0.32812  1.0000
  C   C55       1.0  0.22645  0.86652  0.32964  1.0000
  C   C56       1.0  0.20211  0.84230  0.32858  1.0000
  C   C57       1.0  0.27569  0.88030  0.32952  1.0000
  N   N8        1.0  0.29507  0.84959  0.32798  1.0000
  C   C58       1.0  0.31969  0.85142  0.32907  1.0000
  C   C59       1.0  0.32542  0.82985  0.32924  1.0000
  C   C60       1.0  0.35316  0.83679  0.33368  1.0000
  C   C61       1.0  0.36818  0.84036  0.25494  1.0000
  C   C62       1.0  0.39479  0.84475  0.25954  1.0000
  C   C63       1.0  0.40720  0.84588  0.34265  1.0000
  C   C64       1.0  0.28323  0.90820  0.33376  1.0000
  C   C65       1.0  0.28767  0.92342  0.25491  1.0000
  C   C66       1.0  0.29773  0.95158  0.25928  1.0000
  C   C67       1.0  0.30349  0.96531  0.34227  1.0000
  C   C68       1.0  0.16007  0.78563  0.32993  1.0000
  C   C69       1.0  0.10288  0.76516  0.33991  1.0000
  C   C70       1.0  0.11621  0.76923  0.25659  1.0000
  C   C71       1.0  0.14437  0.77934  0.25147  1.0000
  C   C72       1.0  0.23046  0.71469  0.33002  1.0000
  C   C73       1.0  0.22882  0.70023  0.25162  1.0000
  C   C74       1.0  0.22452  0.67366  0.25692  1.0000
  C   C75       1.0  0.22161  0.66070  0.34032  1.0000
  H   H27       1.0  0.22391  0.66400  0.19864  1.0000
  H   H28       1.0  0.23159  0.70924  0.19042  1.0000
  H   H29       1.0  0.32982  0.78195  0.33073  1.0000
  H   H30       1.0  0.26841  0.79951  0.32418  1.0000
  H   H31       1.0  0.24491  0.82336  0.32419  1.0000
  H   H32       1.0  0.17959  0.70884  0.32641  1.0000
  H   H33       1.0  0.15394  0.73480  0.32660  1.0000
  H   H34       1.0  0.15319  0.78128  0.19031  1.0000
  H   H35       1.0  0.10546  0.76443  0.19826  1.0000
  H   H36       1.0  0.18343  0.84078  0.32979  1.0000
  H   H37       1.0  0.28436  0.91425  0.19381  1.0000
  H   H38       1.0  0.30113  0.96203  0.20067  1.0000
  H   H39       1.0  0.40495  0.84686  0.20103  1.0000
  H   H40       1.0  0.35961  0.83905  0.19377  1.0000
  C   C76       1.0  0.78481  0.54184  0.32715  1.0000
  N   N9        1.0  0.79579  0.60029  0.32560  1.0000
  C   C77       1.0  0.79398  0.62308  0.32609  1.0000
  C   C78       1.0  0.76624  0.61444  0.32673  1.0000
  C   C79       1.0  0.75212  0.58642  0.32677  1.0000
  C   C80       1.0  0.81557  0.65044  0.32705  1.0000
  C   C81       1.0  0.88323  0.65848  0.32892  1.0000
  C   C82       1.0  0.86491  0.68558  0.32954  1.0000
  C   C83       1.0  0.87401  0.57711  0.32976  1.0000
  C   C84       1.0  0.86294  0.51758  0.25556  1.0000
  C   C85       1.0  0.86731  0.49535  0.26006  1.0000
  C   C86       1.0  0.94598  0.68115  0.25532  1.0000
  C   C87       1.0  0.97415  0.69922  0.25952  1.0000
  C   C88       1.0  0.80824  0.67097  0.33094  1.0000
  C   C89       1.0  0.79186  0.69842  0.25742  1.0000
  C   C90       1.0  0.80200  0.68039  0.25240  1.0000
  C   C91       1.0  0.72284  0.51682  0.25281  1.0000
  C   C92       1.0  0.69627  0.49456  0.25808  1.0000
  H   H41       1.0  0.68663  0.48551  0.19979  1.0000
  H   H42       1.0  0.73187  0.52307  0.19161  1.0000
  H   H43       1.0  0.80454  0.49753  0.33176  1.0000
  H   H44       1.0  0.73144  0.57466  0.32758  1.0000
  H   H45       1.0  0.75740  0.62627  0.32774  1.0000
  H   H46       1.0  0.80392  0.67348  0.19129  1.0000
  H   H47       1.0  0.78708  0.70438  0.19903  1.0000
  H   H48       1.0  0.86339  0.70274  0.33080  1.0000
  H   H49       1.0  0.93679  0.67527  0.19428  1.0000
  H   H50       1.0  0.98457  0.70628  0.20085  1.0000
  H   H51       1.0  0.86941  0.48733  0.20152  1.0000
  H   H52       1.0  0.86160  0.52486  0.19442  1.0000
  C   C93       1.0  0.44511  0.17109  0.32629  1.0000
  C   C94       1.0  0.45376  0.15200  0.32696  1.0000
  C   C95       1.0  0.48178  0.16590  0.32698  1.0000
  C   C96       1.0  0.55062  0.34554  0.25609  1.0000
  C   C97       1.0  0.57284  0.37215  0.26058  1.0000
  C   C98       1.0  0.38709  0.26506  0.25576  1.0000
  C   C99       1.0  0.36901  0.27514  0.25993  1.0000
  C   C100      1.0  0.36981  0.09365  0.25728  1.0000
  C   C101      1.0  0.38786  0.12181  0.25236  1.0000
  C   C102      1.0  0.55137  0.20620  0.25301  1.0000
  C   C103      1.0  0.57363  0.20189  0.25820  1.0000
  H   H53       1.0  0.58267  0.20130  0.19988  1.0000
  H   H54       1.0  0.54511  0.20896  0.19184  1.0000
  H   H55       1.0  0.57066  0.30721  0.33210  1.0000
  H   H56       1.0  0.49353  0.15698  0.32788  1.0000
  H   H57       1.0  0.39478  0.13066  0.19127  1.0000
  H   H58       1.0  0.36387  0.08292  0.19887  1.0000
  H   H59       1.0  0.36544  0.16083  0.33052  1.0000
  H   H60       1.0  0.39299  0.26174  0.19472  1.0000
  H   H61       1.0  0.36198  0.27852  0.20126  1.0000
  H   H62       1.0  0.58089  0.38227  0.20203  1.0000
  H   H63       1.0  0.54335  0.33694  0.19496  1.0000
  C   C104      1.0  0.77961  0.26507  0.32904  1.0000
  N   N10       1.0  0.81271  0.25590  0.32581  1.0000
  C   C105      1.0  0.82501  0.28336  0.32650  1.0000
  N   N11       1.0  0.87249  0.27240  0.32511  1.0000
  C   C106      1.0  0.89709  0.27421  0.32574  1.0000
  C   C107      1.0  0.91618  0.30194  0.32657  1.0000
  C   C108      1.0  0.90228  0.31606  0.32654  1.0000
  C   C109      1.0  0.90286  0.25262  0.32659  1.0000
  N   N12       1.0  0.85555  0.21242  0.32628  1.0000
  C   C110      1.0  0.84324  0.18495  0.32852  1.0000
  C   C111      1.0  0.88868  0.20328  0.32878  1.0000
  C   C112      1.0  0.77110  0.19417  0.32970  1.0000
  C   C113      1.0  0.76537  0.21574  0.32986  1.0000
  C   C114      1.0  0.72263  0.20524  0.25558  1.0000
  C   C115      1.0  0.69602  0.20086  0.26018  1.0000
  C   C116      1.0  0.68359  0.19971  0.34329  1.0000
  C   C117      1.0  0.80314  0.12219  0.25526  1.0000
  C   C118      1.0  0.79307  0.09403  0.25956  1.0000
  C   C119      1.0  0.93072  0.25995  0.33050  1.0000
  C   C120      1.0  0.98790  0.28040  0.34024  1.0000
  C   C121      1.0  0.97458  0.27637  0.25698  1.0000
  C   C122      1.0  0.94642  0.26627  0.25197  1.0000
  C   C123      1.0  0.86033  0.33090  0.33074  1.0000
  C   C124      1.0  0.86200  0.34537  0.25233  1.0000
  C   C125      1.0  0.86632  0.37194  0.25760  1.0000
  H   H64       1.0  0.86697  0.38161  0.19931  1.0000
  H   H65       1.0  0.85931  0.33639  0.19112  1.0000
  H   H66       1.0  0.76097  0.26363  0.33111  1.0000
  H   H67       1.0  0.82238  0.24608  0.32506  1.0000
  H   H68       1.0  0.91120  0.33675  0.32747  1.0000
  H   H69       1.0  0.93685  0.31079  0.32764  1.0000
  H   H70       1.0  0.93761  0.26437  0.19086  1.0000
  H   H71       1.0  0.98534  0.28119  0.19860  1.0000
  H   H72       1.0  0.90736  0.20480  0.32994  1.0000
  H   H73       1.0  0.80648  0.13138  0.19418  1.0000
  H   H74       1.0  0.78970  0.08360  0.20094  1.0000
  H   H75       1.0  0.68589  0.19876  0.20167  1.0000
  H   H76       1.0  0.73123  0.20656  0.19441  1.0000
  N   N13       1.0  0.23088  0.60399  0.27948  1.0000
  N   N14       1.0  0.23069  0.62688  0.27909  1.0000
  N   N15       1.0  0.46420  0.62707  0.27991  1.0000
  N   N16       1.0  0.44132  0.60400  0.27955  1.0000
  N   N17       1.0  0.44115  0.83735  0.27970  1.0000
  N   N18       1.0  0.46422  0.83754  0.27942  1.0000
  N   N19       1.0  0.85993  0.44160  0.28008  1.0000
  N   N20       1.0  0.86012  0.41871  0.27972  1.0000
  N   N21       1.0  0.62660  0.41852  0.28060  1.0000
  N   N22       1.0  0.64949  0.44159  0.28022  1.0000
  N   N23       1.0  0.64967  0.20827  0.28039  1.0000
  N   N24       1.0  0.62659  0.20808  0.28012  1.0000
  N   N25       1.0  0.05877  0.32367  0.27908  1.0000
  N   N26       1.0  0.03223  0.31026  0.27874  1.0000
  N   N27       1.0  0.74452  0.73527  0.27950  1.0000
  N   N28       1.0  0.75792  0.72214  0.27916  1.0000
  N   N29       1.0  0.33291  0.00944  0.27914  1.0000
  N   N30       1.0  0.34605  0.03598  0.27888  1.0000
  N   N31       1.0  0.03202  0.72191  0.27899  1.0000
  N   N32       1.0  0.05856  0.73531  0.27855  1.0000
  N   N33       1.0  0.34629  0.31030  0.27942  1.0000
  N   N34       1.0  0.33289  0.32344  0.27897  1.0000
  N   N35       1.0  0.75790  0.03616  0.27932  1.0000
  N   N36       1.0  0.74476  0.00962  0.27900  1.0000
  C   C126      1.0  0.31186  0.53073  0.32840  1.0000
  C   C127      1.0  0.26642  0.50394  0.32800  1.0000
  C   C128      1.0  0.31972  0.46795  0.32555  1.0000
  C   C129      1.0  0.24713  0.38690  0.32687  1.0000
  C   C130      1.0  0.20166  0.36012  0.32976  1.0000
  C   C131      1.0  0.18789  0.39559  0.32982  1.0000
  C   C132      1.0  0.19390  0.42302  0.32941  1.0000
  N   N37       1.0  0.21860  0.44568  0.32823  1.0000
  C   C133      1.0  0.18910  0.45991  0.33101  1.0000
  C   C134      1.0  0.17499  0.43190  0.33098  1.0000
  C   C135      1.0  0.22547  0.54953  0.42119  1.0000
  C   C136      1.0  0.23004  0.52743  0.41701  1.0000
  C   C137      1.0  0.15998  0.37522  0.33397  1.0000
  C   C138      1.0  0.10286  0.33837  0.34231  1.0000
  C   C139      1.0  0.11845  0.34902  0.42104  1.0000
  C   C140      1.0  0.14658  0.36722  0.41706  1.0000
  C   C141      1.0  0.28604  0.36525  0.41370  1.0000
  C   C142      1.0  0.29606  0.34714  0.41844  1.0000
  C   C143      1.0  0.36622  0.52547  0.41401  1.0000
  C   C144      1.0  0.39282  0.54766  0.41891  1.0000
  H   H77       1.0  0.40071  0.55471  0.48084  1.0000
  H   H78       1.0  0.35585  0.51693  0.47186  1.0000
  H   H79       1.0  0.33058  0.54784  0.32964  1.0000
  H   H80       1.0  0.28231  0.37237  0.47162  1.0000
  H   H81       1.0  0.29958  0.34201  0.48033  1.0000
  H   H82       1.0  0.18291  0.34306  0.33187  1.0000
  H   H83       1.0  0.18033  0.47182  0.33244  1.0000
  H   H84       1.0  0.15430  0.42020  0.33239  1.0000
  H   H85       1.0  0.15705  0.37529  0.47506  1.0000
  H   H86       1.0  0.10933  0.34473  0.48234  1.0000
  H   H87       1.0  0.23318  0.51986  0.47494  1.0000
  H   H88       1.0  0.22587  0.55759  0.48254  1.0000
  C   C145      1.0  0.53745  0.78131  0.32818  1.0000
  C   C146      1.0  0.56424  0.76267  0.32808  1.0000
  N   N38       1.0  0.57961  0.79011  0.32587  1.0000
  C   C147      1.0  0.57285  0.83055  0.32661  1.0000
  C   C148      1.0  0.60023  0.85195  0.32596  1.0000
  C   C149      1.0  0.68128  0.86041  0.32727  1.0000
  N   N39       1.0  0.66592  0.83295  0.32654  1.0000
  C   C150      1.0  0.70806  0.84173  0.33000  1.0000
  C   C151      1.0  0.67259  0.79249  0.33015  1.0000
  C   C152      1.0  0.64516  0.77106  0.32988  1.0000
  N   N40       1.0  0.62250  0.77311  0.32862  1.0000
  C   C153      1.0  0.60827  0.72937  0.33165  1.0000
  C   C154      1.0  0.63629  0.74329  0.33159  1.0000
  C   C155      1.0  0.57241  0.74277  0.32985  1.0000
  C   C156      1.0  0.55162  0.71503  0.33419  1.0000
  C   C157      1.0  0.50666  0.66098  0.34297  1.0000
  C   C158      1.0  0.51860  0.67615  0.42159  1.0000
  C   C159      1.0  0.54073  0.70281  0.41740  1.0000
  C   C160      1.0  0.69296  0.78495  0.33431  1.0000
  C   C161      1.0  0.72980  0.76468  0.34269  1.0000
  C   C162      1.0  0.71917  0.76967  0.42142  1.0000
  C   C163      1.0  0.70095  0.77957  0.41741  1.0000
  C   C164      1.0  0.70294  0.92101  0.41410  1.0000
  C   C165      1.0  0.72104  0.94914  0.41872  1.0000
  C   C166      1.0  0.73029  0.96530  0.34051  1.0000
  C   C167      1.0  0.55222  0.83773  0.33075  1.0000
  C   C168      1.0  0.54264  0.84089  0.41417  1.0000
  C   C169      1.0  0.50707  0.84658  0.34086  1.0000
  C   C170      1.0  0.52044  0.84530  0.41899  1.0000
  H   H89       1.0  0.51335  0.84613  0.48090  1.0000
  H   H90       1.0  0.55113  0.83905  0.47204  1.0000
  H   H91       1.0  0.52034  0.78293  0.32954  1.0000
  H   H92       1.0  0.59909  0.79978  0.32517  1.0000
  H   H93       1.0  0.64644  0.82328  0.32541  1.0000
  H   H94       1.0  0.69585  0.91016  0.47206  1.0000
  H   H95       1.0  0.72623  0.95781  0.48058  1.0000
  H   H96       1.0  0.72512  0.84004  0.33201  1.0000
  H   H97       1.0  0.59636  0.70871  0.33306  1.0000
  H   H98       1.0  0.64798  0.73430  0.33298  1.0000
  H   H99       1.0  0.69288  0.78200  0.47541  1.0000
  H   H100      1.0  0.72342  0.76482  0.48272  1.0000
  H   H101      1.0  0.54826  0.71353  0.47531  1.0000
  H   H102      1.0  0.51053  0.66849  0.48294  1.0000
  C   C171      1.0  0.21624  0.74847  0.32498  1.0000
  C   C172      1.0  0.29712  0.87429  0.32918  1.0000
  C   C173      1.0  0.33881  0.87909  0.33086  1.0000
  C   C174      1.0  0.32490  0.89320  0.33079  1.0000
  C   C175      1.0  0.39198  0.84264  0.42121  1.0000
  C   C176      1.0  0.36533  0.83812  0.41693  1.0000
  C   C177      1.0  0.29851  0.94968  0.42095  1.0000
  C   C178      1.0  0.28857  0.92155  0.41689  1.0000
  C   C179      1.0  0.14718  0.78207  0.41329  1.0000
  C   C180      1.0  0.11904  0.77208  0.41805  1.0000
  C   C181      1.0  0.22724  0.70195  0.41348  1.0000
  C   C182      1.0  0.22285  0.67536  0.41840  1.0000
  H   H103      1.0  0.22194  0.66744  0.48034  1.0000
  H   H104      1.0  0.22903  0.71230  0.47132  1.0000
  H   H105      1.0  0.28526  0.73761  0.32918  1.0000
  H   H106      1.0  0.15802  0.78582  0.47121  1.0000
  H   H107      1.0  0.11038  0.76853  0.47995  1.0000
  H   H108      1.0  0.22814  0.88527  0.33181  1.0000
  H   H109      1.0  0.35948  0.88786  0.33221  1.0000
  H   H110      1.0  0.33389  0.91388  0.33212  1.0000
  H   H111      1.0  0.28617  0.91105  0.47486  1.0000
  H   H112      1.0  0.30333  0.95877  0.48226  1.0000
  H   H113      1.0  0.35457  0.83495  0.47481  1.0000
  H   H114      1.0  0.39961  0.84226  0.48260  1.0000
  C   C183      1.0  0.77891  0.51485  0.32908  1.0000
  C   C184      1.0  0.80310  0.51473  0.32980  1.0000
  C   C185      1.0  0.82436  0.54164  0.32858  1.0000
  N   N41       1.0  0.81228  0.55701  0.32633  1.0000
  C   C186      1.0  0.76509  0.55026  0.32704  1.0000
  C   C187      1.0  0.77107  0.57764  0.32621  1.0000
  C   C188      1.0  0.84366  0.65868  0.32752  1.0000
  N   N42       1.0  0.85577  0.64332  0.32666  1.0000
  C   C189      1.0  0.88913  0.68546  0.33047  1.0000
  C   C190      1.0  0.90289  0.64999  0.33017  1.0000
  C   C191      1.0  0.89689  0.62256  0.32980  1.0000
  N   N43       1.0  0.87218  0.59990  0.32873  1.0000
  C   C192      1.0  0.90168  0.58566  0.33139  1.0000
  C   C193      1.0  0.91579  0.61368  0.33126  1.0000
  C   C194      1.0  0.85243  0.54981  0.33001  1.0000
  C   C195      1.0  0.85938  0.52902  0.33435  1.0000
  C   C196      1.0  0.86846  0.48406  0.34313  1.0000
  C   C197      1.0  0.86524  0.49602  0.42175  1.0000
  C   C198      1.0  0.86072  0.51815  0.41755  1.0000
  C   C199      1.0  0.93080  0.67036  0.33426  1.0000
  C   C200      1.0  0.98792  0.70721  0.34241  1.0000
  C   C201      1.0  0.97233  0.69654  0.42119  1.0000
  C   C202      1.0  0.94420  0.67835  0.41731  1.0000
  C   C203      1.0  0.80469  0.68032  0.41425  1.0000
  C   C204      1.0  0.79467  0.69844  0.41888  1.0000
  C   C205      1.0  0.78779  0.70770  0.34067  1.0000
  C   C206      1.0  0.73728  0.52963  0.33122  1.0000
  C   C207      1.0  0.72452  0.52012  0.41467  1.0000
  C   C208      1.0  0.68328  0.48449  0.34146  1.0000
  C   C209      1.0  0.69793  0.49790  0.41955  1.0000
  H   H115      1.0  0.68999  0.49087  0.48148  1.0000
  H   H116      1.0  0.73486  0.52865  0.47252  1.0000
  H   H117      1.0  0.76019  0.49775  0.33046  1.0000
  H   H118      1.0  0.82210  0.57649  0.32509  1.0000
  H   H119      1.0  0.84595  0.62384  0.32516  1.0000
  H   H120      1.0  0.80836  0.67318  0.47221  1.0000
  H   H121      1.0  0.79108  0.70355  0.48074  1.0000
  H   H122      1.0  0.90788  0.70252  0.33257  1.0000
  H   H123      1.0  0.91045  0.57376  0.33269  1.0000
  H   H124      1.0  0.93648  0.62537  0.33255  1.0000
  H   H125      1.0  0.93372  0.67027  0.47534  1.0000
  H   H126      1.0  0.98144  0.70083  0.48245  1.0000
  H   H127      1.0  0.85756  0.52572  0.47547  1.0000
  H   H128      1.0  0.86487  0.48799  0.48312  1.0000
  C   C210      1.0  0.55333  0.26426  0.32945  1.0000
  C   C211      1.0  0.55345  0.28857  0.33025  1.0000
  C   C212      1.0  0.52654  0.28291  0.32906  1.0000
  N   N44       1.0  0.51118  0.25547  0.32682  1.0000
  C   C213      1.0  0.52635  0.24317  0.32756  1.0000
  C   C214      1.0  0.51794  0.21503  0.32736  1.0000
  C   C215      1.0  0.49056  0.19363  0.32648  1.0000
  N   N45       1.0  0.46790  0.19569  0.32583  1.0000
  C   C216      1.0  0.41775  0.16532  0.32712  1.0000
  C   C217      1.0  0.40951  0.18517  0.32765  1.0000
  N   N46       1.0  0.42486  0.21263  0.32698  1.0000
  C   C218      1.0  0.40970  0.22494  0.32922  1.0000
  C   C219      1.0  0.38272  0.20385  0.33048  1.0000
  C   C220      1.0  0.38260  0.17951  0.32950  1.0000
  C   C221      1.0  0.41819  0.25309  0.33068  1.0000
  C   C222      1.0  0.44562  0.27452  0.33034  1.0000
  N   N47       1.0  0.46828  0.27247  0.32922  1.0000
  C   C223      1.0  0.49107  0.29709  0.33030  1.0000
  C   C224      1.0  0.48251  0.31621  0.33204  1.0000
  C   C225      1.0  0.45450  0.30230  0.33194  1.0000
  C   C226      1.0  0.51837  0.30282  0.33058  1.0000
  C   C227      1.0  0.53916  0.33056  0.33489  1.0000
  C   C228      1.0  0.58412  0.38460  0.34364  1.0000
  C   C229      1.0  0.57212  0.36944  0.42228  1.0000
  C   C230      1.0  0.55002  0.34277  0.41808  1.0000
  C   C231      1.0  0.39782  0.26063  0.33471  1.0000
  C   C232      1.0  0.36097  0.28091  0.34283  1.0000
  C   C233      1.0  0.37158  0.27595  0.42162  1.0000
  C   C234      1.0  0.38978  0.26601  0.41775  1.0000
  C   C235      1.0  0.39722  0.13746  0.33094  1.0000
  C   C236      1.0  0.38782  0.12454  0.41420  1.0000
  C   C237      1.0  0.36970  0.09640  0.41875  1.0000
  C   C238      1.0  0.36048  0.08027  0.34050  1.0000
  C   C239      1.0  0.53856  0.20784  0.33147  1.0000
  C   C240      1.0  0.54808  0.20463  0.41487  1.0000
  C   C241      1.0  0.58370  0.19899  0.34155  1.0000
  C   C242      1.0  0.57027  0.20021  0.41968  1.0000
  H   H129      1.0  0.57733  0.19936  0.48159  1.0000
  H   H130      1.0  0.53955  0.20644  0.47276  1.0000
  H   H131      1.0  0.57044  0.26265  0.33068  1.0000
  H   H132      1.0  0.49170  0.24580  0.32563  1.0000
  H   H133      1.0  0.44435  0.22230  0.32581  1.0000
  H   H134      1.0  0.44192  0.13133  0.32791  1.0000
  H   H135      1.0  0.39491  0.13534  0.47220  1.0000
  H   H136      1.0  0.36455  0.08770  0.48060  1.0000
  H   H137      1.0  0.36566  0.20554  0.33253  1.0000
  H   H138      1.0  0.49442  0.33688  0.33348  1.0000
  H   H139      1.0  0.44280  0.31129  0.33333  1.0000
  H   H140      1.0  0.39782  0.26359  0.47579  1.0000
  H   H141      1.0  0.36726  0.28075  0.48288  1.0000
  H   H142      1.0  0.54243  0.33205  0.47601  1.0000
  H   H143      1.0  0.58016  0.37708  0.48362  1.0000
  C   C243      1.0  0.80391  0.28926  0.32821  1.0000
  C   C244      1.0  0.78527  0.24381  0.32809  1.0000
  C   C245      1.0  0.85315  0.30309  0.32653  1.0000
  C   C246      1.0  0.87455  0.29711  0.32580  1.0000
  C   C247      1.0  0.88302  0.22453  0.32700  1.0000
  C   C248      1.0  0.86433  0.17906  0.32980  1.0000
  C   C249      1.0  0.81509  0.16529  0.32997  1.0000
  C   C250      1.0  0.79367  0.17129  0.32974  1.0000
  N   N48       1.0  0.79571  0.19599  0.32852  1.0000
  C   C251      1.0  0.75198  0.16649  0.33159  1.0000
  C   C252      1.0  0.76589  0.15239  0.33147  1.0000
  C   C253      1.0  0.73763  0.20879  0.33431  1.0000
  C   C254      1.0  0.69877  0.20293  0.42186  1.0000
  C   C255      1.0  0.72543  0.20745  0.41756  1.0000
  C   C256      1.0  0.80756  0.13738  0.33413  1.0000
  C   C257      1.0  0.78729  0.08026  0.34252  1.0000
  C   C258      1.0  0.79226  0.09587  0.42125  1.0000
  C   C259      1.0  0.80216  0.12399  0.41723  1.0000
  C   C260      1.0  0.94359  0.26345  0.41381  1.0000
  C   C261      1.0  0.97173  0.27349  0.41844  1.0000
  C   C262      1.0  0.86349  0.34361  0.41418  1.0000
  C   C263      1.0  0.86917  0.38489  0.34100  1.0000
  C   C264      1.0  0.86790  0.37022  0.41908  1.0000
  H   H144      1.0  0.86873  0.37811  0.48102  1.0000
  H   H145      1.0  0.86165  0.33325  0.47203  1.0000
  H   H146      1.0  0.80553  0.30798  0.32962  1.0000
  H   H147      1.0  0.84588  0.22223  0.32510  1.0000
  H   H148      1.0  0.93274  0.25968  0.47176  1.0000
  H   H149      1.0  0.98039  0.27696  0.48031  1.0000
  H   H150      1.0  0.86265  0.16031  0.33184  1.0000
  H   H151      1.0  0.73131  0.15773  0.33303  1.0000
  H   H152      1.0  0.75690  0.13170  0.33285  1.0000
  H   H153      1.0  0.80457  0.13448  0.47524  1.0000
  H   H154      1.0  0.78740  0.08676  0.48254  1.0000
  H   H155      1.0  0.73617  0.21064  0.47543  1.0000
  H   H156      1.0  0.69112  0.20332  0.48324  1.0000
  C   C265      1.0  0.21944  0.63458  0.34487  1.0000
  C   C266      1.0  0.20706  0.61600  0.41591  1.0000
  C   C267      1.0  0.20731  0.59139  0.41653  1.0000
  C   C268      1.0  0.21986  0.58527  0.34593  1.0000
  H   H157      1.0  0.19803  0.57807  0.46789  1.0000
  H   H158      1.0  0.19757  0.61991  0.46687  1.0000
  C   C269      1.0  0.43360  0.58505  0.34535  1.0000
  C   C270      1.0  0.45217  0.59126  0.41637  1.0000
  C   C271      1.0  0.47677  0.61611  0.41697  1.0000
  C   C272      1.0  0.48291  0.63478  0.34635  1.0000
  H   H159      1.0  0.49009  0.62017  0.46831  1.0000
  H   H160      1.0  0.44825  0.57785  0.46733  1.0000
  C   C273      1.0  0.48313  0.84875  0.34529  1.0000
  C   C274      1.0  0.47687  0.86108  0.41633  1.0000
  C   C275      1.0  0.45202  0.86084  0.41683  1.0000
  C   C276      1.0  0.43340  0.84834  0.34611  1.0000
  H   H161      1.0  0.44793  0.87008  0.46819  1.0000
  H   H162      1.0  0.49024  0.87054  0.46736  1.0000
  C   C277      1.0  0.87134  0.41100  0.34552  1.0000
  C   C278      1.0  0.88368  0.42957  0.41657  1.0000
  C   C279      1.0  0.88343  0.45418  0.41715  1.0000
  C   C280      1.0  0.87092  0.46031  0.34653  1.0000
  H   H163      1.0  0.89268  0.46749  0.46851  1.0000
  H   H164      1.0  0.89315  0.42565  0.46754  1.0000
  C   C281      1.0  0.65717  0.46053  0.34600  1.0000
  C   C282      1.0  0.63857  0.45432  0.41701  1.0000
  C   C283      1.0  0.61397  0.42946  0.41761  1.0000
  C   C284      1.0  0.60786  0.41080  0.34702  1.0000
  H   H165      1.0  0.60063  0.42540  0.46894  1.0000
  H   H166      1.0  0.64247  0.46772  0.46795  1.0000
  C   C285      1.0  0.60766  0.19685  0.34599  1.0000
  C   C286      1.0  0.61388  0.18448  0.41697  1.0000
  C   C287      1.0  0.63874  0.18473  0.41746  1.0000
  C   C288      1.0  0.65739  0.19726  0.34678  1.0000
  H   H167      1.0  0.64280  0.17546  0.46878  1.0000
  H   H168      1.0  0.60049  0.17499  0.46797  1.0000
  C   C289      1.0  0.01681  0.29285  0.34454  1.0000
  C   C290      1.0  0.03111  0.28927  0.41552  1.0000
  C   C291      1.0  0.05967  0.30373  0.41609  1.0000
  C   C292      1.0  0.07402  0.32175  0.34551  1.0000
  H   H169      1.0  0.06969  0.30072  0.46749  1.0000
  H   H170      1.0  0.02109  0.27608  0.46655  1.0000
  C   C293      1.0  0.77531  0.72413  0.34498  1.0000
  C   C294      1.0  0.77889  0.74203  0.41593  1.0000
  C   C295      1.0  0.76443  0.75613  0.41648  1.0000
  C   C296      1.0  0.74642  0.75245  0.34591  1.0000
  H   H171      1.0  0.76742  0.76916  0.46786  1.0000
  H   H172      1.0  0.79207  0.74521  0.46694  1.0000
  C   C297      1.0  0.34403  0.05136  0.34473  1.0000
  C   C298      1.0  0.32611  0.03703  0.41567  1.0000
  C   C299      1.0  0.31201  0.00847  0.41616  1.0000
  C   C300      1.0  0.31572  0.99416  0.34553  1.0000
  H   H173      1.0  0.29896  0.99842  0.46753  1.0000
  H   H174      1.0  0.32292  0.04701  0.46672  1.0000
  C   C301      1.0  0.07397  0.75271  0.34433  1.0000
  C   C302      1.0  0.05967  0.75629  0.41537  1.0000
  C   C303      1.0  0.03111  0.74184  0.41605  1.0000
  C   C304      1.0  0.01677  0.72383  0.34549  1.0000
  H   H175      1.0  0.02109  0.74483  0.46750  1.0000
  H   H176      1.0  0.06969  0.76947  0.46637  1.0000
  C   C305      1.0  0.31545  0.32143  0.34471  1.0000
  C   C306      1.0  0.31184  0.30354  0.41573  1.0000
  C   C307      1.0  0.32630  0.28945  0.41642  1.0000
  C   C308      1.0  0.34435  0.29313  0.34590  1.0000
  H   H177      1.0  0.32328  0.27642  0.46785  1.0000
  H   H178      1.0  0.29863  0.30037  0.46671  1.0000
  C   C309      1.0  0.74675  0.99421  0.34479  1.0000
  C   C310      1.0  0.76464  0.00852  0.41575  1.0000
  C   C311      1.0  0.77874  0.03708  0.41631  1.0000
  C   C312      1.0  0.77507  0.05142  0.34573  1.0000
  H   H179      1.0  0.79176  0.04710  0.46769  1.0000
  H   H180      1.0  0.76781  0.99851  0.46677  1.0000
