data_image0
_chemical_formula_structural       CNCHCNCHCNCHCNCHCNCHCNCHNC2HNC2HNC2HNC2HNC2HNC2HNC2HNC2HNC2HNC2HNC2HNC2HCNCHCNCHCNCHCNCHCNCHCNCHNC2HNC2HNC2HNC2HNC2HNC2HNC2HNC2HNC2HNC2HNC2HNC2HCNCHCNCHCNCHCNCHCNCHCNCHNC2HNC2HNC2HNC2HNC2HNC2HCNCHCNCHCNCHCNCHCNCHCNCHCNCNCNCNCNCNCNCNCNCNCNCNCNCNCNCNCNCNCNCNCNCNCNCNCNCNCNCNCNCNCNCNCNCNCNCNCNCNCNCNCNCNCNCNCNCNCNCNCNCNCNCNCNCNCNCNCNCNCNCNCNCNCNCNCNCNCNCNCNCNCNCNCNCNCNCNCNCNCNCNCNCNCNCNCNCNCNCNCNCNCNCNCNCNCNCNCNCNCNCNCNCNCNCNCNCNCNCN2C2HNC2HNC2HNC2HNC2HNC2HCNCHCNCHCNCHCNCHCNCHCNCHCNCHCNCHCNCHCNCHCNCHCNCHNC2HNC2HNC2HNC2HNC2HNC2HCNCHCNCHCNCHCNCHCNCHCNCHCNCHCNCHCNCHCNCHCNCHCNCHNC2HNC2HNC2HNC2HNC2HNC2HCNCHCNCHCNCHCNCHCNCHCNCHNC2HNC2HNC2HNC2HNC2HNC2H
_chemical_formula_sum              "C324 N216 H108"
_cell_length_a       66.4407
_cell_length_b       66.4407
_cell_length_c       14.8719
_cell_angle_alpha    90
_cell_angle_beta     90
_cell_angle_gamma    120

_space_group_name_H-M_alt    "P 1"
_space_group_IT_number       1

loop_
  _space_group_symop_operation_xyz
  'x, y, z'

loop_
  _atom_site_type_symbol
  _atom_site_label
  _atom_site_symmetry_multiplicity
  _atom_site_fract_x
  _atom_site_fract_y
  _atom_site_fract_z
  _atom_site_occupancy
  C   C1        1.0  0.14065  0.34118  0.21950  1.0000
  N   N1        1.0  0.13785  0.35943  0.24042  1.0000
  C   C2        1.0  0.12404  0.35907  0.30847  1.0000
  H   H1        1.0  0.15246  0.34356  0.17055  1.0000
  C   C3        1.0  0.67351  0.80584  0.19953  1.0000
  N   N2        1.0  0.65295  0.78612  0.20492  1.0000
  C   C4        1.0  0.64752  0.76979  0.26956  1.0000
  H   H2        1.0  0.67509  0.81756  0.15135  1.0000
  C   C5        1.0  0.20637  0.87084  0.20355  1.0000
  N   N3        1.0  0.22616  0.87016  0.20933  1.0000
  C   C6        1.0  0.24242  0.88106  0.27426  1.0000
  H   H3        1.0  0.19478  0.86072  0.15496  1.0000
  C   C7        1.0  0.87295  0.67128  0.20344  1.0000
  N   N4        1.0  0.87211  0.65073  0.20953  1.0000
  C   C8        1.0  0.88282  0.64532  0.27505  1.0000
  H   H4        1.0  0.86296  0.67283  0.15449  1.0000
  C   C9        1.0  0.34288  0.20769  0.21859  1.0000
  N   N5        1.0  0.36102  0.22889  0.23869  1.0000
  C   C10       1.0  0.36054  0.24249  0.30591  1.0000
  H   H5        1.0  0.34536  0.19819  0.17024  1.0000
  C   C11       1.0  0.80796  0.13955  0.20223  1.0000
  N   N6        1.0  0.78832  0.14053  0.20796  1.0000
  C   C12       1.0  0.77207  0.12979  0.27299  1.0000
  H   H6        1.0  0.81964  0.14959  0.15375  1.0000
  N   N7        1.0  0.36113  0.13473  0.25329  1.0000
  C   C13       1.0  0.34299  0.13742  0.22917  1.0000
  C   C14       1.0  0.32274  0.12800  0.28307  1.0000
  H   H7        1.0  0.34546  0.14861  0.17760  1.0000
  N   N8        1.0  0.78897  0.65048  0.20544  1.0000
  C   C15       1.0  0.80863  0.67109  0.19990  1.0000
  C   C16       1.0  0.81449  0.68783  0.26876  1.0000
  H   H8        1.0  0.82049  0.67259  0.15253  1.0000
  N   N9        1.0  0.87136  0.22349  0.20889  1.0000
  C   C17       1.0  0.87213  0.20373  0.20299  1.0000
  C   C18       1.0  0.88283  0.19761  0.27168  1.0000
  H   H9        1.0  0.86182  0.19203  0.15505  1.0000
  N   N10       1.0  0.65256  0.86901  0.20817  1.0000
  C   C19       1.0  0.67314  0.86988  0.20201  1.0000
  C   C20       1.0  0.68993  0.88052  0.27087  1.0000
  H   H10       1.0  0.67459  0.85969  0.15374  1.0000
  N   N11       1.0  0.23170  0.35857  0.24901  1.0000
  C   C21       1.0  0.21070  0.34054  0.22580  1.0000
  C   C22       1.0  0.19987  0.32034  0.27998  1.0000
  H   H11       1.0  0.20189  0.34308  0.17476  1.0000
  N   N12       1.0  0.14349  0.78687  0.20747  1.0000
  C   C23       1.0  0.14240  0.80645  0.20145  1.0000
  C   C24       1.0  0.13154  0.81237  0.27016  1.0000
  H   H12       1.0  0.15266  0.81825  0.15371  1.0000
  N   N13       1.0  0.23332  0.43573  0.40862  1.0000
  C   C25       1.0  0.21298  0.43639  0.41236  1.0000
  C   C26       1.0  0.19170  0.41599  0.43344  1.0000
  H   H13       1.0  0.21283  0.45050  0.38570  1.0000
  N   N14       1.0  0.59067  0.80723  0.19703  1.0000
  C   C27       1.0  0.59013  0.78683  0.18926  1.0000
  C   C28       1.0  0.57871  0.76939  0.25524  1.0000
  H   H14       1.0  0.60121  0.78605  0.14337  1.0000
  N   N15       1.0  0.20562  0.78716  0.19780  1.0000
  C   C29       1.0  0.22601  0.80703  0.19061  1.0000
  C   C30       1.0  0.24341  0.81293  0.25670  1.0000
  H   H15       1.0  0.22681  0.81900  0.14521  1.0000
  N   N16       1.0  0.78896  0.58846  0.19656  1.0000
  C   C31       1.0  0.80880  0.58785  0.18996  1.0000
  C   C32       1.0  0.81455  0.57632  0.25646  1.0000
  H   H16       1.0  0.82085  0.59898  0.14472  1.0000
  N   N17       1.0  0.43790  0.21107  0.41054  1.0000
  C   C33       1.0  0.43834  0.23198  0.41291  1.0000
  C   C34       1.0  0.41783  0.23272  0.43319  1.0000
  H   H17       1.0  0.45239  0.24622  0.38586  1.0000
  N   N18       1.0  0.80983  0.22401  0.19828  1.0000
  C   C35       1.0  0.78938  0.20420  0.19105  1.0000
  C   C36       1.0  0.77203  0.19838  0.25727  1.0000
  H   H18       1.0  0.78849  0.19223  0.14546  1.0000
  C   C37       1.0  0.10502  0.42394  0.33767  1.0000
  N   N19       1.0  0.09494  0.43726  0.33814  1.0000
  C   C38       1.0  0.10697  0.46057  0.35212  1.0000
  H   H19       1.0  0.09434  0.40650  0.32808  1.0000
  C   C39       1.0  0.58802  0.68502  0.37536  1.0000
  N   N20       1.0  0.57594  0.66150  0.38161  1.0000
  C   C40       1.0  0.55234  0.64893  0.37832  1.0000
  H   H20       1.0  0.60576  0.69305  0.37554  1.0000
  C   C41       1.0  0.32777  0.90668  0.37481  1.0000
  N   N21       1.0  0.35132  0.91810  0.37942  1.0000
  C   C42       1.0  0.36386  0.90702  0.37694  1.0000
  H   H21       1.0  0.31981  0.91646  0.37410  1.0000
  C   C43       1.0  0.90785  0.58563  0.38208  1.0000
  N   N22       1.0  0.91932  0.57358  0.38844  1.0000
  C   C44       1.0  0.90840  0.54999  0.38392  1.0000
  H   H22       1.0  0.91753  0.60337  0.38324  1.0000
  C   C45       1.0  0.42539  0.32680  0.32917  1.0000
  N   N23       1.0  0.43870  0.35022  0.32861  1.0000
  C   C46       1.0  0.46191  0.36154  0.34488  1.0000
  H   H23       1.0  0.40801  0.31995  0.31761  1.0000
  C   C47       1.0  0.68760  0.10514  0.38071  1.0000
  N   N24       1.0  0.66407  0.09368  0.38611  1.0000
  C   C48       1.0  0.65145  0.10463  0.38036  1.0000
  H   H24       1.0  0.69565  0.09545  0.38268  1.0000
  N   N25       1.0  0.47267  0.12852  0.36883  1.0000
  C   C49       1.0  0.46020  0.13977  0.37069  1.0000
  C   C50       1.0  0.43576  0.12749  0.35858  1.0000
  H   H25       1.0  0.46888  0.15729  0.38236  1.0000
  N   N26       1.0  0.66362  0.53846  0.36984  1.0000
  C   C51       1.0  0.68719  0.54955  0.36352  1.0000
  C   C52       1.0  0.70075  0.57416  0.36540  1.0000
  H   H26       1.0  0.69470  0.53958  0.35253  1.0000
  N   N27       1.0  0.88527  0.34919  0.37246  1.0000
  C   C53       1.0  0.87275  0.32558  0.36794  1.0000
  C   C54       1.0  0.88381  0.31202  0.36807  1.0000
  H   H27       1.0  0.85518  0.31802  0.35920  1.0000
  N   N28       1.0  0.54066  0.88216  0.37558  1.0000
  C   C55       1.0  0.55170  0.86962  0.36906  1.0000
  C   C56       1.0  0.57630  0.88059  0.37108  1.0000
  H   H28       1.0  0.54169  0.85217  0.35753  1.0000
  N   N29       1.0  0.35008  0.46977  0.36411  1.0000
  C   C57       1.0  0.32638  0.45733  0.36677  1.0000
  C   C58       1.0  0.31413  0.43307  0.35038  1.0000
  H   H29       1.0  0.31765  0.46589  0.38278  1.0000
  N   N30       1.0  0.13075  0.66186  0.37115  1.0000
  C   C59       1.0  0.14322  0.68544  0.36522  1.0000
  C   C60       1.0  0.13218  0.69900  0.36839  1.0000
  H   H30       1.0  0.16066  0.69296  0.35325  1.0000
  N   N31       1.0  0.09190  0.21102  0.35782  1.0000
  C   C61       1.0  0.10333  0.23455  0.34997  1.0000
  C   C62       1.0  0.12790  0.24754  0.34460  1.0000
  H   H31       1.0  0.09356  0.24248  0.34488  1.0000
  N   N32       1.0  0.79894  0.88295  0.38024  1.0000
  C   C63       1.0  0.77537  0.87075  0.37410  1.0000
  C   C64       1.0  0.76222  0.88219  0.36903  1.0000
  H   H32       1.0  0.76754  0.85306  0.36923  1.0000
  N   N33       1.0  0.12788  0.91826  0.37810  1.0000
  C   C65       1.0  0.14031  0.90712  0.37266  1.0000
  C   C66       1.0  0.12910  0.88254  0.36832  1.0000
  H   H33       1.0  0.15798  0.91712  0.36768  1.0000
  N   N34       1.0  0.92043  0.79700  0.38045  1.0000
  C   C67       1.0  0.90921  0.77343  0.37443  1.0000
  C   C68       1.0  0.88464  0.76017  0.36901  1.0000
  H   H34       1.0  0.91915  0.76569  0.36989  1.0000
  N   N35       1.0  0.21272  0.12538  0.35641  1.0000
  C   C69       1.0  0.23625  0.13776  0.34864  1.0000
  C   C70       1.0  0.24954  0.12648  0.34520  1.0000
  H   H35       1.0  0.24394  0.15540  0.34215  1.0000
  N   N36       1.0  0.88477  0.09069  0.38020  1.0000
  C   C71       1.0  0.87269  0.10220  0.37484  1.0000
  C   C72       1.0  0.88427  0.12679  0.36928  1.0000
  H   H36       1.0  0.85498  0.09245  0.37094  1.0000
  C   C73       1.0  0.09264  0.53958  0.26894  1.0000
  N   N37       1.0  0.09198  0.55955  0.27742  1.0000
  C   C74       1.0  0.09953  0.57301  0.35234  1.0000
  H   H37       1.0  0.08529  0.52962  0.21293  1.0000
  C   C75       1.0  0.47302  0.56154  0.28140  1.0000
  N   N38       1.0  0.45284  0.54089  0.27780  1.0000
  C   C76       1.0  0.43988  0.53028  0.35197  1.0000
  H   H38       1.0  0.48258  0.56774  0.22371  1.0000
  C   C77       1.0  0.45649  0.92138  0.28151  1.0000
  N   N39       1.0  0.47696  0.92162  0.28737  1.0000
  C   C78       1.0  0.48320  0.91387  0.36088  1.0000
  H   H39       1.0  0.45370  0.92883  0.22621  1.0000
  C   C79       1.0  0.92392  0.47343  0.28272  1.0000
  N   N40       1.0  0.92449  0.45334  0.28420  1.0000
  C   C80       1.0  0.91662  0.43840  0.35497  1.0000
  H   H40       1.0  0.93153  0.48446  0.22955  1.0000
  C   C81       1.0  0.54337  0.45309  0.26920  1.0000
  N   N41       1.0  0.56338  0.47366  0.27904  1.0000
  C   C82       1.0  0.57502  0.48048  0.35838  1.0000
  H   H41       1.0  0.53478  0.44977  0.20911  1.0000
  C   C83       1.0  0.56015  0.08982  0.27255  1.0000
  N   N42       1.0  0.53972  0.08975  0.27236  1.0000
  C   C84       1.0  0.53255  0.09778  0.34227  1.0000
  H   H42       1.0  0.56361  0.08213  0.21979  1.0000
  N   N43       1.0  0.99539  0.45475  0.35022  1.0000
  C   C85       1.0  0.01882  0.46735  0.34633  1.0000
  C   C86       1.0  0.03236  0.45639  0.35175  1.0000
  H   H43       1.0  0.02626  0.48499  0.34002  1.0000
  N   N44       1.0  0.55766  0.54255  0.38025  1.0000
  C   C87       1.0  0.54519  0.55355  0.38037  1.0000
  C   C88       1.0  0.55637  0.57810  0.38368  1.0000
  H   H44       1.0  0.52748  0.54345  0.37742  1.0000
  N   N45       1.0  0.46993  0.01875  0.35048  1.0000
  C   C89       1.0  0.45888  0.99530  0.35331  1.0000
  C   C90       1.0  0.43438  0.98204  0.36095  1.0000
  H   H45       1.0  0.46893  0.98765  0.35026  1.0000
  N   N46       1.0  0.02053  0.55623  0.37619  1.0000
  C   C91       1.0  0.99708  0.54374  0.37674  1.0000
  C   C92       1.0  0.98369  0.55486  0.38323  1.0000
  H   H46       1.0  0.98952  0.52607  0.37194  1.0000
  N   N47       1.0  0.42265  0.43304  0.33572  1.0000
  C   C93       1.0  0.43419  0.42093  0.33517  1.0000
  C   C94       1.0  0.45880  0.43263  0.33420  1.0000
  H   H47       1.0  0.42462  0.40319  0.33672  1.0000
  N   N48       1.0  0.54560  0.99256  0.37577  1.0000
  C   C95       1.0  0.55652  0.01600  0.37443  1.0000
  C   C96       1.0  0.58103  0.02944  0.37997  1.0000
  H   H48       1.0  0.54638  0.02352  0.36913  1.0000
  C   C97       1.0  0.09183  0.10113  0.37189  1.0000
  N   N49       1.0  0.10414  0.08984  0.37184  1.0000
  C   C98       1.0  0.12776  0.10127  0.36931  1.0000
  H   H49       1.0  0.07410  0.09131  0.37390  1.0000
  C   C99       1.0  0.90863  0.99315  0.38366  1.0000
  N   N50       1.0  0.91979  0.01676  0.38322  1.0000
  C   C100      1.0  0.90826  0.02886  0.38371  1.0000
  H   H50       1.0  0.91854  0.98534  0.38326  1.0000
  C   C101      1.0  0.01767  0.91780  0.38328  1.0000
  N   N51       1.0  0.99405  0.90556  0.38383  1.0000
  C   C102      1.0  0.98176  0.88194  0.38442  1.0000
  H   H51       1.0  0.02562  0.93553  0.38290  1.0000
  C   C103      1.0  0.92011  0.90682  0.38504  1.0000
  N   N52       1.0  0.90779  0.91812  0.38513  1.0000
  C   C104      1.0  0.88415  0.90670  0.38519  1.0000
  H   H52       1.0  0.93784  0.91666  0.38505  1.0000
  C   C105      1.0  0.10347  0.01501  0.37588  1.0000
  N   N53       1.0  0.09230  0.99141  0.37794  1.0000
  C   C106      1.0  0.10384  0.97932  0.37842  1.0000
  H   H53       1.0  0.09355  0.02281  0.37565  1.0000
  C   C107      1.0  0.99449  0.09026  0.37801  1.0000
  N   N54       1.0  0.01809  0.10249  0.37580  1.0000
  C   C108      1.0  0.03035  0.12611  0.37369  1.0000
  H   H54       1.0  0.98654  0.07252  0.37954  1.0000
  C   C109      1.0  0.16912  0.41145  0.40917  1.0000
  N   N55       1.0  0.16129  0.42665  0.39313  1.0000
  C   C110      1.0  0.13930  0.41918  0.36035  1.0000
  N   N56       1.0  0.12607  0.39627  0.33667  1.0000
  C   C111      1.0  0.13280  0.38046  0.35269  1.0000
  N   N57       1.0  0.15434  0.38898  0.38645  1.0000
  C   C112      1.0  0.58712  0.75391  0.27287  1.0000
  N   N58       1.0  0.57674  0.73315  0.31677  1.0000
  C   C113      1.0  0.58870  0.72196  0.33947  1.0000
  N   N59       1.0  0.61233  0.73336  0.32539  1.0000
  C   C114      1.0  0.62354  0.75409  0.28154  1.0000
  N   N60       1.0  0.61004  0.76299  0.25649  1.0000
  C   C115      1.0  0.25867  0.83679  0.27565  1.0000
  N   N61       1.0  0.27952  0.84722  0.31886  1.0000
  C   C116      1.0  0.29062  0.87033  0.34217  1.0000
  N   N62       1.0  0.27907  0.88246  0.32915  1.0000
  C   C117      1.0  0.25820  0.87286  0.28610  1.0000
  N   N63       1.0  0.24943  0.85053  0.26036  1.0000
  C   C118      1.0  0.83836  0.58484  0.27603  1.0000
  N   N64       1.0  0.84863  0.57438  0.32012  1.0000
  C   C119      1.0  0.87169  0.58634  0.34418  1.0000
  N   N65       1.0  0.88391  0.61002  0.33104  1.0000
  C   C120      1.0  0.87445  0.62131  0.28727  1.0000
  N   N66       1.0  0.85219  0.60780  0.26070  1.0000
  C   C121      1.0  0.41309  0.25054  0.40768  1.0000
  N   N67       1.0  0.42816  0.27354  0.39061  1.0000
  C   C122      1.0  0.42056  0.28785  0.35664  1.0000
  N   N68       1.0  0.39764  0.27796  0.33286  1.0000
  C   C123      1.0  0.38194  0.25543  0.34989  1.0000
  N   N69       1.0  0.39059  0.24263  0.38479  1.0000
  C   C124      1.0  0.75650  0.17454  0.27556  1.0000
  N   N70       1.0  0.73577  0.16432  0.31968  1.0000
  C   C125      1.0  0.72452  0.14121  0.34296  1.0000
  N   N71       1.0  0.73580  0.12886  0.32911  1.0000
  C   C126      1.0  0.75649  0.13822  0.28504  1.0000
  N   N72       1.0  0.76546  0.16059  0.25948  1.0000
  C   C127      1.0  0.41401  0.16791  0.41398  1.0000
  N   N73       1.0  0.42912  0.16006  0.39635  1.0000
  C   C128      1.0  0.42129  0.13771  0.36708  1.0000
  N   N74       1.0  0.39811  0.12418  0.34836  1.0000
  C   C129      1.0  0.38243  0.13086  0.36754  1.0000
  N   N75       1.0  0.39119  0.15274  0.39805  1.0000
  C   C130      1.0  0.75681  0.58474  0.27595  1.0000
  N   N76       1.0  0.73612  0.57441  0.32013  1.0000
  C   C131      1.0  0.72488  0.58640  0.34161  1.0000
  N   N77       1.0  0.73623  0.60998  0.32619  1.0000
  C   C132      1.0  0.75695  0.62108  0.28216  1.0000
  N   N78       1.0  0.76584  0.60755  0.25741  1.0000
  C   C133      1.0  0.83820  0.25610  0.27827  1.0000
  N   N79       1.0  0.84861  0.27673  0.32285  1.0000
  C   C134      1.0  0.87180  0.28783  0.34485  1.0000
  N   N80       1.0  0.88391  0.27634  0.32980  1.0000
  C   C135      1.0  0.87427  0.25564  0.28553  1.0000
  N   N81       1.0  0.85189  0.24692  0.26046  1.0000
  C   C136      1.0  0.58681  0.83537  0.27803  1.0000
  N   N82       1.0  0.57653  0.84559  0.32358  1.0000
  C   C137      1.0  0.58854  0.86874  0.34624  1.0000
  N   N83       1.0  0.61211  0.88100  0.33083  1.0000
  C   C138      1.0  0.62320  0.87156  0.28550  1.0000
  N   N84       1.0  0.60964  0.84921  0.25988  1.0000
  C   C139      1.0  0.25226  0.41153  0.41006  1.0000
  N   N85       1.0  0.27515  0.42654  0.39114  1.0000
  C   C140      1.0  0.28948  0.41861  0.36041  1.0000
  N   N86       1.0  0.27965  0.39540  0.34169  1.0000
  C   C141      1.0  0.25733  0.37982  0.36217  1.0000
  N   N87       1.0  0.24442  0.38868  0.39402  1.0000
  C   C142      1.0  0.17741  0.75507  0.27806  1.0000
  N   N88       1.0  0.16717  0.73441  0.32253  1.0000
  C   C143      1.0  0.14398  0.72313  0.34450  1.0000
  N   N89       1.0  0.13164  0.73438  0.32917  1.0000
  C   C144      1.0  0.14113  0.75505  0.28483  1.0000
  N   N90       1.0  0.16353  0.76399  0.25967  1.0000
  C   C145      1.0  0.13958  0.30577  0.27478  1.0000
  N   N91       1.0  0.12876  0.28383  0.30909  1.0000
  C   C146      1.0  0.14024  0.27185  0.32404  1.0000
  N   N92       1.0  0.16382  0.28359  0.31244  1.0000
  C   C147      1.0  0.17549  0.30551  0.27816  1.0000
  N   N93       1.0  0.16273  0.31574  0.25938  1.0000
  C   C148      1.0  0.70570  0.83579  0.28548  1.0000
  N   N94       1.0  0.72664  0.84668  0.32806  1.0000
  C   C149      1.0  0.73796  0.87011  0.34651  1.0000
  N   N95       1.0  0.72655  0.88220  0.32907  1.0000
  C   C150      1.0  0.70558  0.87219  0.28660  1.0000
  N   N96       1.0  0.69662  0.84949  0.26653  1.0000
  C   C151      1.0  0.17611  0.87282  0.28847  1.0000
  N   N97       1.0  0.16495  0.88275  0.33000  1.0000
  C   C152      1.0  0.14143  0.87054  0.34688  1.0000
  N   N98       1.0  0.12948  0.84709  0.32864  1.0000
  C   C153      1.0  0.13974  0.83628  0.28685  1.0000
  N   N99       1.0  0.16253  0.85010  0.26847  1.0000
  C   C154      1.0  0.87488  0.70350  0.28825  1.0000
  N   N100      1.0  0.88480  0.72453  0.33023  1.0000
  C   C155      1.0  0.87262  0.73589  0.34692  1.0000
  N   N101      1.0  0.84919  0.72446  0.32810  1.0000
  C   C156      1.0  0.83840  0.70342  0.28607  1.0000
  N   N102      1.0  0.85220  0.69444  0.26775  1.0000
  C   C157      1.0  0.30763  0.17333  0.27485  1.0000
  N   N103      1.0  0.28566  0.16211  0.30902  1.0000
  C   C158      1.0  0.27387  0.13868  0.32482  1.0000
  N   N104      1.0  0.28581  0.12701  0.31426  1.0000
  C   C159      1.0  0.30775  0.13736  0.28018  1.0000
  N   N105      1.0  0.31780  0.16029  0.26051  1.0000
  C   C160      1.0  0.83793  0.13722  0.28764  1.0000
  N   N106      1.0  0.84880  0.12708  0.32974  1.0000
  C   C161      1.0  0.87227  0.13909  0.34746  1.0000
  N   N107      1.0  0.88444  0.16259  0.32978  1.0000
  C   C162      1.0  0.87443  0.17362  0.28779  1.0000
  N   N108      1.0  0.85168  0.15996  0.26843  1.0000
  C   C163      1.0  0.09155  0.50684  0.34715  1.0000
  N   N109      1.0  0.10478  0.49642  0.35030  1.0000
  C   C164      1.0  0.09449  0.47272  0.35228  1.0000
  N   N110      1.0  0.07080  0.45990  0.35226  1.0000
  C   C165      1.0  0.05709  0.46965  0.35028  1.0000
  N   N111      1.0  0.06810  0.49317  0.34727  1.0000
  C   C166      1.0  0.50642  0.58745  0.37352  1.0000
  N   N112      1.0  0.51704  0.61107  0.37421  1.0000
  C   C167      1.0  0.54069  0.62434  0.37995  1.0000
  N   N113      1.0  0.55339  0.61337  0.38335  1.0000
  C   C168      1.0  0.54335  0.58982  0.38219  1.0000
  N   N114      1.0  0.51982  0.57742  0.37697  1.0000
  C   C169      1.0  0.42546  0.92285  0.36304  1.0000
  N   N115      1.0  0.40189  0.90974  0.37037  1.0000
  C   C170      1.0  0.38847  0.92001  0.37499  1.0000
  N   N116      1.0  0.39923  0.94368  0.37180  1.0000
  C   C171      1.0  0.42269  0.95730  0.36493  1.0000
  N   N117      1.0  0.43514  0.94625  0.36037  1.0000
  C   C172      1.0  0.92465  0.50453  0.37165  1.0000
  N   N118      1.0  0.91138  0.51486  0.37613  1.0000
  C   C173      1.0  0.92149  0.53847  0.38430  1.0000
  N   N119      1.0  0.94517  0.55145  0.38685  1.0000
  C   C174      1.0  0.95893  0.54174  0.38262  1.0000
  N   N120      1.0  0.94804  0.51829  0.37452  1.0000
  C   C175      1.0  0.50863  0.42298  0.34358  1.0000
  N   N121      1.0  0.49789  0.39932  0.34688  1.0000
  C   C176      1.0  0.47419  0.38617  0.34404  1.0000
  N   N122      1.0  0.46168  0.39734  0.33921  1.0000
  C   C177      1.0  0.47177  0.42085  0.33687  1.0000
  N   N123      1.0  0.49531  0.43310  0.33884  1.0000
  C   C178      1.0  0.58988  0.08851  0.36389  1.0000
  N   N124      1.0  0.61345  0.10173  0.36954  1.0000
  C   C179      1.0  0.62686  0.09157  0.37960  1.0000
  N   N125      1.0  0.61610  0.06791  0.38302  1.0000
  C   C180      1.0  0.59263  0.05419  0.37778  1.0000
  N   N126      1.0  0.58014  0.06510  0.36772  1.0000
  C   C181      1.0  0.50857  0.08956  0.34883  1.0000
  N   N127      1.0  0.49819  0.10283  0.35264  1.0000
  C   C182      1.0  0.47448  0.09257  0.35542  1.0000
  N   N128      1.0  0.46159  0.06887  0.35547  1.0000
  C   C183      1.0  0.47146  0.05531  0.35267  1.0000
  N   N129      1.0  0.49493  0.06612  0.34878  1.0000
  C   C184      1.0  0.59025  0.50439  0.37064  1.0000
  N   N130      1.0  0.61387  0.51492  0.37308  1.0000
  C   C185      1.0  0.62723  0.53855  0.38093  1.0000
  N   N131      1.0  0.61639  0.55137  0.38466  1.0000
  C   C186      1.0  0.59288  0.54128  0.38190  1.0000
  N   N132      1.0  0.58026  0.51783  0.37433  1.0000
  C   C187      1.0  0.92494  0.42270  0.36273  1.0000
  N   N133      1.0  0.91176  0.39917  0.37165  1.0000
  C   C188      1.0  0.92194  0.38565  0.37650  1.0000
  N   N134      1.0  0.94559  0.39625  0.37218  1.0000
  C   C189      1.0  0.95911  0.41965  0.36371  1.0000
  N   N135      1.0  0.94832  0.43232  0.35867  1.0000
  C   C190      1.0  0.50706  0.92206  0.37305  1.0000
  N   N136      1.0  0.51733  0.90874  0.37837  1.0000
  C   C191      1.0  0.54096  0.91879  0.38624  1.0000
  N   N137      1.0  0.55404  0.94247  0.38775  1.0000
  C   C192      1.0  0.54424  0.95612  0.38262  1.0000
  N   N138      1.0  0.52082  0.94546  0.37470  1.0000
  C   C193      1.0  0.42460  0.50622  0.34797  1.0000
  N   N139      1.0  0.40094  0.49552  0.35014  1.0000
  C   C194      1.0  0.38776  0.47184  0.34520  1.0000
  N   N140      1.0  0.39884  0.45927  0.33947  1.0000
  C   C195      1.0  0.42235  0.46949  0.33798  1.0000
  N   N141      1.0  0.43481  0.49299  0.34212  1.0000
  C   C196      1.0  0.09112  0.58843  0.36677  1.0000
  N   N142      1.0  0.10436  0.61202  0.37210  1.0000
  C   C197      1.0  0.09424  0.62547  0.38193  1.0000
  N   N143      1.0  0.07057  0.61478  0.38527  1.0000
  C   C198      1.0  0.05700  0.59132  0.38009  1.0000
  N   N144      1.0  0.06771  0.57865  0.37020  1.0000
  C   C199      1.0  0.09078  0.13816  0.36940  1.0000
  N   N145      1.0  0.10213  0.16184  0.36675  1.0000
  C   C200      1.0  0.09078  0.17413  0.36660  1.0000
  N   N146      1.0  0.06714  0.16201  0.36874  1.0000
  C   C201      1.0  0.05493  0.13837  0.37148  1.0000
  N   N147      1.0  0.06711  0.12689  0.37170  1.0000
  C   C202      1.0  0.87174  0.95493  0.38515  1.0000
  N   N148      1.0  0.84805  0.94249  0.38508  1.0000
  C   C203      1.0  0.83585  0.91883  0.38544  1.0000
  N   N149      1.0  0.84810  0.90742  0.38531  1.0000
  C   C204      1.0  0.87176  0.91895  0.38540  1.0000
  N   N150      1.0  0.88312  0.94261  0.38527  1.0000
  C   C205      1.0  0.05572  0.91874  0.38283  1.0000
  N   N151      1.0  0.06815  0.90747  0.38326  1.0000
  C   C206      1.0  0.09182  0.91894  0.38270  1.0000
  N   N152      1.0  0.10321  0.94259  0.38102  1.0000
  C   C207      1.0  0.09168  0.95472  0.38050  1.0000
  N   N153      1.0  0.06804  0.94242  0.38139  1.0000
  C   C208      1.0  0.92120  0.86978  0.38519  1.0000
  N   N154      1.0  0.90989  0.84607  0.38508  1.0000
  C   C209      1.0  0.92129  0.83381  0.38520  1.0000
  N   N155      1.0  0.94494  0.84601  0.38489  1.0000
  C   C210      1.0  0.95714  0.86966  0.38496  1.0000
  N   N156      1.0  0.94490  0.88109  0.38508  1.0000
  C   C211      1.0  0.14034  0.05321  0.37184  1.0000
  N   N157      1.0  0.16402  0.06570  0.36918  1.0000
  C   C212      1.0  0.17611  0.08936  0.36685  1.0000
  N   N158      1.0  0.16380  0.10068  0.36679  1.0000
  C   C213      1.0  0.14016  0.08908  0.36943  1.0000
  N   N159      1.0  0.12888  0.06543  0.37186  1.0000
  C   C214      1.0  0.95649  0.08936  0.38059  1.0000
  N   N160      1.0  0.94417  0.10072  0.38130  1.0000
  C   C215      1.0  0.92051  0.08937  0.38325  1.0000
  N   N161      1.0  0.90899  0.06570  0.38387  1.0000
  C   C216      1.0  0.92044  0.05348  0.38323  1.0000
  N   N162      1.0  0.94409  0.06568  0.38155  1.0000
  N   N163      1.0  0.11383  0.33950  0.35995  1.0000
  C   C217      1.0  0.11476  0.31993  0.34024  1.0000
  C   C218      1.0  0.13031  0.32085  0.27313  1.0000
  H   H55       1.0  0.10800  0.30672  0.38624  1.0000
  N   N164      1.0  0.66461  0.77361  0.32980  1.0000
  C   C219      1.0  0.68602  0.79351  0.32849  1.0000
  C   C220      1.0  0.69015  0.81186  0.26876  1.0000
  H   H56       1.0  0.69693  0.79659  0.38171  1.0000
  N   N165      1.0  0.23834  0.89415  0.33454  1.0000
  C   C221      1.0  0.21835  0.89551  0.33286  1.0000
  C   C222      1.0  0.20012  0.88132  0.27262  1.0000
  H   H57       1.0  0.21513  0.90324  0.38607  1.0000
  N   N166      1.0  0.89587  0.66243  0.33557  1.0000
  C   C223      1.0  0.89736  0.68383  0.33355  1.0000
  C   C224      1.0  0.88335  0.68797  0.27269  1.0000
  H   H58       1.0  0.90501  0.69475  0.38691  1.0000
  N   N167      1.0  0.34098  0.23311  0.35745  1.0000
  C   C225      1.0  0.32152  0.21246  0.33849  1.0000
  C   C226      1.0  0.32256  0.19770  0.27225  1.0000
  H   H59       1.0  0.30832  0.20605  0.38455  1.0000
  N   N168      1.0  0.77587  0.11652  0.33328  1.0000
  C   C227      1.0  0.79569  0.11486  0.33163  1.0000
  C   C228      1.0  0.81398  0.12892  0.27145  1.0000
  H   H60       1.0  0.79878  0.10705  0.38488  1.0000
  C   C229      1.0  0.32181  0.11348  0.35443  1.0000
  N   N169      1.0  0.34125  0.11260  0.37662  1.0000
  C   C230      1.0  0.36081  0.12188  0.32504  1.0000
  H   H61       1.0  0.30856  0.10731  0.40026  1.0000
  C   C231      1.0  0.79605  0.68361  0.32808  1.0000
  N   N170      1.0  0.77616  0.66221  0.32923  1.0000
  C   C232      1.0  0.77247  0.64509  0.26937  1.0000
  H   H62       1.0  0.79895  0.69464  0.38074  1.0000
  C   C233      1.0  0.89701  0.21590  0.33165  1.0000
  N   N171      1.0  0.89571  0.23591  0.33318  1.0000
  C   C234      1.0  0.88246  0.23985  0.27326  1.0000
  H   H63       1.0  0.90504  0.21283  0.38425  1.0000
  C   C235      1.0  0.68572  0.89452  0.33143  1.0000
  N   N172      1.0  0.66435  0.89309  0.33318  1.0000
  C   C236      1.0  0.64720  0.87994  0.27297  1.0000
  H   H64       1.0  0.69676  0.90246  0.38420  1.0000
  C   C237      1.0  0.21361  0.31932  0.35057  1.0000
  N   N173      1.0  0.23411  0.33867  0.37190  1.0000
  C   C238      1.0  0.24440  0.35818  0.32003  1.0000
  H   H65       1.0  0.20657  0.30611  0.39661  1.0000
  C   C239      1.0  0.11749  0.79401  0.33010  1.0000
  N   N174      1.0  0.11912  0.77418  0.33173  1.0000
  C   C240      1.0  0.13253  0.77047  0.27186  1.0000
  H   H66       1.0  0.10939  0.79695  0.38273  1.0000
  C   C241      1.0  0.19409  0.39748  0.46823  1.0000
  N   N175      1.0  0.21444  0.39796  0.46274  1.0000
  C   C242      1.0  0.23433  0.41632  0.43147  1.0000
  H   H67       1.0  0.18008  0.38218  0.48913  1.0000
  C   C243      1.0  0.56361  0.77267  0.31319  1.0000
  N   N176      1.0  0.56476  0.79387  0.31673  1.0000
  C   C244      1.0  0.57864  0.81165  0.26014  1.0000
  H   H68       1.0  0.55505  0.76106  0.36380  1.0000
  C   C245      1.0  0.24007  0.79445  0.31413  1.0000
  N   N177      1.0  0.21887  0.77439  0.31705  1.0000
  C   C246      1.0  0.20115  0.77055  0.26029  1.0000
  H   H69       1.0  0.25160  0.79741  0.36497  1.0000
  C   C247      1.0  0.79596  0.56125  0.31363  1.0000
  N   N178      1.0  0.77594  0.56247  0.31592  1.0000
  C   C248      1.0  0.77225  0.57639  0.25878  1.0000
  H   H70       1.0  0.79881  0.55266  0.36472  1.0000
  C   C249      1.0  0.39942  0.21184  0.46868  1.0000
  N   N179      1.0  0.40012  0.19207  0.46454  1.0000
  C   C250      1.0  0.41860  0.19063  0.43402  1.0000
  H   H71       1.0  0.38406  0.21047  0.48910  1.0000
  C   C251      1.0  0.77547  0.21688  0.31474  1.0000
  N   N180      1.0  0.79673  0.23688  0.31766  1.0000
  C   C252      1.0  0.81443  0.24063  0.26091  1.0000
  H   H72       1.0  0.76394  0.21399  0.36550  1.0000
  N   N181      1.0  0.13029  0.47065  0.36640  1.0000
  C   C253      1.0  0.14145  0.45809  0.36769  1.0000
  C   C254      1.0  0.12916  0.43374  0.35335  1.0000
  H   H73       1.0  0.15892  0.46665  0.38026  1.0000
  N   N182      1.0  0.54069  0.66076  0.36845  1.0000
  C   C255      1.0  0.55181  0.68432  0.36189  1.0000
  C   C256      1.0  0.57642  0.69784  0.36330  1.0000
  H   H74       1.0  0.54185  0.69187  0.35134  1.0000
  N   N183      1.0  0.35191  0.88348  0.36936  1.0000
  C   C257      1.0  0.32831  0.87106  0.36440  1.0000
  C   C258      1.0  0.31485  0.88223  0.36479  1.0000
  H   H75       1.0  0.32067  0.85349  0.35547  1.0000
  N   N184      1.0  0.88496  0.53833  0.37241  1.0000
  C   C259      1.0  0.87249  0.54942  0.36566  1.0000
  C   C260      1.0  0.88351  0.57403  0.36823  1.0000
  H   H76       1.0  0.85504  0.53947  0.35381  1.0000
  N   N185      1.0  0.47189  0.34837  0.36263  1.0000
  C   C261      1.0  0.45935  0.32467  0.36497  1.0000
  C   C262      1.0  0.43509  0.31253  0.34838  1.0000
  H   H77       1.0  0.46785  0.31583  0.38022  1.0000
  N   N186      1.0  0.66325  0.12806  0.36867  1.0000
  C   C263      1.0  0.68683  0.14051  0.36291  1.0000
  C   C264      1.0  0.70038  0.12947  0.36671  1.0000
  H   H78       1.0  0.69436  0.15795  0.35069  1.0000
  C   C265      1.0  0.42581  0.10328  0.34415  1.0000
  N   N187      1.0  0.43905  0.09313  0.34387  1.0000
  C   C266      1.0  0.46243  0.10514  0.35590  1.0000
  H   H79       1.0  0.40831  0.09261  0.33608  1.0000
  C   C267      1.0  0.68798  0.58578  0.37800  1.0000
  N   N188      1.0  0.66445  0.57373  0.38405  1.0000
  C   C268      1.0  0.65182  0.55013  0.38015  1.0000
  H   H80       1.0  0.69604  0.60352  0.37861  1.0000
  C   C269      1.0  0.90828  0.32485  0.37757  1.0000
  N   N189      1.0  0.91980  0.34841  0.38181  1.0000
  C   C270      1.0  0.90883  0.36105  0.37950  1.0000
  H   H81       1.0  0.91799  0.31682  0.37656  1.0000
  C   C271      1.0  0.58797  0.90495  0.38424  1.0000
  N   N190      1.0  0.57598  0.91649  0.39044  1.0000
  C   C272      1.0  0.55239  0.90562  0.38640  1.0000
  H   H82       1.0  0.60572  0.91461  0.38490  1.0000
  C   C273      1.0  0.32828  0.42328  0.33035  1.0000
  N   N191      1.0  0.35170  0.43649  0.32935  1.0000
  C   C274      1.0  0.36314  0.45969  0.34581  1.0000
  H   H83       1.0  0.32136  0.40590  0.31867  1.0000
  C   C275      1.0  0.10784  0.68624  0.38212  1.0000
  N   N192      1.0  0.09638  0.66270  0.38775  1.0000
  C   C276      1.0  0.10732  0.65007  0.38253  1.0000
  H   H84       1.0  0.09815  0.69430  0.38371  1.0000
  C   C277      1.0  0.13917  0.23426  0.35045  1.0000
  N   N193      1.0  0.12679  0.21075  0.35826  1.0000
  C   C278      1.0  0.10318  0.19870  0.36206  1.0000
  H   H85       1.0  0.15685  0.24196  0.34579  1.0000
  C   C279      1.0  0.77548  0.90676  0.37383  1.0000
  N   N194      1.0  0.79904  0.91800  0.38005  1.0000
  C   C280      1.0  0.81122  0.90656  0.38331  1.0000
  H   H86       1.0  0.76773  0.91669  0.36889  1.0000
  C   C281      1.0  0.10451  0.87101  0.37328  1.0000
  N   N195      1.0  0.09304  0.88312  0.37882  1.0000
  C   C282      1.0  0.10426  0.90674  0.38124  1.0000
  H   H87       1.0  0.09474  0.85330  0.36903  1.0000
  C   C283      1.0  0.87319  0.77332  0.37340  1.0000
  N   N196      1.0  0.88539  0.79689  0.37956  1.0000
  C   C284      1.0  0.90899  0.80918  0.38313  1.0000
  H   H88       1.0  0.85550  0.76547  0.36830  1.0000
  C   C285      1.0  0.23657  0.10194  0.35282  1.0000
  N   N197      1.0  0.21304  0.09053  0.36047  1.0000
  C   C286      1.0  0.20069  0.10180  0.36240  1.0000
  H   H89       1.0  0.24451  0.09216  0.34967  1.0000
  C   C287      1.0  0.90885  0.13795  0.37274  1.0000
  N   N198      1.0  0.91995  0.12548  0.37820  1.0000
  C   C288      1.0  0.90838  0.10187  0.38195  1.0000
  H   H90       1.0  0.91887  0.15561  0.36735  1.0000
  N   N199      1.0  0.10633  0.56500  0.42360  1.0000
  C   C289      1.0  0.10749  0.54510  0.41950  1.0000
  C   C290      1.0  0.09987  0.53101  0.34166  1.0000
  H   H91       1.0  0.11099  0.53910  0.47740  1.0000
  N   N200      1.0  0.44890  0.53996  0.43328  1.0000
  C   C291      1.0  0.46899  0.56061  0.44191  1.0000
  C   C292      1.0  0.48227  0.57220  0.36510  1.0000
  H   H92       1.0  0.47558  0.56606  0.50510  1.0000
  N   N201      1.0  0.46880  0.90725  0.43348  1.0000
  C   C293      1.0  0.44790  0.90646  0.43200  1.0000
  C   C294      1.0  0.44114  0.91435  0.35569  1.0000
  H   H93       1.0  0.43877  0.90304  0.49081  1.0000
  N   N202      1.0  0.90940  0.44493  0.42941  1.0000
  C   C295      1.0  0.90832  0.46489  0.43241  1.0000
  C   C296      1.0  0.91640  0.48052  0.35905  1.0000
  H   H94       1.0  0.90450  0.46971  0.49250  1.0000
  N   N203      1.0  0.56494  0.46690  0.43178  1.0000
  C   C297      1.0  0.54496  0.44599  0.42656  1.0000
  C   C298      1.0  0.53289  0.43841  0.34408  1.0000
  H   H95       1.0  0.53742  0.43747  0.48516  1.0000
  N   N204      1.0  0.54593  0.10454  0.41775  1.0000
  C   C299      1.0  0.56673  0.10518  0.42250  1.0000
  C   C300      1.0  0.57439  0.09699  0.34987  1.0000
  H   H96       1.0  0.57505  0.10874  0.48326  1.0000
  C   C301      1.0  0.01970  0.43187  0.36027  1.0000
  N   N205      1.0  0.99605  0.42014  0.36388  1.0000
  C   C302      1.0  0.98358  0.43127  0.35902  1.0000
  H   H97       1.0  0.02807  0.42253  0.36487  1.0000
  C   C303      1.0  0.58097  0.58981  0.38727  1.0000
  N   N206      1.0  0.59256  0.57775  0.38703  1.0000
  C   C304      1.0  0.58123  0.55413  0.38362  1.0000
  H   H98       1.0  0.59050  0.60755  0.38962  1.0000
  C   C305      1.0  0.42276  0.99500  0.36449  1.0000
  N   N207      1.0  0.43489  0.01865  0.36129  1.0000
  C   C306      1.0  0.45846  0.03083  0.35426  1.0000
  H   H99       1.0  0.40506  0.98686  0.36999  1.0000
  C   C307      1.0  0.99654  0.57942  0.38921  1.0000
  N   N208      1.0  0.02021  0.59104  0.38836  1.0000
  C   C308      1.0  0.03252  0.57976  0.38194  1.0000
  H   H100      1.0  0.98830  0.58889  0.39393  1.0000
  C   C309      1.0  0.47004  0.45719  0.33257  1.0000
  N   N209      1.0  0.45760  0.46824  0.33321  1.0000
  C   C310      1.0  0.43402  0.45668  0.33470  1.0000
  H   H101      1.0  0.48776  0.46726  0.33196  1.0000
  C   C311      1.0  0.59278  0.01664  0.38698  1.0000
  N   N210      1.0  0.58077  0.99297  0.38795  1.0000
  C   C312      1.0  0.55717  0.98061  0.38248  1.0000
  H   H102      1.0  0.61051  0.02492  0.39113  1.0000
  N   N211      1.0  0.13912  0.12488  0.36673  1.0000
  C   C313      1.0  0.12779  0.13714  0.36665  1.0000
  C   C314      1.0  0.10320  0.12572  0.36932  1.0000
  H   H103      1.0  0.13759  0.15488  0.36464  1.0000
  N   N212      1.0  0.88464  0.01649  0.38457  1.0000
  C   C315      1.0  0.87250  0.99288  0.38500  1.0000
  C   C316      1.0  0.88404  0.97981  0.38463  1.0000
  H   H104      1.0  0.85476  0.98485  0.38568  1.0000
  N   N213      1.0  0.99396  0.87050  0.38438  1.0000
  C   C317      1.0  0.01757  0.88176  0.38387  1.0000
  C   C318      1.0  0.03083  0.90635  0.38334  1.0000
  H   H105      1.0  0.02546  0.87191  0.38389  1.0000
  N   N214      1.0  0.87281  0.88308  0.38510  1.0000
  C   C319      1.0  0.88416  0.87081  0.38502  1.0000
  C   C320      1.0  0.90875  0.88222  0.38506  1.0000
  H   H106      1.0  0.87435  0.85307  0.38500  1.0000
  N   N215      1.0  0.12746  0.99168  0.37665  1.0000
  C   C321      1.0  0.13960  0.01529  0.37452  1.0000
  C   C322      1.0  0.12805  0.02834  0.37406  1.0000
  H   H107      1.0  0.15735  0.02331  0.37330  1.0000
  N   N216      1.0  0.01817  0.13756  0.37381  1.0000
  C   C323      1.0  0.99458  0.12630  0.37599  1.0000
  C   C324      1.0  0.98135  0.10172  0.37828  1.0000
  H   H108      1.0  0.98670  0.13616  0.37592  1.0000
