data_image0
_chemical_formula_structural       C2NHCH2C2NHCH4C6HC6HNCH2NHC3H3NCH2NHC3H3C3NH3C6N2H4C6N2H4CHCNHNCNHCNHCNHC3H2C3H2C3H2C3H2C3H2C5H4C3NC3H5CNC3NC3H5C3NC3H5C3NC3H5C3NH3C6N2H4C6N2H4CHCNHNCNHCNHCNHC3H2C3H2C3H2C3H2C3H2C5H4C3NC3H5CNC3NC3H5C3NC3H5C3NC3H5C6N2H3C6N2H4C6N2H4CNHCNHCNHCNHCNHCNHC3H2C3H2C3H2C3H2C3H2C3H2C3NC3H5C3NC3H5C3NC3H5C3NC3H5C3NC3H5C3NC3H5C6N2H3C6N2H4C6N2H4CNHCNHCNHCNHCNHCNHC3H2C3H2C3H2C3H2C3H2C3H2C3NC3H5C3NC3H5C3NC3H5C3NC3H5C3NC3H5C3NC3H5
_chemical_formula_sum              "C312 N72 H240"
_cell_length_a       46.0449
_cell_length_b       46.0449
_cell_length_c       14.919
_cell_angle_alpha    90
_cell_angle_beta     90
_cell_angle_gamma    120

_space_group_name_H-M_alt    "P 1"
_space_group_IT_number       1

loop_
  _space_group_symop_operation_xyz
  'x, y, z'

loop_
  _atom_site_type_symbol
  _atom_site_label
  _atom_site_symmetry_multiplicity
  _atom_site_fract_x
  _atom_site_fract_y
  _atom_site_fract_z
  _atom_site_occupancy
  C   C1        1.0  0.02231  0.26196  0.30126  1.0000
  C   C2        1.0  0.04267  0.29811  0.29411  1.0000
  N   N1        1.0  0.03155  0.31596  0.24669  1.0000
  H   H1        1.0  0.04386  0.34021  0.24344  1.0000
  C   C3        1.0  0.04029  0.24496  0.32269  1.0000
  H   H2        1.0  0.02825  0.21969  0.33211  1.0000
  H   H3        1.0  0.05165  0.33906  0.50761  1.0000
  C   C4        1.0  0.02231  0.76196  0.30126  1.0000
  C   C5        1.0  0.04267  0.79811  0.29411  1.0000
  N   N2        1.0  0.03156  0.81596  0.24669  1.0000
  H   H4        1.0  0.04386  0.84021  0.24344  1.0000
  C   C6        1.0  0.04029  0.74496  0.32269  1.0000
  H   H5        1.0  0.02825  0.71969  0.33211  1.0000
  H   H6        1.0  0.05165  0.83906  0.50761  1.0000
  H   H7        1.0  0.01290  0.30470  0.20509  1.0000
  H   H8        1.0  0.01290  0.80470  0.20509  1.0000
  C   C7        1.0  0.07532  0.31555  0.33454  1.0000
  C   C8        1.0  0.09051  0.29648  0.35800  1.0000
  C   C9        1.0  0.07441  0.26167  0.34599  1.0000
  C   C10       1.0  0.09375  0.24582  0.35260  1.0000
  C   C11       1.0  0.09677  0.35091  0.34410  1.0000
  C   C12       1.0  0.06838  0.33441  0.54926  1.0000
  H   H9        1.0  0.05792  0.31180  0.59051  1.0000
  C   C13       1.0  0.07532  0.81555  0.33454  1.0000
  C   C14       1.0  0.09051  0.79648  0.35800  1.0000
  C   C15       1.0  0.07441  0.76167  0.34599  1.0000
  C   C16       1.0  0.09375  0.74582  0.35260  1.0000
  C   C17       1.0  0.09677  0.85091  0.34410  1.0000
  C   C18       1.0  0.06838  0.83441  0.54926  1.0000
  H   H10       1.0  0.05792  0.81180  0.59051  1.0000
  N   N3        1.0  0.10616  0.24146  0.27412  1.0000
  C   C19       1.0  0.11069  0.37160  0.26768  1.0000
  H   H11       1.0  0.10179  0.36270  0.20491  1.0000
  H   H12       1.0  0.11548  0.30867  0.37510  1.0000
  N   N4        1.0  0.11316  0.25179  0.42629  1.0000
  H   H13       1.0  0.11747  0.21059  0.57499  1.0000
  C   C20       1.0  0.11416  0.36461  0.42621  1.0000
  C   C21       1.0  0.10406  0.34698  0.51351  1.0000
  C   C22       1.0  0.09801  0.36567  0.59033  1.0000
  H   H14       1.0  0.11641  0.33324  0.53587  1.0000
  H   H15       1.0  0.09872  0.38916  0.57443  1.0000
  H   H16       1.0  0.10515  0.36207  0.65746  1.0000
  N   N5        1.0  0.10616  0.74145  0.27412  1.0000
  C   C23       1.0  0.11069  0.87160  0.26768  1.0000
  H   H17       1.0  0.10179  0.86269  0.20491  1.0000
  H   H18       1.0  0.11548  0.80866  0.37510  1.0000
  N   N6        1.0  0.11316  0.75179  0.42629  1.0000
  H   H19       1.0  0.11747  0.71059  0.57499  1.0000
  C   C24       1.0  0.11416  0.86461  0.42621  1.0000
  C   C25       1.0  0.10406  0.84698  0.51351  1.0000
  C   C26       1.0  0.09800  0.86567  0.59033  1.0000
  H   H20       1.0  0.11641  0.83324  0.53587  1.0000
  H   H21       1.0  0.09872  0.88916  0.57443  1.0000
  H   H22       1.0  0.10515  0.86207  0.65746  1.0000
  C   C27       1.0  0.48584  0.24338  0.30133  1.0000
  C   C28       1.0  0.43276  0.18981  0.33432  1.0000
  C   C29       1.0  0.46547  0.20723  0.29425  1.0000
  N   N7        1.0  0.47665  0.18936  0.24717  1.0000
  H   H23       1.0  0.99524  0.20063  0.20540  1.0000
  H   H24       1.0  0.46418  0.16512  0.24352  1.0000
  H   H25       1.0  0.51291  0.30470  0.20509  1.0000
  C   C30       1.0  0.26337  0.24382  0.30156  1.0000
  C   C31       1.0  0.31697  0.24439  0.33461  1.0000
  C   C32       1.0  0.29951  0.25962  0.29434  1.0000
  C   C33       1.0  0.24476  0.26169  0.30157  1.0000
  C   C34       1.0  0.20861  0.24588  0.29456  1.0000
  C   C35       1.0  0.19117  0.26105  0.33520  1.0000
  N   N8        1.0  0.31735  0.28862  0.24705  1.0000
  N   N9        1.0  0.19076  0.21694  0.24703  1.0000
  H   H26       1.0  0.30605  0.29588  0.20521  1.0000
  H   H27       1.0  0.34159  0.30040  0.24334  1.0000
  H   H28       1.0  0.16651  0.20502  0.24372  1.0000
  H   H29       1.0  0.20202  0.20958  0.20537  1.0000
  C   C36       1.0  0.26304  0.02099  0.30119  1.0000
  C   C37       1.0  0.26246  0.07400  0.33438  1.0000
  C   C38       1.0  0.24723  0.04133  0.29409  1.0000
  C   C39       1.0  0.24516  0.48451  0.30133  1.0000
  C   C40       1.0  0.26097  0.46416  0.29421  1.0000
  C   C41       1.0  0.24572  0.43147  0.33442  1.0000
  N   N10       1.0  0.21824  0.03018  0.24678  1.0000
  N   N11       1.0  0.29000  0.47534  0.24704  1.0000
  H   H30       1.0  0.21097  0.51160  0.20497  1.0000
  H   H31       1.0  0.20640  0.04258  0.24311  1.0000
  H   H32       1.0  0.30176  0.46287  0.24323  1.0000
  H   H33       1.0  0.29722  0.99386  0.20509  1.0000
  C   C42       1.0  0.13517  0.24049  0.26846  1.0000
  H   H34       1.0  0.14420  0.24083  0.20566  1.0000
  C   C43       1.0  0.26652  0.39619  0.26805  1.0000
  N   N12       1.0  0.26546  0.36617  0.27382  1.0000
  H   H35       1.0  0.26630  0.40492  0.20521  1.0000
  N   N13       1.0  0.14062  0.40066  0.27329  1.0000
  C   C44       1.0  0.37291  0.26493  0.26758  1.0000
  N   N14       1.0  0.40198  0.26406  0.27298  1.0000
  H   H36       1.0  0.36394  0.26487  0.20486  1.0000
  C   C45       1.0  0.24175  0.10939  0.26780  1.0000
  N   N15       1.0  0.24266  0.13933  0.27352  1.0000
  H   H37       1.0  0.24175  0.10052  0.20497  1.0000
  C   C46       1.0  0.39737  0.13371  0.26766  1.0000
  N   N16       1.0  0.36744  0.10465  0.27329  1.0000
  H   H38       1.0  0.40630  0.14266  0.20495  1.0000
  C   C47       1.0  0.46785  0.26039  0.32254  1.0000
  C   C48       1.0  0.43374  0.24373  0.34591  1.0000
  C   C49       1.0  0.41760  0.20891  0.35786  1.0000
  H   H39       1.0  0.47987  0.28569  0.33141  1.0000
  H   H40       1.0  0.39258  0.19670  0.37446  1.0000
  C   C50       1.0  0.24637  0.20883  0.32284  1.0000
  C   C51       1.0  0.26307  0.19143  0.34626  1.0000
  C   C52       1.0  0.29788  0.21014  0.35815  1.0000
  H   H41       1.0  0.22107  0.19555  0.33162  1.0000
  H   H42       1.0  0.31010  0.19736  0.37514  1.0000
  C   C53       1.0  0.21024  0.29530  0.35881  1.0000
  C   C54       1.0  0.24503  0.31405  0.34650  1.0000
  C   C55       1.0  0.26175  0.29668  0.32288  1.0000
  H   H43       1.0  0.19803  0.30806  0.37601  1.0000
  H   H44       1.0  0.28705  0.30999  0.33153  1.0000
  C   C56       1.0  0.29803  0.03899  0.32239  1.0000
  C   C57       1.0  0.31543  0.07308  0.34599  1.0000
  C   C58       1.0  0.29669  0.08916  0.35809  1.0000
  H   H45       1.0  0.31130  0.02698  0.33160  1.0000
  H   H46       1.0  0.30949  0.11416  0.37498  1.0000
  C   C59       1.0  0.21146  0.41631  0.35801  1.0000
  C   C60       1.0  0.19275  0.43239  0.34587  1.0000
  C   C61       1.0  0.21017  0.46651  0.32255  1.0000
  H   H47       1.0  0.19870  0.39131  0.37492  1.0000
  H   H48       1.0  0.19687  0.47851  0.33129  1.0000
  C   C62       1.0  0.14206  0.25074  0.42703  1.0000
  C   C63       1.0  0.15582  0.24709  0.34496  1.0000
  C   C64       1.0  0.15969  0.25816  0.51431  1.0000
  C   C65       1.0  0.14098  0.23334  0.59099  1.0000
  C   C66       1.0  0.17222  0.23497  0.54976  1.0000
  H   H49       1.0  0.17347  0.28421  0.53686  1.0000
  H   H50       1.0  0.19482  0.24704  0.59101  1.0000
  H   H51       1.0  0.16753  0.21361  0.50793  1.0000
  H   H52       1.0  0.14460  0.24402  0.65821  1.0000
  C   C67       1.0  0.25596  0.39273  0.42659  1.0000
  C   C68       1.0  0.25969  0.41010  0.34443  1.0000
  C   C69       1.0  0.26080  0.34925  0.35213  1.0000
  N   N17       1.0  0.25480  0.36273  0.42578  1.0000
  C   C70       1.0  0.24840  0.40288  0.51377  1.0000
  C   C71       1.0  0.27312  0.40896  0.59068  1.0000
  C   C72       1.0  0.27151  0.43857  0.54942  1.0000
  H   H53       1.0  0.22231  0.39056  0.53607  1.0000
  H   H54       1.0  0.25937  0.44907  0.59055  1.0000
  H   H55       1.0  0.29292  0.45529  0.50777  1.0000
  H   H56       1.0  0.29590  0.40823  0.57490  1.0000
  H   H57       1.0  0.26236  0.40185  0.65780  1.0000
  C   C73       1.0  0.15755  0.41297  0.35158  1.0000
  N   N18       1.0  0.14412  0.39350  0.42528  1.0000
  C   C74       1.0  0.36610  0.25464  0.42621  1.0000
  C   C75       1.0  0.35232  0.25829  0.34419  1.0000
  C   C76       1.0  0.41432  0.25954  0.35128  1.0000
  N   N19       1.0  0.39497  0.25355  0.42521  1.0000
  C   C77       1.0  0.34849  0.24711  0.51354  1.0000
  C   C78       1.0  0.36720  0.27186  0.59035  1.0000
  C   C79       1.0  0.33593  0.27022  0.54935  1.0000
  H   H58       1.0  0.33476  0.22103  0.53591  1.0000
  H   H59       1.0  0.31334  0.25809  0.59063  1.0000
  H   H60       1.0  0.34057  0.29161  0.50770  1.0000
  H   H61       1.0  0.39069  0.29464  0.57441  1.0000
  H   H62       1.0  0.36362  0.26112  0.65748  1.0000
  C   C80       1.0  0.25221  0.11278  0.42624  1.0000
  C   C81       1.0  0.24848  0.09537  0.34409  1.0000
  C   C82       1.0  0.24729  0.15623  0.35186  1.0000
  N   N20       1.0  0.25333  0.14276  0.42548  1.0000
  C   C83       1.0  0.25975  0.10264  0.51348  1.0000
  C   C84       1.0  0.23499  0.09655  0.59031  1.0000
  C   C85       1.0  0.23665  0.06695  0.54916  1.0000
  H   H63       1.0  0.28582  0.11500  0.53587  1.0000
  H   H64       1.0  0.24880  0.05649  0.59038  1.0000
  H   H65       1.0  0.21527  0.05021  0.50749  1.0000
  H   H66       1.0  0.21220  0.09724  0.57444  1.0000
  H   H67       1.0  0.24572  0.10368  0.65746  1.0000
  C   C86       1.0  0.39389  0.14082  0.42615  1.0000
  C   C87       1.0  0.41134  0.15446  0.34400  1.0000
  C   C88       1.0  0.35065  0.09249  0.35175  1.0000
  N   N21       1.0  0.36395  0.11191  0.42550  1.0000
  C   C89       1.0  0.40409  0.15851  0.51336  1.0000
  C   C90       1.0  0.41016  0.13983  0.59022  1.0000
  C   C91       1.0  0.43978  0.17105  0.54898  1.0000
  H   H68       1.0  0.39179  0.17228  0.53576  1.0000
  H   H69       1.0  0.45030  0.19367  0.59015  1.0000
  H   H70       1.0  0.45647  0.16634  0.50728  1.0000
  H   H71       1.0  0.40940  0.11631  0.57437  1.0000
  H   H72       1.0  0.40307  0.14348  0.65737  1.0000
  C   C92       1.0  0.48584  0.74338  0.30133  1.0000
  C   C93       1.0  0.43276  0.68981  0.33432  1.0000
  C   C94       1.0  0.46547  0.70723  0.29425  1.0000
  N   N22       1.0  0.47665  0.68936  0.24717  1.0000
  H   H73       1.0  0.99524  0.70063  0.20540  1.0000
  H   H74       1.0  0.46418  0.66512  0.24352  1.0000
  H   H75       1.0  0.51290  0.80470  0.20509  1.0000
  C   C95       1.0  0.26337  0.74382  0.30156  1.0000
  C   C96       1.0  0.31697  0.74439  0.33461  1.0000
  C   C97       1.0  0.29951  0.75962  0.29434  1.0000
  C   C98       1.0  0.24476  0.76169  0.30157  1.0000
  C   C99       1.0  0.20861  0.74588  0.29456  1.0000
  C   C100      1.0  0.19117  0.76105  0.33520  1.0000
  N   N23       1.0  0.31735  0.78862  0.24705  1.0000
  N   N24       1.0  0.19076  0.71694  0.24703  1.0000
  H   H76       1.0  0.30605  0.79588  0.20521  1.0000
  H   H77       1.0  0.34159  0.80040  0.24334  1.0000
  H   H78       1.0  0.16650  0.70502  0.24372  1.0000
  H   H79       1.0  0.20202  0.70958  0.20537  1.0000
  C   C101      1.0  0.26304  0.52099  0.30119  1.0000
  C   C102      1.0  0.26246  0.57400  0.33438  1.0000
  C   C103      1.0  0.24723  0.54133  0.29409  1.0000
  C   C104      1.0  0.24516  0.98451  0.30133  1.0000
  C   C105      1.0  0.26097  0.96416  0.29421  1.0000
  C   C106      1.0  0.24572  0.93147  0.33442  1.0000
  N   N25       1.0  0.21824  0.53018  0.24678  1.0000
  N   N26       1.0  0.29000  0.97534  0.24704  1.0000
  H   H80       1.0  0.21097  0.01161  0.20497  1.0000
  H   H81       1.0  0.20640  0.54258  0.24311  1.0000
  H   H82       1.0  0.30176  0.96287  0.24323  1.0000
  H   H83       1.0  0.29722  0.49387  0.20509  1.0000
  C   C107      1.0  0.13517  0.74049  0.26846  1.0000
  H   H84       1.0  0.14420  0.74083  0.20566  1.0000
  C   C108      1.0  0.26652  0.89619  0.26805  1.0000
  N   N27       1.0  0.26546  0.86617  0.27382  1.0000
  H   H85       1.0  0.26630  0.90492  0.20521  1.0000
  N   N28       1.0  0.14062  0.90065  0.27329  1.0000
  C   C109      1.0  0.37291  0.76493  0.26758  1.0000
  N   N29       1.0  0.40198  0.76406  0.27298  1.0000
  H   H86       1.0  0.36394  0.76487  0.20486  1.0000
  C   C110      1.0  0.24175  0.60938  0.26780  1.0000
  N   N30       1.0  0.24265  0.63933  0.27352  1.0000
  H   H87       1.0  0.24175  0.60052  0.20497  1.0000
  C   C111      1.0  0.39737  0.63371  0.26766  1.0000
  N   N31       1.0  0.36744  0.60465  0.27329  1.0000
  H   H88       1.0  0.40630  0.64266  0.20495  1.0000
  C   C112      1.0  0.46785  0.76039  0.32254  1.0000
  C   C113      1.0  0.43374  0.74373  0.34591  1.0000
  C   C114      1.0  0.41760  0.70891  0.35786  1.0000
  H   H89       1.0  0.47987  0.78569  0.33141  1.0000
  H   H90       1.0  0.39258  0.69670  0.37446  1.0000
  C   C115      1.0  0.24637  0.70883  0.32284  1.0000
  C   C116      1.0  0.26307  0.69142  0.34626  1.0000
  C   C117      1.0  0.29788  0.71014  0.35815  1.0000
  H   H91       1.0  0.22107  0.69555  0.33162  1.0000
  H   H92       1.0  0.31010  0.69736  0.37514  1.0000
  C   C118      1.0  0.21024  0.79530  0.35881  1.0000
  C   C119      1.0  0.24503  0.81405  0.34650  1.0000
  C   C120      1.0  0.26175  0.79668  0.32288  1.0000
  H   H93       1.0  0.19803  0.80806  0.37601  1.0000
  H   H94       1.0  0.28705  0.80998  0.33153  1.0000
  C   C121      1.0  0.29803  0.53899  0.32239  1.0000
  C   C122      1.0  0.31543  0.57308  0.34599  1.0000
  C   C123      1.0  0.29670  0.58916  0.35809  1.0000
  H   H95       1.0  0.31130  0.52697  0.33160  1.0000
  H   H96       1.0  0.30949  0.61416  0.37498  1.0000
  C   C124      1.0  0.21147  0.91631  0.35801  1.0000
  C   C125      1.0  0.19275  0.93239  0.34587  1.0000
  C   C126      1.0  0.21017  0.96651  0.32255  1.0000
  H   H97       1.0  0.19870  0.89131  0.37492  1.0000
  H   H98       1.0  0.19687  0.97851  0.33129  1.0000
  C   C127      1.0  0.14206  0.75074  0.42703  1.0000
  C   C128      1.0  0.15582  0.74709  0.34496  1.0000
  C   C129      1.0  0.15969  0.75815  0.51431  1.0000
  C   C130      1.0  0.14098  0.73334  0.59099  1.0000
  C   C131      1.0  0.17222  0.73497  0.54976  1.0000
  H   H99       1.0  0.17347  0.78421  0.53686  1.0000
  H   H100      1.0  0.19482  0.74703  0.59101  1.0000
  H   H101      1.0  0.16753  0.71361  0.50793  1.0000
  H   H102      1.0  0.14459  0.74402  0.65821  1.0000
  C   C132      1.0  0.25596  0.89273  0.42659  1.0000
  C   C133      1.0  0.25969  0.91010  0.34443  1.0000
  C   C134      1.0  0.26080  0.84925  0.35213  1.0000
  N   N32       1.0  0.25480  0.86273  0.42578  1.0000
  C   C135      1.0  0.24840  0.90288  0.51377  1.0000
  C   C136      1.0  0.27312  0.90896  0.59068  1.0000
  C   C137      1.0  0.27151  0.93857  0.54942  1.0000
  H   H103      1.0  0.22231  0.89056  0.53607  1.0000
  H   H104      1.0  0.25937  0.94907  0.59055  1.0000
  H   H105      1.0  0.29291  0.95528  0.50777  1.0000
  H   H106      1.0  0.29590  0.90823  0.57490  1.0000
  H   H107      1.0  0.26236  0.90185  0.65780  1.0000
  C   C138      1.0  0.15755  0.91297  0.35158  1.0000
  N   N33       1.0  0.14412  0.89350  0.42528  1.0000
  C   C139      1.0  0.36610  0.75464  0.42621  1.0000
  C   C140      1.0  0.35232  0.75829  0.34419  1.0000
  C   C141      1.0  0.41432  0.75954  0.35128  1.0000
  N   N34       1.0  0.39497  0.75354  0.42521  1.0000
  C   C142      1.0  0.34849  0.74711  0.51354  1.0000
  C   C143      1.0  0.36720  0.77186  0.59035  1.0000
  C   C144      1.0  0.33593  0.77022  0.54935  1.0000
  H   H108      1.0  0.33475  0.72103  0.53591  1.0000
  H   H109      1.0  0.31334  0.75808  0.59063  1.0000
  H   H110      1.0  0.34057  0.79161  0.50770  1.0000
  H   H111      1.0  0.39069  0.79464  0.57441  1.0000
  H   H112      1.0  0.36362  0.76112  0.65748  1.0000
  C   C145      1.0  0.25221  0.61278  0.42624  1.0000
  C   C146      1.0  0.24847  0.59537  0.34409  1.0000
  C   C147      1.0  0.24729  0.65623  0.35186  1.0000
  N   N35       1.0  0.25333  0.64276  0.42548  1.0000
  C   C148      1.0  0.25975  0.60264  0.51348  1.0000
  C   C149      1.0  0.23499  0.59655  0.59031  1.0000
  C   C150      1.0  0.23665  0.56695  0.54916  1.0000
  H   H113      1.0  0.28582  0.61500  0.53587  1.0000
  H   H114      1.0  0.24880  0.55649  0.59038  1.0000
  H   H115      1.0  0.21527  0.55021  0.50749  1.0000
  H   H116      1.0  0.21220  0.59724  0.57444  1.0000
  H   H117      1.0  0.24572  0.60368  0.65746  1.0000
  C   C151      1.0  0.39389  0.64082  0.42615  1.0000
  C   C152      1.0  0.41134  0.65446  0.34400  1.0000
  C   C153      1.0  0.35065  0.59249  0.35175  1.0000
  N   N36       1.0  0.36395  0.61191  0.42550  1.0000
  C   C154      1.0  0.40409  0.65851  0.51336  1.0000
  C   C155      1.0  0.41016  0.63983  0.59022  1.0000
  C   C156      1.0  0.43978  0.67105  0.54898  1.0000
  H   H118      1.0  0.39179  0.67228  0.53576  1.0000
  H   H119      1.0  0.45030  0.69367  0.59015  1.0000
  H   H120      1.0  0.45647  0.66634  0.50728  1.0000
  H   H121      1.0  0.40940  0.61631  0.57437  1.0000
  H   H122      1.0  0.40307  0.64348  0.65737  1.0000
  C   C157      1.0  0.98583  0.24338  0.30133  1.0000
  C   C158      1.0  0.93276  0.18981  0.33432  1.0000
  C   C159      1.0  0.96547  0.20723  0.29425  1.0000
  C   C160      1.0  0.52231  0.26196  0.30126  1.0000
  C   C161      1.0  0.54267  0.29811  0.29411  1.0000
  C   C162      1.0  0.57532  0.31555  0.33454  1.0000
  N   N37       1.0  0.97665  0.18936  0.24717  1.0000
  N   N38       1.0  0.53155  0.31596  0.24669  1.0000
  H   H123      1.0  0.49524  0.20063  0.20540  1.0000
  H   H124      1.0  0.96418  0.16512  0.24352  1.0000
  H   H125      1.0  0.54386  0.34021  0.24344  1.0000
  C   C163      1.0  0.76337  0.24382  0.30156  1.0000
  C   C164      1.0  0.81697  0.24439  0.33461  1.0000
  C   C165      1.0  0.79951  0.25962  0.29434  1.0000
  C   C166      1.0  0.74476  0.26169  0.30157  1.0000
  C   C167      1.0  0.70861  0.24588  0.29456  1.0000
  C   C168      1.0  0.69117  0.26105  0.33520  1.0000
  N   N39       1.0  0.81735  0.28862  0.24705  1.0000
  N   N40       1.0  0.69076  0.21694  0.24703  1.0000
  H   H126      1.0  0.80605  0.29588  0.20521  1.0000
  H   H127      1.0  0.84159  0.30040  0.24334  1.0000
  H   H128      1.0  0.66650  0.20502  0.24372  1.0000
  H   H129      1.0  0.70202  0.20958  0.20537  1.0000
  C   C169      1.0  0.76304  0.02099  0.30119  1.0000
  C   C170      1.0  0.76246  0.07400  0.33438  1.0000
  C   C171      1.0  0.74723  0.04133  0.29409  1.0000
  C   C172      1.0  0.74516  0.48451  0.30133  1.0000
  C   C173      1.0  0.76097  0.46416  0.29421  1.0000
  C   C174      1.0  0.74572  0.43147  0.33442  1.0000
  N   N41       1.0  0.71823  0.03018  0.24678  1.0000
  N   N42       1.0  0.79000  0.47534  0.24704  1.0000
  H   H130      1.0  0.71097  0.51160  0.20497  1.0000
  H   H131      1.0  0.70640  0.04258  0.24311  1.0000
  H   H132      1.0  0.80176  0.46287  0.24323  1.0000
  H   H133      1.0  0.79722  0.99386  0.20509  1.0000
  C   C175      1.0  0.63517  0.24049  0.26846  1.0000
  N   N43       1.0  0.60615  0.24146  0.27412  1.0000
  H   H134      1.0  0.64420  0.24083  0.20566  1.0000
  C   C176      1.0  0.76652  0.39619  0.26805  1.0000
  N   N44       1.0  0.76546  0.36617  0.27382  1.0000
  H   H135      1.0  0.76630  0.40492  0.20521  1.0000
  C   C177      1.0  0.61069  0.37160  0.26768  1.0000
  N   N45       1.0  0.64062  0.40066  0.27329  1.0000
  H   H136      1.0  0.60179  0.36270  0.20491  1.0000
  C   C178      1.0  0.87291  0.26493  0.26758  1.0000
  N   N46       1.0  0.90198  0.26406  0.27298  1.0000
  H   H137      1.0  0.86394  0.26487  0.20486  1.0000
  C   C179      1.0  0.74175  0.10939  0.26780  1.0000
  N   N47       1.0  0.74265  0.13933  0.27352  1.0000
  H   H138      1.0  0.74175  0.10052  0.20497  1.0000
  C   C180      1.0  0.89737  0.13371  0.26766  1.0000
  N   N48       1.0  0.86745  0.10465  0.27329  1.0000
  H   H139      1.0  0.90630  0.14266  0.20495  1.0000
  C   C181      1.0  0.96785  0.26039  0.32254  1.0000
  C   C182      1.0  0.93373  0.24373  0.34591  1.0000
  C   C183      1.0  0.91760  0.20891  0.35786  1.0000
  H   H140      1.0  0.97987  0.28569  0.33141  1.0000
  H   H141      1.0  0.89258  0.19670  0.37446  1.0000
  C   C184      1.0  0.59051  0.29648  0.35800  1.0000
  C   C185      1.0  0.57442  0.26167  0.34599  1.0000
  C   C186      1.0  0.54029  0.24496  0.32269  1.0000
  H   H142      1.0  0.61548  0.30867  0.37510  1.0000
  H   H143      1.0  0.52825  0.21969  0.33211  1.0000
  C   C187      1.0  0.74637  0.20883  0.32284  1.0000
  C   C188      1.0  0.76307  0.19143  0.34626  1.0000
  C   C189      1.0  0.79788  0.21014  0.35815  1.0000
  H   H144      1.0  0.72107  0.19555  0.33162  1.0000
  H   H145      1.0  0.81010  0.19736  0.37514  1.0000
  C   C190      1.0  0.71024  0.29530  0.35881  1.0000
  C   C191      1.0  0.74503  0.31405  0.34650  1.0000
  C   C192      1.0  0.76175  0.29668  0.32288  1.0000
  H   H146      1.0  0.69803  0.30806  0.37601  1.0000
  H   H147      1.0  0.78705  0.30999  0.33153  1.0000
  C   C193      1.0  0.79803  0.03899  0.32239  1.0000
  C   C194      1.0  0.81542  0.07308  0.34599  1.0000
  C   C195      1.0  0.79670  0.08916  0.35809  1.0000
  H   H148      1.0  0.81130  0.02698  0.33160  1.0000
  H   H149      1.0  0.80949  0.11416  0.37498  1.0000
  C   C196      1.0  0.71146  0.41631  0.35801  1.0000
  C   C197      1.0  0.69275  0.43239  0.34587  1.0000
  C   C198      1.0  0.71017  0.46651  0.32255  1.0000
  H   H150      1.0  0.69870  0.39131  0.37492  1.0000
  H   H151      1.0  0.69687  0.47851  0.33129  1.0000
  C   C199      1.0  0.64206  0.25074  0.42703  1.0000
  C   C200      1.0  0.65582  0.24709  0.34496  1.0000
  C   C201      1.0  0.59375  0.24582  0.35260  1.0000
  N   N49       1.0  0.61316  0.25179  0.42629  1.0000
  C   C202      1.0  0.65969  0.25816  0.51431  1.0000
  C   C203      1.0  0.64098  0.23334  0.59099  1.0000
  C   C204      1.0  0.67222  0.23497  0.54976  1.0000
  H   H152      1.0  0.67347  0.28421  0.53686  1.0000
  H   H153      1.0  0.69482  0.24704  0.59101  1.0000
  H   H154      1.0  0.66753  0.21361  0.50793  1.0000
  H   H155      1.0  0.61747  0.21059  0.57499  1.0000
  H   H156      1.0  0.64459  0.24402  0.65821  1.0000
  C   C205      1.0  0.75596  0.39273  0.42659  1.0000
  C   C206      1.0  0.75969  0.41010  0.34443  1.0000
  C   C207      1.0  0.76080  0.34925  0.35213  1.0000
  N   N50       1.0  0.75480  0.36273  0.42578  1.0000
  C   C208      1.0  0.74840  0.40288  0.51377  1.0000
  C   C209      1.0  0.77312  0.40896  0.59068  1.0000
  C   C210      1.0  0.77151  0.43857  0.54942  1.0000
  H   H157      1.0  0.72231  0.39056  0.53607  1.0000
  H   H158      1.0  0.75937  0.44907  0.59055  1.0000
  H   H159      1.0  0.79291  0.45529  0.50777  1.0000
  H   H160      1.0  0.79590  0.40823  0.57490  1.0000
  H   H161      1.0  0.76236  0.40185  0.65780  1.0000
  C   C211      1.0  0.61416  0.36461  0.42621  1.0000
  C   C212      1.0  0.59677  0.35091  0.34410  1.0000
  C   C213      1.0  0.65755  0.41297  0.35158  1.0000
  N   N51       1.0  0.64412  0.39350  0.42528  1.0000
  C   C214      1.0  0.60406  0.34698  0.51351  1.0000
  C   C215      1.0  0.59800  0.36567  0.59033  1.0000
  C   C216      1.0  0.56838  0.33441  0.54926  1.0000
  H   H162      1.0  0.61641  0.33324  0.53587  1.0000
  H   H163      1.0  0.55792  0.31180  0.59051  1.0000
  H   H164      1.0  0.55165  0.33906  0.50761  1.0000
  H   H165      1.0  0.59871  0.38916  0.57443  1.0000
  H   H166      1.0  0.60515  0.36207  0.65746  1.0000
  C   C217      1.0  0.86610  0.25464  0.42621  1.0000
  C   C218      1.0  0.85232  0.25829  0.34419  1.0000
  C   C219      1.0  0.91432  0.25954  0.35128  1.0000
  N   N52       1.0  0.89497  0.25355  0.42521  1.0000
  C   C220      1.0  0.84849  0.24711  0.51354  1.0000
  C   C221      1.0  0.86720  0.27186  0.59035  1.0000
  C   C222      1.0  0.83593  0.27022  0.54935  1.0000
  H   H167      1.0  0.83475  0.22103  0.53591  1.0000
  H   H168      1.0  0.81334  0.25809  0.59063  1.0000
  H   H169      1.0  0.84057  0.29161  0.50770  1.0000
  H   H170      1.0  0.89069  0.29464  0.57441  1.0000
  H   H171      1.0  0.86362  0.26112  0.65748  1.0000
  C   C223      1.0  0.75221  0.11278  0.42624  1.0000
  C   C224      1.0  0.74848  0.09537  0.34409  1.0000
  C   C225      1.0  0.74729  0.15623  0.35186  1.0000
  N   N53       1.0  0.75333  0.14276  0.42548  1.0000
  C   C226      1.0  0.75975  0.10264  0.51348  1.0000
  C   C227      1.0  0.73499  0.09655  0.59031  1.0000
  C   C228      1.0  0.73665  0.06695  0.54916  1.0000
  H   H172      1.0  0.78582  0.11500  0.53587  1.0000
  H   H173      1.0  0.74880  0.05649  0.59038  1.0000
  H   H174      1.0  0.71527  0.05021  0.50749  1.0000
  H   H175      1.0  0.71220  0.09724  0.57444  1.0000
  H   H176      1.0  0.74572  0.10368  0.65746  1.0000
  C   C229      1.0  0.89389  0.14082  0.42615  1.0000
  C   C230      1.0  0.91134  0.15446  0.34400  1.0000
  C   C231      1.0  0.85065  0.09249  0.35175  1.0000
  N   N54       1.0  0.86395  0.11191  0.42550  1.0000
  C   C232      1.0  0.90409  0.15851  0.51336  1.0000
  C   C233      1.0  0.91016  0.13983  0.59022  1.0000
  C   C234      1.0  0.93978  0.17105  0.54898  1.0000
  H   H177      1.0  0.89179  0.17228  0.53576  1.0000
  H   H178      1.0  0.95030  0.19367  0.59015  1.0000
  H   H179      1.0  0.95647  0.16634  0.50728  1.0000
  H   H180      1.0  0.90940  0.11631  0.57437  1.0000
  H   H181      1.0  0.90307  0.14348  0.65737  1.0000
  C   C235      1.0  0.98584  0.74338  0.30133  1.0000
  C   C236      1.0  0.93276  0.68981  0.33432  1.0000
  C   C237      1.0  0.96547  0.70723  0.29425  1.0000
  C   C238      1.0  0.52231  0.76196  0.30126  1.0000
  C   C239      1.0  0.54267  0.79811  0.29411  1.0000
  C   C240      1.0  0.57532  0.81555  0.33454  1.0000
  N   N55       1.0  0.97665  0.68936  0.24717  1.0000
  N   N56       1.0  0.53155  0.81596  0.24669  1.0000
  H   H182      1.0  0.49524  0.70063  0.20540  1.0000
  H   H183      1.0  0.96418  0.66512  0.24352  1.0000
  H   H184      1.0  0.54386  0.84021  0.24344  1.0000
  C   C241      1.0  0.76337  0.74382  0.30156  1.0000
  C   C242      1.0  0.81697  0.74439  0.33461  1.0000
  C   C243      1.0  0.79951  0.75962  0.29434  1.0000
  C   C244      1.0  0.74476  0.76169  0.30157  1.0000
  C   C245      1.0  0.70861  0.74588  0.29456  1.0000
  C   C246      1.0  0.69117  0.76105  0.33520  1.0000
  N   N57       1.0  0.81735  0.78862  0.24705  1.0000
  N   N58       1.0  0.69076  0.71694  0.24703  1.0000
  H   H185      1.0  0.80605  0.79588  0.20521  1.0000
  H   H186      1.0  0.84159  0.80040  0.24334  1.0000
  H   H187      1.0  0.66650  0.70502  0.24372  1.0000
  H   H188      1.0  0.70202  0.70958  0.20537  1.0000
  C   C247      1.0  0.76304  0.52099  0.30119  1.0000
  C   C248      1.0  0.76246  0.57400  0.33438  1.0000
  C   C249      1.0  0.74723  0.54133  0.29409  1.0000
  C   C250      1.0  0.74516  0.98451  0.30133  1.0000
  C   C251      1.0  0.76097  0.96416  0.29421  1.0000
  C   C252      1.0  0.74572  0.93147  0.33442  1.0000
  N   N59       1.0  0.71823  0.53018  0.24678  1.0000
  N   N60       1.0  0.79000  0.97534  0.24704  1.0000
  H   H189      1.0  0.71097  0.01161  0.20497  1.0000
  H   H190      1.0  0.70640  0.54258  0.24311  1.0000
  H   H191      1.0  0.80176  0.96287  0.24323  1.0000
  H   H192      1.0  0.79722  0.49387  0.20509  1.0000
  C   C253      1.0  0.63517  0.74049  0.26846  1.0000
  N   N61       1.0  0.60615  0.74145  0.27412  1.0000
  H   H193      1.0  0.64420  0.74083  0.20566  1.0000
  C   C254      1.0  0.76652  0.89619  0.26805  1.0000
  N   N62       1.0  0.76546  0.86617  0.27382  1.0000
  H   H194      1.0  0.76630  0.90492  0.20521  1.0000
  C   C255      1.0  0.61069  0.87160  0.26768  1.0000
  N   N63       1.0  0.64062  0.90065  0.27329  1.0000
  H   H195      1.0  0.60179  0.86269  0.20491  1.0000
  C   C256      1.0  0.87291  0.76493  0.26758  1.0000
  N   N64       1.0  0.90198  0.76406  0.27298  1.0000
  H   H196      1.0  0.86394  0.76487  0.20486  1.0000
  C   C257      1.0  0.74175  0.60938  0.26780  1.0000
  N   N65       1.0  0.74266  0.63933  0.27352  1.0000
  H   H197      1.0  0.74175  0.60052  0.20497  1.0000
  C   C258      1.0  0.89737  0.63371  0.26766  1.0000
  N   N66       1.0  0.86744  0.60465  0.27329  1.0000
  H   H198      1.0  0.90630  0.64266  0.20495  1.0000
  C   C259      1.0  0.96785  0.76039  0.32254  1.0000
  C   C260      1.0  0.93373  0.74373  0.34591  1.0000
  C   C261      1.0  0.91760  0.70891  0.35786  1.0000
  H   H199      1.0  0.97987  0.78569  0.33141  1.0000
  H   H200      1.0  0.89257  0.69670  0.37446  1.0000
  C   C262      1.0  0.59051  0.79648  0.35800  1.0000
  C   C263      1.0  0.57441  0.76167  0.34599  1.0000
  C   C264      1.0  0.54029  0.74496  0.32269  1.0000
  H   H201      1.0  0.61548  0.80866  0.37510  1.0000
  H   H202      1.0  0.52825  0.71969  0.33211  1.0000
  C   C265      1.0  0.74637  0.70883  0.32284  1.0000
  C   C266      1.0  0.76306  0.69142  0.34626  1.0000
  C   C267      1.0  0.79788  0.71014  0.35815  1.0000
  H   H203      1.0  0.72107  0.69555  0.33162  1.0000
  H   H204      1.0  0.81010  0.69736  0.37514  1.0000
  C   C268      1.0  0.71024  0.79530  0.35881  1.0000
  C   C269      1.0  0.74503  0.81405  0.34650  1.0000
  C   C270      1.0  0.76175  0.79668  0.32288  1.0000
  H   H205      1.0  0.69803  0.80806  0.37601  1.0000
  H   H206      1.0  0.78705  0.80998  0.33153  1.0000
  C   C271      1.0  0.79803  0.53899  0.32239  1.0000
  C   C272      1.0  0.81542  0.57308  0.34599  1.0000
  C   C273      1.0  0.79670  0.58916  0.35809  1.0000
  H   H207      1.0  0.81130  0.52697  0.33160  1.0000
  H   H208      1.0  0.80949  0.61416  0.37498  1.0000
  C   C274      1.0  0.71147  0.91631  0.35801  1.0000
  C   C275      1.0  0.69275  0.93239  0.34587  1.0000
  C   C276      1.0  0.71017  0.96651  0.32255  1.0000
  H   H209      1.0  0.69870  0.89131  0.37492  1.0000
  H   H210      1.0  0.69687  0.97851  0.33129  1.0000
  C   C277      1.0  0.64206  0.75074  0.42703  1.0000
  C   C278      1.0  0.65582  0.74709  0.34496  1.0000
  C   C279      1.0  0.59375  0.74582  0.35260  1.0000
  N   N67       1.0  0.61316  0.75179  0.42629  1.0000
  C   C280      1.0  0.65969  0.75815  0.51431  1.0000
  C   C281      1.0  0.64098  0.73334  0.59099  1.0000
  C   C282      1.0  0.67222  0.73497  0.54976  1.0000
  H   H211      1.0  0.67347  0.78421  0.53686  1.0000
  H   H212      1.0  0.69482  0.74703  0.59101  1.0000
  H   H213      1.0  0.66753  0.71361  0.50793  1.0000
  H   H214      1.0  0.61747  0.71059  0.57499  1.0000
  H   H215      1.0  0.64459  0.74402  0.65821  1.0000
  C   C283      1.0  0.75596  0.89273  0.42659  1.0000
  C   C284      1.0  0.75969  0.91010  0.34443  1.0000
  C   C285      1.0  0.76080  0.84925  0.35213  1.0000
  N   N68       1.0  0.75480  0.86273  0.42578  1.0000
  C   C286      1.0  0.74840  0.90288  0.51377  1.0000
  C   C287      1.0  0.77312  0.90896  0.59068  1.0000
  C   C288      1.0  0.77151  0.93857  0.54942  1.0000
  H   H216      1.0  0.72231  0.89056  0.53607  1.0000
  H   H217      1.0  0.75937  0.94907  0.59055  1.0000
  H   H218      1.0  0.79291  0.95528  0.50777  1.0000
  H   H219      1.0  0.79590  0.90823  0.57490  1.0000
  H   H220      1.0  0.76236  0.90185  0.65780  1.0000
  C   C289      1.0  0.61416  0.86461  0.42621  1.0000
  C   C290      1.0  0.59677  0.85091  0.34410  1.0000
  C   C291      1.0  0.65755  0.91297  0.35158  1.0000
  N   N69       1.0  0.64412  0.89350  0.42528  1.0000
  C   C292      1.0  0.60406  0.84698  0.51351  1.0000
  C   C293      1.0  0.59800  0.86567  0.59033  1.0000
  C   C294      1.0  0.56838  0.83441  0.54926  1.0000
  H   H221      1.0  0.61641  0.83324  0.53587  1.0000
  H   H222      1.0  0.55792  0.81180  0.59051  1.0000
  H   H223      1.0  0.55165  0.83906  0.50761  1.0000
  H   H224      1.0  0.59872  0.88916  0.57443  1.0000
  H   H225      1.0  0.60515  0.86207  0.65746  1.0000
  C   C295      1.0  0.86610  0.75464  0.42621  1.0000
  C   C296      1.0  0.85232  0.75829  0.34419  1.0000
  C   C297      1.0  0.91432  0.75954  0.35128  1.0000
  N   N70       1.0  0.89497  0.75354  0.42521  1.0000
  C   C298      1.0  0.84849  0.74711  0.51354  1.0000
  C   C299      1.0  0.86720  0.77186  0.59035  1.0000
  C   C300      1.0  0.83593  0.77022  0.54935  1.0000
  H   H226      1.0  0.83475  0.72103  0.53591  1.0000
  H   H227      1.0  0.81334  0.75808  0.59063  1.0000
  H   H228      1.0  0.84057  0.79161  0.50770  1.0000
  H   H229      1.0  0.89069  0.79464  0.57441  1.0000
  H   H230      1.0  0.86362  0.76112  0.65748  1.0000
  C   C301      1.0  0.75220  0.61278  0.42624  1.0000
  C   C302      1.0  0.74848  0.59537  0.34409  1.0000
  C   C303      1.0  0.74729  0.65623  0.35186  1.0000
  N   N71       1.0  0.75333  0.64276  0.42548  1.0000
  C   C304      1.0  0.75975  0.60264  0.51348  1.0000
  C   C305      1.0  0.73499  0.59655  0.59031  1.0000
  C   C306      1.0  0.73665  0.56695  0.54916  1.0000
  H   H231      1.0  0.78582  0.61500  0.53587  1.0000
  H   H232      1.0  0.74880  0.55649  0.59038  1.0000
  H   H233      1.0  0.71527  0.55021  0.50749  1.0000
  H   H234      1.0  0.71220  0.59724  0.57444  1.0000
  H   H235      1.0  0.74572  0.60368  0.65746  1.0000
  C   C307      1.0  0.89389  0.64082  0.42615  1.0000
  C   C308      1.0  0.91134  0.65446  0.34400  1.0000
  C   C309      1.0  0.85065  0.59249  0.35175  1.0000
  N   N72       1.0  0.86395  0.61191  0.42550  1.0000
  C   C310      1.0  0.90409  0.65851  0.51336  1.0000
  C   C311      1.0  0.91016  0.63983  0.59022  1.0000
  C   C312      1.0  0.93978  0.67105  0.54898  1.0000
  H   H236      1.0  0.89179  0.67228  0.53576  1.0000
  H   H237      1.0  0.95030  0.69367  0.59015  1.0000
  H   H238      1.0  0.95647  0.66634  0.50728  1.0000
  H   H239      1.0  0.90940  0.61631  0.57437  1.0000
  H   H240      1.0  0.90307  0.64348  0.65737  1.0000
