data_image0
_chemical_formula_structural       CNCHNHCNCHNHCNCHNHCNCHNHCNCHNHCNCHNHC4HC6HOHOHC4HC6HOHOHC4HC6HOHOHC4HC6HOHOHC4HC6HOHOHC4HC6HOHOHC4HC6HOHOHC4HC6HOHOHC4HC6HOHOHC4HC6HOHOHC4HC6HOHOHC4HC6HOHOHCNCNCNCNCNCNCNCNCNCNCNCNCNCNCNCNCNCNCNCNCNCNCNCNCNCNCNCNCNCNCNCNCNCNCNCNC4HC6HOHOHC4HC6HOHOHC4HC6HOHOHC4HC6HOHOHC4HC6HOHOHC4HC6HOHOHCNCHNHCNCHNHCNCHNHCNCHNHCNCHNHCNCHNHCNCHNHCNCHNHCNCHNHCNCHNHCNCHNHCNCHNH
_chemical_formula_sum              "C252 N72 H108 O36"
_cell_length_a       55.8809
_cell_length_b       55.8809
_cell_length_c       14.9574
_cell_angle_alpha    90
_cell_angle_beta     90
_cell_angle_gamma    120

_space_group_name_H-M_alt    "P 1"
_space_group_IT_number       1

loop_
  _space_group_symop_operation_xyz
  'x, y, z'

loop_
  _atom_site_type_symbol
  _atom_site_label
  _atom_site_symmetry_multiplicity
  _atom_site_fract_x
  _atom_site_fract_y
  _atom_site_fract_z
  _atom_site_occupancy
  C   C1        1.0  0.14786  0.33421  0.32802  1.0000
  N   N1        1.0  0.16294  0.36223  0.32963  1.0000
  C   C2        1.0  0.20498  0.44840  0.32928  1.0000
  H   H1        1.0  0.12698  0.32517  0.31946  1.0000
  N   N2        1.0  0.19203  0.42038  0.33022  1.0000
  H   H2        1.0  0.19312  0.45742  0.32094  1.0000
  C   C3        1.0  0.66347  0.80849  0.32782  1.0000
  N   N3        1.0  0.63546  0.79555  0.32939  1.0000
  C   C4        1.0  0.54929  0.75142  0.32900  1.0000
  H   H3        1.0  0.67251  0.79665  0.31920  1.0000
  N   N4        1.0  0.57730  0.76648  0.32995  1.0000
  H   H4        1.0  0.54026  0.73054  0.32061  1.0000
  C   C5        1.0  0.18920  0.84986  0.32783  1.0000
  N   N5        1.0  0.20214  0.83478  0.32940  1.0000
  C   C6        1.0  0.24627  0.79274  0.32911  1.0000
  H   H5        1.0  0.20104  0.87074  0.31923  1.0000
  N   N6        1.0  0.23120  0.80569  0.33001  1.0000
  H   H6        1.0  0.26716  0.80461  0.32082  1.0000
  C   C7        1.0  0.85252  0.66084  0.32798  1.0000
  N   N7        1.0  0.83745  0.63282  0.32960  1.0000
  C   C8        1.0  0.79543  0.54666  0.32937  1.0000
  H   H7        1.0  0.87340  0.66988  0.31942  1.0000
  N   N8        1.0  0.80837  0.57467  0.33026  1.0000
  H   H8        1.0  0.80729  0.53764  0.32104  1.0000
  C   C9        1.0  0.33689  0.18655  0.32802  1.0000
  N   N9        1.0  0.36491  0.19949  0.32963  1.0000
  C   C10       1.0  0.45108  0.24362  0.32931  1.0000
  H   H9        1.0  0.32786  0.19839  0.31945  1.0000
  N   N10       1.0  0.42307  0.22855  0.33024  1.0000
  H   H10       1.0  0.46010  0.26450  0.32100  1.0000
  C   C11       1.0  0.81116  0.14519  0.32806  1.0000
  N   N11       1.0  0.79821  0.16026  0.32966  1.0000
  C   C12       1.0  0.75408  0.20230  0.32927  1.0000
  H   H11       1.0  0.79932  0.12431  0.31947  1.0000
  N   N12       1.0  0.76915  0.18935  0.33024  1.0000
  H   H12       1.0  0.73320  0.19043  0.32089  1.0000
  C   C13       1.0  0.23424  0.15864  0.32913  1.0000
  C   C14       1.0  0.20545  0.18846  0.32717  1.0000
  C   C15       1.0  0.23473  0.20311  0.32016  1.0000
  C   C16       1.0  0.24865  0.18782  0.32154  1.0000
  H   H13       1.0  0.26972  0.19823  0.31652  1.0000
  C   C17       1.0  0.19073  0.20295  0.32734  1.0000
  C   C18       1.0  0.16054  0.23136  0.32986  1.0000
  C   C19       1.0  0.18973  0.24594  0.32219  1.0000
  C   C20       1.0  0.20520  0.23222  0.32051  1.0000
  C   C21       1.0  0.23435  0.24674  0.31227  1.0000
  C   C22       1.0  0.24903  0.23226  0.31208  1.0000
  H   H14       1.0  0.20004  0.26702  0.31723  1.0000
  O   O1        1.0  0.24890  0.27484  0.30699  1.0000
  H   H15       1.0  0.25018  0.27939  0.24301  1.0000
  O   O2        1.0  0.27713  0.24698  0.30660  1.0000
  H   H16       1.0  0.28163  0.24848  0.24254  1.0000
  C   C23       1.0  0.83907  0.07045  0.32915  1.0000
  C   C24       1.0  0.80924  0.01184  0.32717  1.0000
  C   C25       1.0  0.79459  0.02647  0.32017  1.0000
  C   C26       1.0  0.80988  0.05568  0.32156  1.0000
  H   H17       1.0  0.79948  0.06635  0.31654  1.0000
  C   C27       1.0  0.79474  0.98262  0.32731  1.0000
  C   C28       1.0  0.76632  0.92402  0.32978  1.0000
  C   C29       1.0  0.75175  0.93865  0.32213  1.0000
  C   C30       1.0  0.76547  0.96783  0.32047  1.0000
  C   C31       1.0  0.75096  0.98248  0.31224  1.0000
  C   C32       1.0  0.76544  0.01163  0.31208  1.0000
  H   H18       1.0  0.73067  0.92788  0.31717  1.0000
  O   O3        1.0  0.72286  0.96892  0.30695  1.0000
  H   H19       1.0  0.71831  0.96566  0.24297  1.0000
  O   O4        1.0  0.75072  0.02501  0.30660  1.0000
  H   H20       1.0  0.74923  0.02801  0.24254  1.0000
  C   C33       1.0  0.92725  0.76350  0.32908  1.0000
  C   C34       1.0  0.98585  0.79227  0.32711  1.0000
  C   C35       1.0  0.97123  0.76300  0.32014  1.0000
  C   C36       1.0  0.94202  0.74908  0.32152  1.0000
  H   H21       1.0  0.93135  0.72800  0.31654  1.0000
  C   C37       1.0  0.01507  0.80699  0.32725  1.0000
  C   C38       1.0  0.07367  0.83718  0.32973  1.0000
  C   C39       1.0  0.05905  0.80798  0.32213  1.0000
  C   C40       1.0  0.02986  0.79251  0.32047  1.0000
  C   C41       1.0  0.01523  0.76336  0.31228  1.0000
  C   C42       1.0  0.98607  0.74869  0.31209  1.0000
  H   H22       1.0  0.06982  0.79767  0.31719  1.0000
  O   O5        1.0  0.02878  0.74882  0.30702  1.0000
  H   H23       1.0  0.03204  0.74752  0.24305  1.0000
  O   O6        1.0  0.97270  0.72059  0.30666  1.0000
  H   H24       1.0  0.96969  0.71608  0.24261  1.0000
  C   C43       1.0  0.76613  0.83641  0.32905  1.0000
  C   C44       1.0  0.79491  0.80659  0.32709  1.0000
  C   C45       1.0  0.76564  0.79194  0.32009  1.0000
  C   C46       1.0  0.75172  0.80723  0.32146  1.0000
  H   H25       1.0  0.73064  0.79682  0.31645  1.0000
  C   C47       1.0  0.80963  0.79209  0.32725  1.0000
  C   C48       1.0  0.83982  0.76368  0.32977  1.0000
  C   C49       1.0  0.81063  0.74910  0.32211  1.0000
  C   C50       1.0  0.79516  0.76282  0.32044  1.0000
  C   C51       1.0  0.76601  0.74831  0.31220  1.0000
  C   C52       1.0  0.75133  0.76279  0.31201  1.0000
  H   H26       1.0  0.80032  0.72803  0.31717  1.0000
  O   O7        1.0  0.75146  0.72020  0.30694  1.0000
  H   H27       1.0  0.75018  0.71565  0.24297  1.0000
  O   O8        1.0  0.72323  0.74806  0.30656  1.0000
  H   H28       1.0  0.71873  0.74656  0.24250  1.0000
  C   C53       1.0  0.16129  0.92460  0.32903  1.0000
  C   C54       1.0  0.19113  0.98321  0.32711  1.0000
  C   C55       1.0  0.20577  0.96858  0.32012  1.0000
  C   C56       1.0  0.19048  0.93937  0.32147  1.0000
  H   H29       1.0  0.20088  0.92870  0.31648  1.0000
  C   C57       1.0  0.20563  0.01243  0.32729  1.0000
  C   C58       1.0  0.23404  0.07103  0.32983  1.0000
  C   C59       1.0  0.24862  0.05640  0.32220  1.0000
  C   C60       1.0  0.23490  0.02721  0.32051  1.0000
  C   C61       1.0  0.24941  0.01257  0.31229  1.0000
  C   C62       1.0  0.23492  0.98342  0.31208  1.0000
  H   H30       1.0  0.26970  0.06717  0.31727  1.0000
  O   O9        1.0  0.27751  0.02613  0.30706  1.0000
  H   H31       1.0  0.28207  0.02940  0.24308  1.0000
  O   O10       1.0  0.24964  0.97004  0.30663  1.0000
  H   H32       1.0  0.25115  0.96704  0.24257  1.0000
  C   C63       1.0  0.07311  0.23155  0.32917  1.0000
  C   C64       1.0  0.01451  0.20278  0.32721  1.0000
  C   C65       1.0  0.02913  0.23205  0.32021  1.0000
  C   C66       1.0  0.05834  0.24597  0.32158  1.0000
  H   H33       1.0  0.06901  0.26704  0.31656  1.0000
  C   C67       1.0  0.98529  0.18806  0.32737  1.0000
  C   C68       1.0  0.92669  0.15787  0.32987  1.0000
  C   C69       1.0  0.94131  0.18707  0.32221  1.0000
  C   C70       1.0  0.97050  0.20253  0.32054  1.0000
  C   C71       1.0  0.98513  0.23168  0.31230  1.0000
  C   C72       1.0  0.01429  0.24636  0.31213  1.0000
  H   H34       1.0  0.93054  0.19737  0.31726  1.0000
  O   O11       1.0  0.97158  0.24623  0.30702  1.0000
  H   H35       1.0  0.96831  0.24751  0.24303  1.0000
  O   O12       1.0  0.02767  0.27445  0.30664  1.0000
  H   H36       1.0  0.03067  0.27896  0.24257  1.0000
  C   C73       1.0  0.23701  0.67850  0.33671  1.0000
  C   C74       1.0  0.22881  0.62458  0.33308  1.0000
  C   C75       1.0  0.22897  0.63751  0.25106  1.0000
  C   C76       1.0  0.23316  0.66467  0.25434  1.0000
  H   H37       1.0  0.23549  0.67527  0.19611  1.0000
  C   C77       1.0  0.22827  0.59906  0.33287  1.0000
  C   C78       1.0  0.23475  0.55228  0.33569  1.0000
  C   C79       1.0  0.23129  0.56265  0.25352  1.0000
  C   C80       1.0  0.22798  0.58616  0.25066  1.0000
  C   C81       1.0  0.22660  0.59833  0.16916  1.0000
  C   C82       1.0  0.22705  0.62384  0.16936  1.0000
  H   H38       1.0  0.23367  0.55448  0.19515  1.0000
  O   O13       1.0  0.22701  0.58693  0.08908  1.0000
  H   H39       1.0  0.20760  0.57391  0.07406  1.0000
  O   O14       1.0  0.22791  0.63594  0.08946  1.0000
  H   H40       1.0  0.20866  0.63030  0.07469  1.0000
  C   C83       1.0  0.31924  0.55339  0.33616  1.0000
  C   C84       1.0  0.37312  0.59907  0.33256  1.0000
  C   C85       1.0  0.36018  0.58633  0.25051  1.0000
  C   C86       1.0  0.33303  0.56334  0.25374  1.0000
  H   H41       1.0  0.32239  0.55511  0.19554  1.0000
  C   C87       1.0  0.39863  0.62406  0.33237  1.0000
  C   C88       1.0  0.44537  0.67730  0.33530  1.0000
  C   C89       1.0  0.43499  0.66355  0.25306  1.0000
  C   C90       1.0  0.41152  0.63670  0.25015  1.0000
  C   C91       1.0  0.39935  0.62317  0.16864  1.0000
  C   C92       1.0  0.37384  0.59811  0.16882  1.0000
  H   H42       1.0  0.44322  0.67410  0.19471  1.0000
  O   O15       1.0  0.41071  0.63501  0.08857  1.0000
  H   H43       1.0  0.42376  0.62867  0.07344  1.0000
  O   O16       1.0  0.36173  0.58689  0.08891  1.0000
  H   H44       1.0  0.36738  0.57329  0.07404  1.0000
  C   C93       1.0  0.44432  0.76071  0.33628  1.0000
  C   C94       1.0  0.39863  0.76892  0.33318  1.0000
  C   C95       1.0  0.41147  0.76897  0.25108  1.0000
  C   C96       1.0  0.43445  0.76480  0.25408  1.0000
  H   H45       1.0  0.44273  0.76254  0.19577  1.0000
  C   C97       1.0  0.37364  0.76945  0.33317  1.0000
  C   C98       1.0  0.32039  0.76297  0.33619  1.0000
  C   C99       1.0  0.33426  0.76661  0.25402  1.0000
  C   C100      1.0  0.36109  0.76995  0.25105  1.0000
  C   C101      1.0  0.37471  0.77154  0.16951  1.0000
  C   C102      1.0  0.39976  0.77108  0.16953  1.0000
  H   H46       1.0  0.32375  0.76442  0.19568  1.0000
  O   O17       1.0  0.36295  0.77130  0.08950  1.0000
  H   H47       1.0  0.36933  0.79074  0.07498  1.0000
  O   O18       1.0  0.41107  0.77042  0.08953  1.0000
  H   H48       1.0  0.42469  0.78971  0.07524  1.0000
  C   C103      1.0  0.76338  0.31656  0.33572  1.0000
  C   C104      1.0  0.77161  0.37047  0.33255  1.0000
  C   C105      1.0  0.77142  0.35757  0.25040  1.0000
  C   C106      1.0  0.76726  0.33043  0.25344  1.0000
  H   H49       1.0  0.76480  0.31982  0.19516  1.0000
  C   C107      1.0  0.77215  0.39599  0.33255  1.0000
  C   C108      1.0  0.76568  0.44278  0.33591  1.0000
  C   C109      1.0  0.76908  0.43243  0.25360  1.0000
  C   C110      1.0  0.77242  0.40894  0.25046  1.0000
  C   C111      1.0  0.77377  0.39681  0.16885  1.0000
  C   C112      1.0  0.77329  0.37128  0.16882  1.0000
  H   H50       1.0  0.76671  0.44066  0.19533  1.0000
  O   O19       1.0  0.77330  0.40823  0.08887  1.0000
  H   H51       1.0  0.79270  0.42127  0.07381  1.0000
  O   O20       1.0  0.77242  0.35922  0.08882  1.0000
  H   H52       1.0  0.79167  0.36490  0.07394  1.0000
  C   C113      1.0  0.68119  0.44165  0.33655  1.0000
  C   C114      1.0  0.62730  0.39597  0.33298  1.0000
  C   C115      1.0  0.64024  0.40871  0.25092  1.0000
  C   C116      1.0  0.66740  0.43168  0.25415  1.0000
  H   H53       1.0  0.67801  0.43993  0.19592  1.0000
  C   C117      1.0  0.60177  0.37099  0.33280  1.0000
  C   C118      1.0  0.55498  0.31773  0.33572  1.0000
  C   C119      1.0  0.56536  0.33154  0.25352  1.0000
  C   C120      1.0  0.58887  0.35835  0.25060  1.0000
  C   C121      1.0  0.60105  0.37188  0.16908  1.0000
  C   C122      1.0  0.62656  0.39693  0.16925  1.0000
  H   H54       1.0  0.55719  0.32098  0.19517  1.0000
  O   O21       1.0  0.58965  0.36005  0.08903  1.0000
  H   H55       1.0  0.57664  0.36644  0.07393  1.0000
  O   O22       1.0  0.63867  0.40815  0.08933  1.0000
  H   H56       1.0  0.63304  0.42176  0.07448  1.0000
  C   C123      1.0  0.55607  0.23435  0.33625  1.0000
  C   C124      1.0  0.60174  0.22614  0.33257  1.0000
  C   C125      1.0  0.58900  0.22634  0.25054  1.0000
  C   C126      1.0  0.56601  0.23050  0.25381  1.0000
  H   H57       1.0  0.55778  0.23292  0.19562  1.0000
  C   C127      1.0  0.62673  0.22561  0.33234  1.0000
  C   C128      1.0  0.67996  0.23209  0.33520  1.0000
  C   C129      1.0  0.66621  0.22874  0.25298  1.0000
  C   C130      1.0  0.63937  0.22537  0.25011  1.0000
  C   C131      1.0  0.62583  0.22401  0.16861  1.0000
  C   C132      1.0  0.60077  0.22447  0.16884  1.0000
  H   H58       1.0  0.67676  0.23107  0.19462  1.0000
  O   O23       1.0  0.63767  0.22450  0.08852  1.0000
  H   H59       1.0  0.63133  0.20512  0.07338  1.0000
  O   O24       1.0  0.58954  0.22536  0.08894  1.0000
  H   H60       1.0  0.57595  0.20611  0.07407  1.0000
  C   C133      1.0  0.14525  0.24559  0.33138  1.0000
  N   N13       1.0  0.15863  0.27366  0.33352  1.0000
  C   C134      1.0  0.14553  0.28859  0.33435  1.0000
  N   N14       1.0  0.11746  0.27402  0.33270  1.0000
  C   C135      1.0  0.10263  0.24588  0.33074  1.0000
  N   N15       1.0  0.11712  0.23220  0.33024  1.0000
  C   C136      1.0  0.75209  0.89451  0.33128  1.0000
  N   N16       1.0  0.72402  0.87982  0.33340  1.0000
  C   C137      1.0  0.70909  0.85179  0.33421  1.0000
  N   N17       1.0  0.72366  0.83829  0.33255  1.0000
  C   C138      1.0  0.75180  0.85160  0.33062  1.0000
  N   N18       1.0  0.76548  0.87977  0.33013  1.0000
  C   C139      1.0  0.10319  0.85247  0.33124  1.0000
  N   N19       1.0  0.11787  0.83908  0.33334  1.0000
  C   C140      1.0  0.14591  0.85218  0.33416  1.0000
  N   N20       1.0  0.15941  0.88025  0.33251  1.0000
  C   C141      1.0  0.14610  0.89508  0.33058  1.0000
  N   N21       1.0  0.11793  0.88059  0.33010  1.0000
  C   C142      1.0  0.85511  0.74946  0.33130  1.0000
  N   N22       1.0  0.84173  0.72138  0.33344  1.0000
  C   C143      1.0  0.85483  0.70645  0.33428  1.0000
  N   N23       1.0  0.88290  0.72102  0.33262  1.0000
  C   C144      1.0  0.89773  0.74917  0.33066  1.0000
  N   N24       1.0  0.88324  0.76284  0.33015  1.0000
  C   C145      1.0  0.24827  0.10054  0.33135  1.0000
  N   N25       1.0  0.27635  0.11522  0.33350  1.0000
  C   C146      1.0  0.29128  0.14326  0.33433  1.0000
  N   N26       1.0  0.27671  0.15676  0.33267  1.0000
  C   C147      1.0  0.24856  0.14345  0.33071  1.0000
  N   N27       1.0  0.23489  0.11528  0.33020  1.0000
  C   C148      1.0  0.89718  0.14258  0.33139  1.0000
  N   N28       1.0  0.88249  0.15597  0.33355  1.0000
  C   C149      1.0  0.85445  0.14287  0.33438  1.0000
  N   N29       1.0  0.84095  0.11480  0.33270  1.0000
  C   C150      1.0  0.85426  0.09996  0.33074  1.0000
  N   N30       1.0  0.88243  0.11446  0.33024  1.0000
  C   C151      1.0  0.29031  0.53705  0.33758  1.0000
  N   N31       1.0  0.27645  0.50902  0.33752  1.0000
  C   C152      1.0  0.24822  0.49405  0.33747  1.0000
  N   N32       1.0  0.23418  0.50826  0.33682  1.0000
  C   C153      1.0  0.24777  0.53633  0.33693  1.0000
  N   N33       1.0  0.27572  0.55037  0.33715  1.0000
  C   C154      1.0  0.46064  0.74810  0.33755  1.0000
  N   N34       1.0  0.48867  0.76226  0.33744  1.0000
  C   C155      1.0  0.50363  0.74899  0.33725  1.0000
  N   N35       1.0  0.48941  0.72074  0.33651  1.0000
  C   C156      1.0  0.46134  0.70627  0.33664  1.0000
  N   N36       1.0  0.44730  0.72019  0.33700  1.0000
  C   C157      1.0  0.24960  0.70742  0.33809  1.0000
  N   N37       1.0  0.23543  0.72128  0.33773  1.0000
  C   C158      1.0  0.24870  0.74951  0.33752  1.0000
  N   N38       1.0  0.27695  0.76355  0.33698  1.0000
  C   C159      1.0  0.29143  0.74996  0.33742  1.0000
  N   N39       1.0  0.27752  0.72201  0.33777  1.0000
  C   C160      1.0  0.71012  0.45799  0.33796  1.0000
  N   N40       1.0  0.72397  0.48602  0.33780  1.0000
  C   C161      1.0  0.75220  0.50100  0.33765  1.0000
  N   N41       1.0  0.76625  0.48679  0.33699  1.0000
  C   C162      1.0  0.75266  0.45872  0.33718  1.0000
  N   N42       1.0  0.72471  0.44467  0.33750  1.0000
  C   C163      1.0  0.53973  0.24694  0.33770  1.0000
  N   N43       1.0  0.51170  0.23278  0.33762  1.0000
  C   C164      1.0  0.49674  0.24604  0.33755  1.0000
  N   N44       1.0  0.51095  0.27429  0.33689  1.0000
  C   C165      1.0  0.53902  0.28877  0.33702  1.0000
  N   N45       1.0  0.55306  0.27486  0.33725  1.0000
  C   C166      1.0  0.75077  0.28763  0.33724  1.0000
  N   N46       1.0  0.76493  0.27376  0.33734  1.0000
  C   C167      1.0  0.75166  0.24553  0.33736  1.0000
  N   N47       1.0  0.72341  0.23150  0.33661  1.0000
  C   C168      1.0  0.70894  0.24510  0.33653  1.0000
  N   N48       1.0  0.72286  0.27305  0.33667  1.0000
  C   C169      1.0  0.16081  0.31810  0.33676  1.0000
  C   C170      1.0  0.19084  0.37669  0.34014  1.0000
  C   C171      1.0  0.20528  0.36194  0.35019  1.0000
  C   C172      1.0  0.18989  0.33274  0.34799  1.0000
  H   H61       1.0  0.20014  0.32197  0.35515  1.0000
  C   C173      1.0  0.20546  0.40590  0.34045  1.0000
  C   C174      1.0  0.23404  0.46452  0.33853  1.0000
  C   C175      1.0  0.24846  0.44984  0.34943  1.0000
  C   C176      1.0  0.23463  0.42063  0.35088  1.0000
  C   C177      1.0  0.24890  0.40585  0.36233  1.0000
  C   C178      1.0  0.23431  0.37668  0.36197  1.0000
  H   H62       1.0  0.26946  0.46059  0.35703  1.0000
  O   O25       1.0  0.27691  0.41931  0.37131  1.0000
  H   H63       1.0  0.28066  0.42233  0.43580  1.0000
  O   O26       1.0  0.24886  0.36320  0.37052  1.0000
  H   H64       1.0  0.24942  0.35992  0.43489  1.0000
  C   C179      1.0  0.67958  0.83756  0.33661  1.0000
  C   C180      1.0  0.62099  0.80899  0.33996  1.0000
  C   C181      1.0  0.63573  0.83817  0.35007  1.0000
  C   C182      1.0  0.66494  0.85199  0.34788  1.0000
  H   H65       1.0  0.67571  0.87300  0.35509  1.0000
  C   C183      1.0  0.59177  0.79439  0.34026  1.0000
  C   C184      1.0  0.53316  0.76435  0.33831  1.0000
  C   C185      1.0  0.54783  0.79344  0.34929  1.0000
  C   C186      1.0  0.57705  0.80883  0.35075  1.0000
  C   C187      1.0  0.59182  0.83787  0.36227  1.0000
  C   C188      1.0  0.62099  0.85246  0.36191  1.0000
  H   H66       1.0  0.53708  0.80369  0.35692  1.0000
  O   O27       1.0  0.57836  0.85242  0.37129  1.0000
  H   H67       1.0  0.57534  0.85313  0.43578  1.0000
  O   O28       1.0  0.63447  0.88048  0.37052  1.0000
  H   H68       1.0  0.63774  0.88431  0.43489  1.0000
  C   C189      1.0  0.16014  0.83691  0.33655  1.0000
  C   C190      1.0  0.18870  0.80688  0.33990  1.0000
  C   C191      1.0  0.15952  0.79244  0.34996  1.0000
  C   C192      1.0  0.14570  0.80782  0.34777  1.0000
  H   H69       1.0  0.12468  0.79758  0.35493  1.0000
  C   C193      1.0  0.20330  0.79226  0.34023  1.0000
  C   C194      1.0  0.23334  0.76369  0.33841  1.0000
  C   C195      1.0  0.20425  0.74927  0.34928  1.0000
  C   C196      1.0  0.18885  0.76309  0.35068  1.0000
  C   C197      1.0  0.15981  0.74882  0.36213  1.0000
  C   C198      1.0  0.14522  0.76341  0.36174  1.0000
  H   H70       1.0  0.19400  0.72827  0.35691  1.0000
  O   O29       1.0  0.14525  0.72081  0.37112  1.0000
  H   H71       1.0  0.14453  0.71707  0.43560  1.0000
  O   O30       1.0  0.11720  0.74886  0.37030  1.0000
  H   H72       1.0  0.11336  0.74830  0.43467  1.0000
  C   C199      1.0  0.83956  0.67695  0.33669  1.0000
  C   C200      1.0  0.80954  0.61836  0.34012  1.0000
  C   C201      1.0  0.79510  0.63310  0.35014  1.0000
  C   C202      1.0  0.81048  0.66230  0.34791  1.0000
  H   H73       1.0  0.80023  0.67307  0.35506  1.0000
  C   C203      1.0  0.79493  0.58914  0.34046  1.0000
  C   C204      1.0  0.76637  0.53053  0.33864  1.0000
  C   C205      1.0  0.75194  0.54520  0.34952  1.0000
  C   C206      1.0  0.76576  0.57441  0.35091  1.0000
  C   C207      1.0  0.75148  0.58918  0.36235  1.0000
  C   C208      1.0  0.76606  0.61835  0.36191  1.0000
  H   H74       1.0  0.73095  0.53444  0.35713  1.0000
  O   O31       1.0  0.72347  0.57572  0.37133  1.0000
  H   H75       1.0  0.71973  0.57270  0.43582  1.0000
  O   O32       1.0  0.75152  0.63183  0.37047  1.0000
  H   H76       1.0  0.75095  0.63511  0.43483  1.0000
  C   C209      1.0  0.32078  0.15749  0.33675  1.0000
  C   C210      1.0  0.37937  0.18605  0.34015  1.0000
  C   C211      1.0  0.36463  0.15687  0.35019  1.0000
  C   C212      1.0  0.33543  0.14305  0.34799  1.0000
  H   H77       1.0  0.32465  0.12203  0.35513  1.0000
  C   C213      1.0  0.40859  0.20065  0.34048  1.0000
  C   C214      1.0  0.46720  0.23069  0.33859  1.0000
  C   C215      1.0  0.45253  0.20159  0.34948  1.0000
  C   C216      1.0  0.42332  0.18620  0.35091  1.0000
  C   C217      1.0  0.40854  0.15716  0.36236  1.0000
  C   C218      1.0  0.37937  0.14257  0.36198  1.0000
  H   H78       1.0  0.46328  0.19134  0.35709  1.0000
  O   O33       1.0  0.42200  0.14260  0.37135  1.0000
  H   H79       1.0  0.42501  0.14188  0.43583  1.0000
  O   O34       1.0  0.36589  0.11455  0.37053  1.0000
  H   H80       1.0  0.36261  0.11070  0.43489  1.0000
  C   C219      1.0  0.84022  0.15814  0.33680  1.0000
  C   C220      1.0  0.81165  0.18816  0.34020  1.0000
  C   C221      1.0  0.84083  0.20260  0.35027  1.0000
  C   C222      1.0  0.85465  0.18722  0.34805  1.0000
  H   H81       1.0  0.87567  0.19747  0.35522  1.0000
  C   C223      1.0  0.79705  0.20278  0.34052  1.0000
  C   C224      1.0  0.76701  0.23135  0.33853  1.0000
  C   C225      1.0  0.79610  0.24577  0.34949  1.0000
  C   C226      1.0  0.81149  0.23195  0.35096  1.0000
  C   C227      1.0  0.84054  0.24622  0.36245  1.0000
  C   C228      1.0  0.85512  0.23163  0.36207  1.0000
  H   H82       1.0  0.80635  0.26677  0.35707  1.0000
  O   O35       1.0  0.85509  0.27423  0.37142  1.0000
  H   H83       1.0  0.85581  0.27798  0.43590  1.0000
  O   O36       1.0  0.88315  0.24618  0.37064  1.0000
  H   H84       1.0  0.88699  0.24674  0.43501  1.0000
  C   C229      1.0  0.20509  0.14549  0.33515  1.0000
  N   N49       1.0  0.19204  0.16046  0.33429  1.0000
  C   C230      1.0  0.14756  0.20224  0.33568  1.0000
  H   H85       1.0  0.19324  0.12452  0.34106  1.0000
  N   N50       1.0  0.16272  0.18937  0.33455  1.0000
  H   H86       1.0  0.12660  0.19030  0.34154  1.0000
  C   C231      1.0  0.85221  0.05445  0.33518  1.0000
  N   N51       1.0  0.83724  0.02642  0.33428  1.0000
  C   C232      1.0  0.79545  0.94017  0.33560  1.0000
  H   H87       1.0  0.87318  0.06356  0.34106  1.0000
  N   N52       1.0  0.80832  0.96820  0.33450  1.0000
  H   H88       1.0  0.80739  0.93114  0.34147  1.0000
  C   C233      1.0  0.94325  0.79264  0.33508  1.0000
  N   N53       1.0  0.97128  0.80570  0.33419  1.0000
  C   C234      1.0  0.05753  0.85016  0.33552  1.0000
  H   H89       1.0  0.93413  0.80449  0.34093  1.0000
  N   N54       1.0  0.02950  0.83501  0.33441  1.0000
  H   H90       1.0  0.06655  0.87113  0.34135  1.0000
  C   C235      1.0  0.79528  0.84956  0.33507  1.0000
  N   N55       1.0  0.80833  0.83459  0.33419  1.0000
  C   C236      1.0  0.85280  0.79281  0.33558  1.0000
  H   H91       1.0  0.80712  0.87053  0.34095  1.0000
  N   N56       1.0  0.83765  0.80568  0.33445  1.0000
  H   H92       1.0  0.87377  0.80475  0.34145  1.0000
  C   C237      1.0  0.14815  0.94060  0.33502  1.0000
  N   N57       1.0  0.16312  0.96863  0.33417  1.0000
  C   C238      1.0  0.20492  0.05488  0.33561  1.0000
  H   H93       1.0  0.12718  0.93149  0.34091  1.0000
  N   N58       1.0  0.19204  0.02685  0.33447  1.0000
  H   H94       1.0  0.19298  0.06391  0.34145  1.0000
  C   C239      1.0  0.05711  0.20241  0.33520  1.0000
  N   N59       1.0  0.02909  0.18936  0.33432  1.0000
  C   C240      1.0  0.94283  0.14489  0.33568  1.0000
  H   H95       1.0  0.06623  0.19056  0.34108  1.0000
  N   N60       1.0  0.97086  0.16004  0.33457  1.0000
  H   H96       1.0  0.93381  0.12393  0.34157  1.0000
  C   C241      1.0  0.23603  0.66428  0.41574  1.0000
  N   N61       1.0  0.23227  0.63841  0.41117  1.0000
  C   C242      1.0  0.23405  0.56558  0.41497  1.0000
  H   H97       1.0  0.24019  0.67389  0.47658  1.0000
  N   N62       1.0  0.23120  0.58824  0.41076  1.0000
  H   H98       1.0  0.23816  0.56000  0.47567  1.0000
  C   C243      1.0  0.33345  0.56654  0.41527  1.0000
  N   N63       1.0  0.35931  0.58866  0.41067  1.0000
  C   C244      1.0  0.43213  0.66330  0.41462  1.0000
  H   H99       1.0  0.32382  0.56108  0.47608  1.0000
  N   N64       1.0  0.40946  0.63778  0.41031  1.0000
  H   H100      1.0  0.43773  0.67297  0.47533  1.0000
  C   C245      1.0  0.43109  0.76156  0.41550  1.0000
  N   N65       1.0  0.40895  0.76529  0.41112  1.0000
  C   C246      1.0  0.33432  0.76346  0.41542  1.0000
  H   H101      1.0  0.43641  0.75715  0.47615  1.0000
  N   N66       1.0  0.35984  0.76632  0.41109  1.0000
  H   H102      1.0  0.32458  0.75922  0.47604  1.0000
  C   C247      1.0  0.76441  0.33072  0.41493  1.0000
  N   N67       1.0  0.76818  0.35660  0.41055  1.0000
  C   C248      1.0  0.76646  0.42947  0.41506  1.0000
  H   H103      1.0  0.76026  0.32108  0.47572  1.0000
  N   N68       1.0  0.76927  0.40678  0.41058  1.0000
  H   H104      1.0  0.76231  0.43498  0.47581  1.0000
  C   C249      1.0  0.66699  0.42848  0.41566  1.0000
  N   N69       1.0  0.64111  0.40637  0.41108  1.0000
  C   C250      1.0  0.56830  0.33175  0.41496  1.0000
  H   H105      1.0  0.67660  0.43395  0.47650  1.0000
  N   N70       1.0  0.59095  0.35726  0.41072  1.0000
  H   H106      1.0  0.56267  0.32209  0.47570  1.0000
  C   C251      1.0  0.56922  0.23328  0.41534  1.0000
  N   N71       1.0  0.59134  0.22953  0.41070  1.0000
  C   C252      1.0  0.66597  0.23133  0.41454  1.0000
  H   H107      1.0  0.56378  0.23746  0.47616  1.0000
  N   N72       1.0  0.64046  0.22849  0.41027  1.0000
  H   H108      1.0  0.67565  0.23540  0.47525  1.0000
