data_image0
_chemical_formula_structural       C4NC2NHOHC4NC2NHOHC4NC2NHOHC4NC2NHOHC4NC2NHOHC4NC2NHOHC2H2OC2H2OC2H2OC2H2OC2H2OC2H2OC2H2OC2H2OC2H2OC2H2OC2H2OC2H2OC4NC2NHOHC4NC2NHOHC4NC2NHOHC4NC2NHOHC4NC2NHOHC4NC2NHOHC2H2C2H2C2H2C2H2C2H2C2H2C2H2C2H2C2H2C2H2C2H2C2H2CNCNCNCNCNCNCNCNCNCNCNCNCNCNCNCNCNCNCNCNCNCNCNCNCNCNCNCNCNCNCNCNCNCNCNCNCNCNCNCNCNCNCNCNCNCNCNCNCNCNCNCNCNCNCNCNCNCNCNCNCNCNCNCNCNCNCNCNCNCNCNCNC2H2C2H2C2H2C2H2C2H2C2H2C4NC2NH2C4NC2NH2C4NC2NH2C4NC2NH2C4NC2NH2C4NC2NH2C4NC2NH2C4NC2NH2C4NC2NH2C4NC2NH2C4NC2NH2C4NC2NH2C2H2C2H2C2H2C2H2C2H2C2H2C4NC2NHOHC4NC2NHOHC4NC2NHOHC4NC2NHOHC4NC2NHOHC4NC2NHOHC4NC2NHOHC4NC2NHOHC4NC2NHOHC4NC2NHOHC4NC2NHOHC4NC2NHOH
_chemical_formula_sum              "C360 N144 H144 O36"
_cell_length_a       53.8282
_cell_length_b       53.8283
_cell_length_c       14.8373
_cell_angle_alpha    90
_cell_angle_beta     90
_cell_angle_gamma    120

_space_group_name_H-M_alt    "P 1"
_space_group_IT_number       1

loop_
  _space_group_symop_operation_xyz
  'x, y, z'

loop_
  _atom_site_type_symbol
  _atom_site_label
  _atom_site_symmetry_multiplicity
  _atom_site_fract_x
  _atom_site_fract_y
  _atom_site_fract_z
  _atom_site_occupancy
  C   C1        1.0  0.14489  0.46037  0.32647  1.0000
  C   C2        1.0  0.14401  0.44508  0.24701  1.0000
  C   C3        1.0  0.13013  0.41450  0.24929  1.0000
  C   C4        1.0  0.11688  0.39896  0.32885  1.0000
  N   N1        1.0  0.13029  0.40043  0.17325  1.0000
  C   C5        1.0  0.14269  0.41388  0.09516  1.0000
  C   C6        1.0  0.15616  0.44389  0.09195  1.0000
  N   N2        1.0  0.15661  0.45849  0.16739  1.0000
  H   H1        1.0  0.14199  0.40223  0.03991  1.0000
  O   O1        1.0  0.16827  0.45786  0.01422  1.0000
  H   H2        1.0  0.16595  0.47928  0.16256  1.0000
  C   C7        1.0  0.55330  0.68723  0.32656  1.0000
  C   C8        1.0  0.56857  0.70160  0.24704  1.0000
  C   C9        1.0  0.59915  0.71828  0.24932  1.0000
  C   C10       1.0  0.61468  0.72056  0.32890  1.0000
  N   N3        1.0  0.61321  0.73249  0.17327  1.0000
  C   C11       1.0  0.59977  0.73145  0.09518  1.0000
  C   C12       1.0  0.56976  0.71493  0.09198  1.0000
  N   N4        1.0  0.55516  0.70080  0.16743  1.0000
  H   H3        1.0  0.61143  0.74239  0.03993  1.0000
  O   O2        1.0  0.55580  0.71308  0.01425  1.0000
  H   H4        1.0  0.53436  0.68936  0.16262  1.0000
  C   C13       1.0  0.32640  0.86872  0.32588  1.0000
  C   C14       1.0  0.31187  0.86950  0.24658  1.0000
  C   C15       1.0  0.29520  0.88341  0.24905  1.0000
  C   C16       1.0  0.29306  0.89677  0.32860  1.0000
  N   N5        1.0  0.28087  0.88318  0.17320  1.0000
  C   C17       1.0  0.28178  0.87070  0.09514  1.0000
  C   C18       1.0  0.29830  0.85720  0.09175  1.0000
  N   N6        1.0  0.31255  0.85681  0.16701  1.0000
  H   H5        1.0  0.27076  0.87136  0.04003  1.0000
  O   O3        1.0  0.30004  0.84502  0.01402  1.0000
  H   H6        1.0  0.32400  0.84748  0.16204  1.0000
  C   C19       1.0  0.87148  0.55055  0.32605  1.0000
  C   C20       1.0  0.87223  0.56588  0.24678  1.0000
  C   C21       1.0  0.88614  0.59646  0.24921  1.0000
  C   C22       1.0  0.89952  0.61196  0.32870  1.0000
  N   N7        1.0  0.88588  0.61055  0.17339  1.0000
  C   C23       1.0  0.87336  0.59715  0.09536  1.0000
  C   C24       1.0  0.85988  0.56714  0.09199  1.0000
  N   N8        1.0  0.85952  0.55251  0.16723  1.0000
  H   H7        1.0  0.87400  0.60883  0.04027  1.0000
  O   O4        1.0  0.84769  0.55321  0.01428  1.0000
  H   H8        1.0  0.85020  0.53172  0.16225  1.0000
  C   C25       1.0  0.46311  0.32363  0.32653  1.0000
  C   C26       1.0  0.44781  0.30906  0.24723  1.0000
  C   C27       1.0  0.41723  0.29236  0.24956  1.0000
  C   C28       1.0  0.40170  0.29024  0.32898  1.0000
  N   N9        1.0  0.40317  0.27799  0.17370  1.0000
  C   C29       1.0  0.41660  0.27889  0.09574  1.0000
  C   C30       1.0  0.44661  0.29543  0.09248  1.0000
  N   N10       1.0  0.46122  0.30971  0.16775  1.0000
  H   H9        1.0  0.40495  0.26784  0.04063  1.0000
  O   O5        1.0  0.46057  0.29717  0.01484  1.0000
  H   H10       1.0  0.48201  0.32119  0.16284  1.0000
  C   C31       1.0  0.69004  0.14218  0.32658  1.0000
  C   C32       1.0  0.70459  0.14146  0.24723  1.0000
  C   C33       1.0  0.72127  0.12756  0.24958  1.0000
  C   C34       1.0  0.72338  0.11413  0.32900  1.0000
  N   N11       1.0  0.73563  0.12785  0.17372  1.0000
  C   C35       1.0  0.73473  0.14039  0.09575  1.0000
  C   C36       1.0  0.71821  0.15387  0.09248  1.0000
  N   N12       1.0  0.70393  0.15421  0.16776  1.0000
  H   H11       1.0  0.74579  0.13979  0.04064  1.0000
  O   O6        1.0  0.71647  0.16609  0.01483  1.0000
  H   H12       1.0  0.69246  0.16353  0.16285  1.0000
  C   C37       1.0  0.41815  0.11327  0.28835  1.0000
  C   C38       1.0  0.44835  0.12740  0.29280  1.0000
  H   H13       1.0  0.45944  0.12823  0.23574  1.0000
  H   H14       1.0  0.40828  0.10390  0.22886  1.0000
  O   O7        1.0  0.45713  0.16825  0.01134  1.0000
  C   C39       1.0  0.70605  0.59559  0.28853  1.0000
  C   C40       1.0  0.68999  0.56538  0.29298  1.0000
  H   H15       1.0  0.67971  0.55430  0.23594  1.0000
  H   H16       1.0  0.70656  0.60544  0.22899  1.0000
  O   O8        1.0  0.72217  0.55658  0.01130  1.0000
  C   C41       1.0  0.90039  0.30755  0.28825  1.0000
  C   C42       1.0  0.88624  0.32360  0.29275  1.0000
  H   H17       1.0  0.88538  0.33384  0.23567  1.0000
  H   H18       1.0  0.90967  0.30700  0.22863  1.0000
  O   O9        1.0  0.84555  0.29165  0.01140  1.0000
  C   C43       1.0  0.59831  0.89759  0.28814  1.0000
  C   C44       1.0  0.56811  0.88345  0.29261  1.0000
  H   H19       1.0  0.55700  0.88252  0.23547  1.0000
  H   H20       1.0  0.60815  0.90681  0.22846  1.0000
  O   O10       1.0  0.55938  0.84316  0.01181  1.0000
  C   C45       1.0  0.31032  0.41542  0.28843  1.0000
  C   C46       1.0  0.32639  0.44562  0.29290  1.0000
  H   H21       1.0  0.33658  0.45674  0.23580  1.0000
  H   H22       1.0  0.30975  0.40558  0.22880  1.0000
  O   O11       1.0  0.29457  0.45434  0.01179  1.0000
  C   C47       1.0  0.11592  0.70328  0.28878  1.0000
  C   C48       1.0  0.13004  0.68720  0.29322  1.0000
  H   H23       1.0  0.13085  0.67691  0.23620  1.0000
  H   H24       1.0  0.10654  0.70376  0.22927  1.0000
  O   O12       1.0  0.17117  0.71952  0.01140  1.0000
  C   C49       1.0  0.26278  0.54022  0.28360  1.0000
  C   C50       1.0  0.28898  0.54035  0.28794  1.0000
  H   H25       1.0  0.30176  0.54640  0.23180  1.0000
  H   H26       1.0  0.25737  0.54628  0.22479  1.0000
  O   O13       1.0  0.27266  0.49470  0.00321  1.0000
  C   C51       1.0  0.47344  0.72531  0.28364  1.0000
  C   C52       1.0  0.47337  0.75140  0.28787  1.0000
  H   H27       1.0  0.46723  0.75808  0.23184  1.0000
  H   H28       1.0  0.46735  0.71380  0.22488  1.0000
  O   O14       1.0  0.51915  0.78083  0.00302  1.0000
  C   C53       1.0  0.28826  0.75090  0.28293  1.0000
  C   C54       1.0  0.26222  0.72470  0.28734  1.0000
  H   H29       1.0  0.25544  0.71196  0.23114  1.0000
  H   H30       1.0  0.29973  0.75635  0.22407  1.0000
  O   O15       1.0  0.23331  0.74077  0.00347  1.0000
  C   C55       1.0  0.75365  0.47083  0.28297  1.0000
  C   C56       1.0  0.72746  0.47071  0.28730  1.0000
  H   H31       1.0  0.71472  0.46474  0.23108  1.0000
  H   H32       1.0  0.75911  0.46485  0.22407  1.0000
  O   O16       1.0  0.74349  0.51575  0.00333  1.0000
  C   C57       1.0  0.54283  0.28556  0.28320  1.0000
  C   C58       1.0  0.54297  0.25950  0.28746  1.0000
  H   H33       1.0  0.54893  0.25274  0.23121  1.0000
  H   H34       1.0  0.54878  0.29700  0.22430  1.0000
  O   O17       1.0  0.49799  0.23044  0.00353  1.0000
  C   C59       1.0  0.72812  0.25999  0.28324  1.0000
  C   C60       1.0  0.75418  0.28618  0.28748  1.0000
  H   H35       1.0  0.76093  0.29890  0.23123  1.0000
  H   H36       1.0  0.71666  0.25451  0.22437  1.0000
  O   O18       1.0  0.78333  0.27023  0.00341  1.0000
  C   C61       1.0  0.17625  0.56325  0.31900  1.0000
  C   C62       1.0  0.18784  0.58287  0.24569  1.0000
  C   C63       1.0  0.18813  0.60953  0.24986  1.0000
  C   C64       1.0  0.17672  0.61677  0.32492  1.0000
  N   N13       1.0  0.19963  0.62804  0.17943  1.0000
  C   C65       1.0  0.21058  0.62245  0.10518  1.0000
  C   C66       1.0  0.21007  0.59619  0.09997  1.0000
  N   N14       1.0  0.19899  0.57743  0.16994  1.0000
  H   H37       1.0  0.21873  0.63705  0.05397  1.0000
  O   O19       1.0  0.22036  0.58974  0.02577  1.0000
  H   H38       1.0  0.19862  0.55925  0.16347  1.0000
  C   C67       1.0  0.45039  0.61577  0.31892  1.0000
  C   C68       1.0  0.43071  0.60780  0.24580  1.0000
  C   C69       1.0  0.40405  0.58143  0.25000  1.0000
  C   C70       1.0  0.39687  0.56272  0.32486  1.0000
  N   N15       1.0  0.38548  0.57447  0.17974  1.0000
  C   C71       1.0  0.39101  0.59107  0.10567  1.0000
  C   C72       1.0  0.41727  0.61682  0.10042  1.0000
  N   N16       1.0  0.43609  0.62445  0.17021  1.0000
  H   H39       1.0  0.37636  0.58466  0.05460  1.0000
  O   O20       1.0  0.42366  0.63361  0.02637  1.0000
  H   H40       1.0  0.45427  0.64224  0.16369  1.0000
  C   C73       1.0  0.39795  0.83738  0.31902  1.0000
  C   C74       1.0  0.40602  0.82586  0.24561  1.0000
  C   C75       1.0  0.43239  0.82559  0.24981  1.0000
  C   C76       1.0  0.45102  0.83696  0.32494  1.0000
  N   N17       1.0  0.43945  0.81415  0.17930  1.0000
  C   C77       1.0  0.42295  0.80325  0.10496  1.0000
  C   C78       1.0  0.39718  0.80373  0.09973  1.0000
  N   N18       1.0  0.38945  0.81474  0.16977  1.0000
  H   H41       1.0  0.42942  0.79513  0.05372  1.0000
  O   O21       1.0  0.38047  0.79348  0.02547  1.0000
  H   H42       1.0  0.37164  0.81510  0.16330  1.0000
  C   C79       1.0  0.84011  0.44766  0.31895  1.0000
  C   C80       1.0  0.82852  0.42804  0.24563  1.0000
  C   C81       1.0  0.82824  0.40138  0.24981  1.0000
  C   C82       1.0  0.83968  0.39416  0.32482  1.0000
  N   N19       1.0  0.81672  0.38286  0.17939  1.0000
  C   C83       1.0  0.80576  0.38844  0.10517  1.0000
  C   C84       1.0  0.80625  0.41470  0.09996  1.0000
  N   N20       1.0  0.81735  0.43347  0.16989  1.0000
  H   H43       1.0  0.79758  0.37382  0.05400  1.0000
  O   O22       1.0  0.79595  0.42113  0.02579  1.0000
  H   H44       1.0  0.81772  0.45164  0.16341  1.0000
  C   C85       1.0  0.56600  0.39518  0.31900  1.0000
  C   C86       1.0  0.58567  0.40315  0.24583  1.0000
  C   C87       1.0  0.61232  0.42952  0.24996  1.0000
  C   C88       1.0  0.61951  0.44825  0.32481  1.0000
  N   N21       1.0  0.63088  0.43647  0.17967  1.0000
  C   C89       1.0  0.62534  0.41987  0.10560  1.0000
  C   C90       1.0  0.59908  0.39410  0.10043  1.0000
  N   N22       1.0  0.58028  0.38649  0.17025  1.0000
  H   H45       1.0  0.63998  0.42627  0.05452  1.0000
  O   O23       1.0  0.59269  0.37731  0.02641  1.0000
  H   H46       1.0  0.56210  0.36868  0.16378  1.0000
  C   C91       1.0  0.61850  0.17352  0.31905  1.0000
  C   C92       1.0  0.61047  0.18511  0.24574  1.0000
  C   C93       1.0  0.58411  0.18541  0.24988  1.0000
  C   C94       1.0  0.56545  0.17400  0.32492  1.0000
  N   N23       1.0  0.57710  0.19691  0.17943  1.0000
  C   C95       1.0  0.59364  0.20785  0.10519  1.0000
  C   C96       1.0  0.61940  0.20735  0.10002  1.0000
  N   N24       1.0  0.62707  0.19626  0.16999  1.0000
  H   H47       1.0  0.58721  0.21603  0.05400  1.0000
  O   O24       1.0  0.63614  0.21764  0.02584  1.0000
  H   H48       1.0  0.64488  0.19588  0.16354  1.0000
  C   C97       1.0  0.02305  0.29023  0.26302  1.0000
  C   C98       1.0  0.99271  0.27509  0.26387  1.0000
  H   H49       1.0  0.98210  0.26882  0.20358  1.0000
  H   H50       1.0  0.03336  0.29440  0.20222  1.0000
  C   C99       1.0  0.72300  0.73508  0.26255  1.0000
  C   C100      1.0  0.73815  0.71990  0.26337  1.0000
  H   H51       1.0  0.74413  0.71527  0.20302  1.0000
  H   H52       1.0  0.71852  0.74092  0.20169  1.0000
  C   C101      1.0  0.27847  0.99062  0.26288  1.0000
  C   C102      1.0  0.29364  0.02095  0.26373  1.0000
  H   H53       1.0  0.29818  0.03157  0.20341  1.0000
  H   H54       1.0  0.27252  0.98030  0.20205  1.0000
  C   C103      1.0  0.99338  0.72061  0.26308  1.0000
  C   C104      1.0  0.02371  0.73577  0.26388  1.0000
  H   H55       1.0  0.03432  0.74199  0.20357  1.0000
  H   H56       1.0  0.98305  0.71639  0.20229  1.0000
  C   C105      1.0  0.29272  0.27515  0.26356  1.0000
  C   C106      1.0  0.27758  0.29035  0.26445  1.0000
  H   H57       1.0  0.27114  0.29454  0.20423  1.0000
  H   H58       1.0  0.29670  0.26883  0.20280  1.0000
  C   C107      1.0  0.73843  0.02028  0.26342  1.0000
  C   C108      1.0  0.72323  0.98994  0.26429  1.0000
  H   H59       1.0  0.71901  0.97932  0.20405  1.0000
  H   H60       1.0  0.74466  0.03059  0.20265  1.0000
  C   C109      1.0  0.15106  0.31658  0.27555  1.0000
  C   C110      1.0  0.17730  0.31648  0.27816  1.0000
  H   H61       1.0  0.18444  0.31187  0.22004  1.0000
  H   H62       1.0  0.14008  0.31191  0.21590  1.0000
  C   C111      1.0  0.69721  0.83718  0.27597  1.0000
  C   C112      1.0  0.69730  0.86351  0.27847  1.0000
  H   H63       1.0  0.70199  0.87528  0.22038  1.0000
  H   H64       1.0  0.70192  0.83087  0.21638  1.0000
  C   C113      1.0  0.17658  0.86262  0.27568  1.0000
  C   C114      1.0  0.15025  0.83637  0.27824  1.0000
  H   H65       1.0  0.13857  0.82920  0.22001  1.0000
  H   H66       1.0  0.18297  0.87352  0.21591  1.0000
  C   C115      1.0  0.86539  0.69430  0.27574  1.0000
  C   C116      1.0  0.83915  0.69439  0.27828  1.0000
  H   H67       1.0  0.83198  0.69890  0.22007  1.0000
  H   H68       1.0  0.87631  0.69884  0.21598  1.0000
  C   C117      1.0  0.31927  0.17368  0.27555  1.0000
  C   C118      1.0  0.31919  0.14735  0.27819  1.0000
  H   H69       1.0  0.31463  0.13562  0.22007  1.0000
  H   H70       1.0  0.31466  0.18000  0.21581  1.0000
  C   C119      1.0  0.83994  0.14822  0.27553  1.0000
  C   C120      1.0  0.86628  0.17446  0.27809  1.0000
  H   H71       1.0  0.87800  0.18159  0.21994  1.0000
  H   H72       1.0  0.83361  0.13724  0.21586  1.0000
  C   C121      1.0  0.16528  0.48994  0.33522  1.0000
  N   N25       1.0  0.15934  0.51171  0.32726  1.0000
  C   C122      1.0  0.18101  0.53968  0.32777  1.0000
  N   N26       1.0  0.20864  0.54551  0.33565  1.0000
  C   C123      1.0  0.21485  0.52410  0.34419  1.0000
  N   N27       1.0  0.19302  0.49659  0.34334  1.0000
  C   C124      1.0  0.52373  0.67807  0.33532  1.0000
  N   N28       1.0  0.50194  0.65036  0.32726  1.0000
  C   C125      1.0  0.47398  0.64410  0.32767  1.0000
  N   N29       1.0  0.46818  0.66592  0.33559  1.0000
  C   C126      1.0  0.48960  0.69352  0.34421  1.0000
  N   N30       1.0  0.51710  0.69917  0.34342  1.0000
  C   C127      1.0  0.33557  0.84831  0.33455  1.0000
  N   N31       1.0  0.36330  0.85428  0.32693  1.0000
  C   C128      1.0  0.36961  0.83262  0.32759  1.0000
  N   N32       1.0  0.34781  0.80498  0.33543  1.0000
  C   C129      1.0  0.32019  0.79876  0.34373  1.0000
  N   N33       1.0  0.31449  0.82058  0.34271  1.0000
  C   C130      1.0  0.85107  0.52097  0.33465  1.0000
  N   N34       1.0  0.85703  0.49920  0.32698  1.0000
  C   C131      1.0  0.83536  0.47124  0.32759  1.0000
  N   N35       1.0  0.80773  0.46541  0.33542  1.0000
  C   C132      1.0  0.80152  0.48682  0.34379  1.0000
  N   N36       1.0  0.82334  0.51433  0.34281  1.0000
  C   C133      1.0  0.49268  0.33283  0.33528  1.0000
  N   N37       1.0  0.51445  0.36055  0.32732  1.0000
  C   C134      1.0  0.54242  0.36685  0.32776  1.0000
  N   N38       1.0  0.54825  0.34504  0.33562  1.0000
  C   C135      1.0  0.52685  0.31743  0.34414  1.0000
  N   N39       1.0  0.49934  0.31174  0.34334  1.0000
  C   C136      1.0  0.68085  0.16257  0.33532  1.0000
  N   N40       1.0  0.65313  0.15662  0.32738  1.0000
  C   C137      1.0  0.64684  0.17828  0.32783  1.0000
  N   N41       1.0  0.66863  0.20592  0.33566  1.0000
  C   C138      1.0  0.69625  0.21213  0.34417  1.0000
  N   N42       1.0  0.70194  0.19031  0.34338  1.0000
  C   C139      1.0  0.49289  0.16341  0.36288  1.0000
  N   N43       1.0  0.51432  0.15734  0.34762  1.0000
  C   C140      1.0  0.54208  0.17894  0.33705  1.0000
  N   N44       1.0  0.54806  0.20668  0.34186  1.0000
  C   C141      1.0  0.52714  0.21317  0.35804  1.0000
  N   N45       1.0  0.49984  0.19132  0.36763  1.0000
  C   C142      1.0  0.68147  0.52082  0.36293  1.0000
  N   N46       1.0  0.65398  0.49939  0.34762  1.0000
  C   C143      1.0  0.64783  0.47163  0.33691  1.0000
  N   N47       1.0  0.66960  0.46566  0.34172  1.0000
  C   C144      1.0  0.69700  0.48658  0.35795  1.0000
  N   N48       1.0  0.70244  0.51388  0.36763  1.0000
  C   C145      1.0  0.85029  0.33220  0.36288  1.0000
  N   N49       1.0  0.85635  0.35969  0.34755  1.0000
  C   C146      1.0  0.83475  0.36584  0.33690  1.0000
  N   N50       1.0  0.80701  0.34408  0.34175  1.0000
  C   C147      1.0  0.80053  0.31667  0.35797  1.0000
  N   N51       1.0  0.82238  0.31123  0.36761  1.0000
  C   C148      1.0  0.52359  0.84759  0.36296  1.0000
  N   N52       1.0  0.50215  0.85364  0.34762  1.0000
  C   C149      1.0  0.47440  0.83203  0.33704  1.0000
  N   N53       1.0  0.46843  0.80429  0.34195  1.0000
  C   C150      1.0  0.48936  0.79782  0.35820  1.0000
  N   N54       1.0  0.51665  0.81969  0.36775  1.0000
  C   C151      1.0  0.33495  0.49014  0.36308  1.0000
  N   N55       1.0  0.36243  0.51158  0.34772  1.0000
  C   C152      1.0  0.36857  0.53933  0.33710  1.0000
  N   N56       1.0  0.34679  0.54529  0.34199  1.0000
  C   C153      1.0  0.31939  0.52436  0.35829  1.0000
  N   N57       1.0  0.31397  0.49707  0.36790  1.0000
  C   C154      1.0  0.16614  0.67874  0.36314  1.0000
  N   N58       1.0  0.16007  0.65124  0.34779  1.0000
  C   C155      1.0  0.18166  0.64508  0.33709  1.0000
  N   N59       1.0  0.20940  0.66684  0.34186  1.0000
  C   C156      1.0  0.21590  0.69425  0.35811  1.0000
  N   N60       1.0  0.19405  0.69970  0.36780  1.0000
  C   C157      1.0  0.11850  0.33188  0.34078  1.0000
  N   N61       1.0  0.08973  0.31217  0.34204  1.0000
  C   C158      1.0  0.06946  0.32052  0.33887  1.0000
  N   N62       1.0  0.07859  0.34914  0.33623  1.0000
  C   C159      1.0  0.10695  0.36915  0.33499  1.0000
  N   N63       1.0  0.12640  0.36013  0.33745  1.0000
  C   C160      1.0  0.68173  0.78927  0.34115  1.0000
  N   N64       1.0  0.70147  0.78023  0.34219  1.0000
  C   C161      1.0  0.69313  0.75161  0.33879  1.0000
  N   N65       1.0  0.66452  0.73211  0.33608  1.0000
  C   C162      1.0  0.64449  0.74044  0.33505  1.0000
  N   N66       1.0  0.65349  0.76891  0.33774  1.0000
  C   C163      1.0  0.22439  0.89518  0.34119  1.0000
  N   N67       1.0  0.23346  0.92396  0.34236  1.0000
  C   C164      1.0  0.26208  0.94422  0.33900  1.0000
  N   N68       1.0  0.28156  0.93507  0.33615  1.0000
  C   C165      1.0  0.27320  0.90671  0.33492  1.0000
  N   N69       1.0  0.24472  0.88727  0.33759  1.0000
  C   C166      1.0  0.89795  0.67905  0.34122  1.0000
  N   N70       1.0  0.92673  0.69876  0.34237  1.0000
  C   C167      1.0  0.94699  0.69039  0.33905  1.0000
  N   N71       1.0  0.93784  0.66177  0.33628  1.0000
  C   C168      1.0  0.90948  0.64177  0.33503  1.0000
  N   N72       1.0  0.89004  0.65081  0.33765  1.0000
  C   C169      1.0  0.33459  0.22156  0.34078  1.0000
  N   N73       1.0  0.31489  0.23064  0.34215  1.0000
  C   C170      1.0  0.32326  0.25927  0.33914  1.0000
  N   N74       1.0  0.35188  0.27874  0.33654  1.0000
  C   C171      1.0  0.37188  0.27038  0.33515  1.0000
  N   N75       1.0  0.36284  0.24190  0.33747  1.0000
  C   C172      1.0  0.79207  0.11573  0.34081  1.0000
  N   N76       1.0  0.78301  0.08696  0.34215  1.0000
  C   C173      1.0  0.75438  0.06669  0.33914  1.0000
  N   N77       1.0  0.73489  0.07582  0.33654  1.0000
  C   C174      1.0  0.74324  0.10418  0.33517  1.0000
  N   N78       1.0  0.77171  0.12362  0.33750  1.0000
  C   C175      1.0  0.33466  0.11588  0.34847  1.0000
  N   N79       1.0  0.31506  0.08712  0.34313  1.0000
  C   C176      1.0  0.32357  0.06696  0.34067  1.0000
  N   N80       1.0  0.35219  0.07615  0.34537  1.0000
  C   C177      1.0  0.37213  0.10449  0.35034  1.0000
  N   N81       1.0  0.36288  0.12376  0.35316  1.0000
  C   C178      1.0  0.79225  0.67906  0.34853  1.0000
  N   N82       1.0  0.78308  0.69864  0.34305  1.0000
  C   C179      1.0  0.75441  0.69014  0.34036  1.0000
  N   N83       1.0  0.73499  0.66152  0.34518  1.0000
  C   C180      1.0  0.74339  0.64159  0.35038  1.0000
  N   N84       1.0  0.77191  0.65084  0.35328  1.0000
  C   C181      1.0  0.89777  0.22145  0.34812  1.0000
  N   N85       1.0  0.92653  0.23061  0.34292  1.0000
  C   C182      1.0  0.94671  0.25928  0.34048  1.0000
  N   N86       1.0  0.93751  0.27871  0.34526  1.0000
  C   C183      1.0  0.90917  0.27031  0.35016  1.0000
  N   N87       1.0  0.88990  0.24179  0.35291  1.0000
  C   C184      1.0  0.68176  0.89499  0.34836  1.0000
  N   N88       1.0  0.70138  0.92375  0.34322  1.0000
  C   C185      1.0  0.69290  0.94394  0.34080  1.0000
  N   N89       1.0  0.66429  0.93477  0.34547  1.0000
  C   C186      1.0  0.64433  0.90643  0.35026  1.0000
  N   N90       1.0  0.65355  0.88714  0.35304  1.0000
  C   C187      1.0  0.22425  0.33193  0.34846  1.0000
  N   N91       1.0  0.23340  0.31233  0.34326  1.0000
  C   C188      1.0  0.26208  0.32083  0.34101  1.0000
  N   N92       1.0  0.28150  0.34945  0.34569  1.0000
  C   C189      1.0  0.27311  0.36939  0.35046  1.0000
  N   N93       1.0  0.24459  0.36015  0.35315  1.0000
  C   C190      1.0  0.11866  0.78950  0.34856  1.0000
  N   N94       1.0  0.08990  0.78032  0.34313  1.0000
  C   C191      1.0  0.06973  0.75165  0.34058  1.0000
  N   N95       1.0  0.07894  0.73223  0.34545  1.0000
  C   C192      1.0  0.10728  0.74064  0.35057  1.0000
  N   N96       1.0  0.12654  0.76916  0.35336  1.0000
  C   C193      1.0  0.11721  0.41441  0.40615  1.0000
  C   C194      1.0  0.13129  0.44463  0.40525  1.0000
  H   H73       1.0  0.13306  0.45513  0.46456  1.0000
  H   H74       1.0  0.10893  0.40390  0.46573  1.0000
  C   C195      1.0  0.59923  0.70546  0.40624  1.0000
  C   C196      1.0  0.56901  0.68934  0.40537  1.0000
  H   H75       1.0  0.55851  0.68064  0.46470  1.0000
  H   H76       1.0  0.60974  0.70771  0.46582  1.0000
  C   C197      1.0  0.30832  0.89653  0.40567  1.0000
  C   C198      1.0  0.32446  0.88244  0.40463  1.0000
  H   H77       1.0  0.33325  0.88070  0.46382  1.0000
  H   H78       1.0  0.30619  0.90488  0.46524  1.0000
  C   C199      1.0  0.89936  0.59647  0.40571  1.0000
  C   C200      1.0  0.88527  0.56625  0.40467  1.0000
  H   H79       1.0  0.88358  0.55573  0.46385  1.0000
  H   H80       1.0  0.90775  0.60696  0.46525  1.0000
  C   C201      1.0  0.41715  0.30558  0.40600  1.0000
  C   C202      1.0  0.44737  0.32173  0.40507  1.0000
  H   H81       1.0  0.45787  0.33057  0.46427  1.0000
  H   H82       1.0  0.40664  0.30349  0.46548  1.0000
  C   C203      1.0  0.70803  0.11424  0.40604  1.0000
  C   C204      1.0  0.69196  0.12838  0.40518  1.0000
  H   H83       1.0  0.68307  0.13000  0.46434  1.0000
  H   H84       1.0  0.71015  0.10583  0.46551  1.0000
  C   C205      1.0  0.46324  0.14280  0.37068  1.0000
  C   C206      1.0  0.44705  0.14276  0.44673  1.0000
  C   C207      1.0  0.41652  0.12884  0.44072  1.0000
  C   C208      1.0  0.40186  0.11447  0.36108  1.0000
  N   N97       1.0  0.40163  0.12965  0.51372  1.0000
  C   C209      1.0  0.41419  0.14269  0.59211  1.0000
  C   C210      1.0  0.44411  0.15601  0.59920  1.0000
  N   N98       1.0  0.45953  0.15583  0.52682  1.0000
  H   H85       1.0  0.40193  0.14224  0.64524  1.0000
  H   H86       1.0  0.48018  0.16464  0.53475  1.0000
  C   C211      1.0  0.69050  0.55046  0.37079  1.0000
  C   C212      1.0  0.70671  0.56667  0.44676  1.0000
  C   C213      1.0  0.72334  0.59719  0.44074  1.0000
  C   C214      1.0  0.72363  0.61186  0.36112  1.0000
  N   N99       1.0  0.73909  0.61208  0.51368  1.0000
  C   C215      1.0  0.73959  0.59952  0.59205  1.0000
  C   C216      1.0  0.72294  0.56959  0.59918  1.0000
  N   N100      1.0  0.70730  0.55418  0.52684  1.0000
  H   H87       1.0  0.75143  0.61176  0.64514  1.0000
  H   H88       1.0  0.69545  0.53354  0.53479  1.0000
  C   C217      1.0  0.87090  0.32317  0.37073  1.0000
  C   C218      1.0  0.87098  0.30701  0.44672  1.0000
  C   C219      1.0  0.88489  0.29040  0.44068  1.0000
  C   C220      1.0  0.89920  0.29007  0.36097  1.0000
  N   N101      1.0  0.88410  0.27471  0.51368  1.0000
  C   C221      1.0  0.87108  0.27424  0.59211  1.0000
  C   C222      1.0  0.85778  0.29086  0.59925  1.0000
  N   N102      1.0  0.85796  0.30646  0.52687  1.0000
  H   H89       1.0  0.87155  0.26245  0.64526  1.0000
  H   H90       1.0  0.84912  0.31828  0.53479  1.0000
  C   C223      1.0  0.55323  0.86821  0.37072  1.0000
  C   C224      1.0  0.56944  0.86834  0.44686  1.0000
  C   C225      1.0  0.59996  0.88225  0.44082  1.0000
  C   C226      1.0  0.61460  0.89648  0.36101  1.0000
  N   N103      1.0  0.61486  0.88154  0.51393  1.0000
  C   C227      1.0  0.60231  0.86860  0.59245  1.0000
  C   C228      1.0  0.57239  0.85529  0.59957  1.0000
  N   N104      1.0  0.55696  0.85540  0.52709  1.0000
  H   H91       1.0  0.61457  0.86912  0.64568  1.0000
  H   H92       1.0  0.53631  0.84657  0.53497  1.0000
  C   C229      1.0  0.32594  0.46050  0.37092  1.0000
  C   C230      1.0  0.30982  0.44429  0.44699  1.0000
  C   C231      1.0  0.29322  0.41377  0.44093  1.0000
  C   C232      1.0  0.29287  0.39912  0.36120  1.0000
  N   N105      1.0  0.27755  0.39887  0.51397  1.0000
  C   C233      1.0  0.27709  0.41141  0.59242  1.0000
  C   C234      1.0  0.29372  0.44133  0.59958  1.0000
  N   N106      1.0  0.30929  0.45676  0.52715  1.0000
  H   H93       1.0  0.26534  0.39915  0.64563  1.0000
  H   H94       1.0  0.32113  0.47741  0.53509  1.0000
  C   C235      1.0  0.14554  0.68778  0.37095  1.0000
  C   C236      1.0  0.14557  0.70401  0.44693  1.0000
  C   C237      1.0  0.13167  0.72063  0.44090  1.0000
  C   C238      1.0  0.11725  0.72088  0.36133  1.0000
  N   N107      1.0  0.13255  0.73640  0.51382  1.0000
  C   C239      1.0  0.14566  0.73694  0.59213  1.0000
  C   C240      1.0  0.15892  0.72029  0.59929  1.0000
  N   N108      1.0  0.15867  0.70462  0.52697  1.0000
  H   H95       1.0  0.14523  0.74877  0.64525  1.0000
  H   H96       1.0  0.16745  0.69276  0.53494  1.0000
  C   C241      1.0  0.29618  0.52960  0.36447  1.0000
  C   C242      1.0  0.27737  0.52016  0.44012  1.0000
  C   C243      1.0  0.25072  0.51971  0.43425  1.0000
  C   C244      1.0  0.24304  0.52915  0.35551  1.0000
  N   N109      1.0  0.23278  0.51019  0.50659  1.0000
  C   C245      1.0  0.23902  0.50140  0.58438  1.0000
  C   C246      1.0  0.26541  0.50230  0.59156  1.0000
  N   N110      1.0  0.28357  0.51142  0.51978  1.0000
  H   H97       1.0  0.22498  0.49491  0.63710  1.0000
  H   H98       1.0  0.30201  0.51252  0.52800  1.0000
  C   C247      1.0  0.48413  0.76937  0.36438  1.0000
  C   C248      1.0  0.49359  0.76002  0.44003  1.0000
  C   C249      1.0  0.49405  0.73382  0.43417  1.0000
  C   C250      1.0  0.48457  0.71668  0.35549  1.0000
  N   N111      1.0  0.50360  0.72542  0.50649  1.0000
  C   C251      1.0  0.51242  0.74047  0.58424  1.0000
  C   C252      1.0  0.51152  0.76597  0.59140  1.0000
  N   N112      1.0  0.50235  0.77498  0.51966  1.0000
  H   H99       1.0  0.51894  0.73295  0.63693  1.0000
  H   H100      1.0  0.50125  0.79232  0.52786  1.0000
  C   C253      1.0  0.24436  0.71745  0.36413  1.0000
  C   C254      1.0  0.25381  0.73620  0.43992  1.0000
  C   C255      1.0  0.28002  0.76284  0.43401  1.0000
  C   C256      1.0  0.29706  0.77057  0.35509  1.0000
  N   N113      1.0  0.28853  0.78073  0.50649  1.0000
  C   C257      1.0  0.27359  0.77444  0.58445  1.0000
  C   C258      1.0  0.24808  0.74806  0.59166  1.0000
  N   N114      1.0  0.23895  0.72995  0.51975  1.0000
  H   H101      1.0  0.28120  0.78844  0.63727  1.0000
  H   H102      1.0  0.22160  0.71151  0.52796  1.0000
  C   C259      1.0  0.72021  0.48133  0.36403  1.0000
  C   C260      1.0  0.73895  0.49065  0.43984  1.0000
  C   C261      1.0  0.76559  0.49108  0.43398  1.0000
  C   C262      1.0  0.77332  0.48177  0.35508  1.0000
  N   N115      1.0  0.78348  0.50048  0.50647  1.0000
  C   C263      1.0  0.77719  0.50915  0.58439  1.0000
  C   C264      1.0  0.75079  0.50826  0.59156  1.0000
  N   N116      1.0  0.73269  0.49927  0.51964  1.0000
  H   H103      1.0  0.79117  0.51554  0.63722  1.0000
  H   H104      1.0  0.71425  0.49818  0.52781  1.0000
  C   C265      1.0  0.53240  0.24162  0.36422  1.0000
  C   C266      1.0  0.52308  0.25104  0.44006  1.0000
  C   C267      1.0  0.52263  0.27724  0.43426  1.0000
  C   C268      1.0  0.53192  0.29430  0.35539  1.0000
  N   N117      1.0  0.51322  0.28571  0.50680  1.0000
  C   C269      1.0  0.50456  0.27073  0.58469  1.0000
  C   C270      1.0  0.50547  0.24524  0.59179  1.0000
  N   N118      1.0  0.51449  0.23616  0.51984  1.0000
  H   H105      1.0  0.49818  0.27832  0.63757  1.0000
  H   H106      1.0  0.51556  0.21879  0.52794  1.0000
  C   C271      1.0  0.77207  0.29347  0.36421  1.0000
  C   C272      1.0  0.76267  0.27474  0.44003  1.0000
  C   C273      1.0  0.73646  0.24809  0.43425  1.0000
  C   C274      1.0  0.71939  0.24033  0.35541  1.0000
  N   N119      1.0  0.72800  0.23021  0.50678  1.0000
  C   C275      1.0  0.74300  0.23652  0.58463  1.0000
  C   C276      1.0  0.76851  0.26291  0.59170  1.0000
  N   N120      1.0  0.77757  0.28102  0.51978  1.0000
  H   H107      1.0  0.73542  0.22254  0.63750  1.0000
  H   H108      1.0  0.79494  0.29945  0.52786  1.0000
  C   C277      1.0  0.16407  0.59640  0.39486  1.0000
  C   C278      1.0  0.16395  0.57016  0.39212  1.0000
  H   H109      1.0  0.15649  0.55695  0.44718  1.0000
  H   H110      1.0  0.15667  0.60138  0.45171  1.0000
  C   C279      1.0  0.41731  0.57035  0.39452  1.0000
  C   C280      1.0  0.44356  0.59648  0.39177  1.0000
  H   H111      1.0  0.45682  0.60217  0.44668  1.0000
  H   H112      1.0  0.41239  0.55793  0.45123  1.0000
  C   C281      1.0  0.44326  0.84955  0.39494  1.0000
  C   C282      1.0  0.41713  0.84966  0.39220  1.0000
  H   H113      1.0  0.41135  0.85708  0.44729  1.0000
  H   H114      1.0  0.45561  0.85692  0.45183  1.0000
  C   C283      1.0  0.85238  0.41454  0.39466  1.0000
  C   C284      1.0  0.85243  0.44076  0.39202  1.0000
  H   H115      1.0  0.85998  0.45401  0.44695  1.0000
  H   H116      1.0  0.85980  0.40957  0.45146  1.0000
  C   C285      1.0  0.59910  0.44059  0.39453  1.0000
  C   C286      1.0  0.57284  0.41447  0.39182  1.0000
  H   H117      1.0  0.55958  0.40881  0.44672  1.0000
  H   H118      1.0  0.60401  0.45307  0.45113  1.0000
  C   C287      1.0  0.57315  0.16134  0.39486  1.0000
  C   C288      1.0  0.59929  0.16123  0.39217  1.0000
  H   H119      1.0  0.60501  0.15374  0.44722  1.0000
  H   H120      1.0  0.56077  0.15394  0.45169  1.0000
  C   C289      1.0  0.97701  0.27014  0.34484  1.0000
  C   C290      1.0  0.99285  0.28099  0.42648  1.0000
  C   C291      1.0  0.02360  0.29634  0.42454  1.0000
  C   C292      1.0  0.03917  0.30110  0.34310  1.0000
  N   N121      1.0  0.03797  0.30699  0.50335  1.0000
  C   C293      1.0  0.02480  0.30366  0.58370  1.0000
  C   C294      1.0  0.99473  0.28852  0.58647  1.0000
  N   N122      1.0  0.97979  0.27781  0.50855  1.0000
  H   H121      1.0  0.03668  0.31206  0.64083  1.0000
  O   O25       1.0  0.98099  0.28479  0.66601  1.0000
  H   H122      1.0  0.95896  0.26733  0.51312  1.0000
  C   C295      1.0  0.74355  0.70958  0.34451  1.0000
  C   C296      1.0  0.73309  0.71495  0.42633  1.0000
  C   C297      1.0  0.71773  0.73035  0.42442  1.0000
  C   C298      1.0  0.71257  0.74077  0.34283  1.0000
  N   N123      1.0  0.70741  0.73440  0.50343  1.0000
  C   C299      1.0  0.71108  0.72488  0.58393  1.0000
  C   C300      1.0  0.72622  0.70995  0.58666  1.0000
  N   N124      1.0  0.73660  0.70540  0.50855  1.0000
  H   H123      1.0  0.70292  0.72860  0.64120  1.0000
  O   O26       1.0  0.73025  0.70024  0.66633  1.0000
  H   H124      1.0  0.74707  0.69504  0.51308  1.0000
  C   C301      1.0  0.30413  0.03665  0.34482  1.0000
  C   C302      1.0  0.29888  0.02083  0.42661  1.0000
  C   C303      1.0  0.28348  0.99008  0.42469  1.0000
  C   C304      1.0  0.27297  0.97452  0.34311  1.0000
  N   N125      1.0  0.27953  0.97570  0.50363  1.0000
  C   C305      1.0  0.28914  0.98889  0.58409  1.0000
  C   C306      1.0  0.30406  0.01896  0.58684  1.0000
  N   N126      1.0  0.30853  0.03389  0.50879  1.0000
  H   H125      1.0  0.28548  0.97700  0.64131  1.0000
  O   O27       1.0  0.31386  0.03270  0.66647  1.0000
  H   H126      1.0  0.31888  0.05472  0.51333  1.0000
  C   C307      1.0  0.03943  0.74076  0.34483  1.0000
  C   C308      1.0  0.02361  0.73001  0.42657  1.0000
  C   C309      1.0  0.99286  0.71465  0.42469  1.0000
  C   C310      1.0  0.97729  0.70979  0.34324  1.0000
  N   N127      1.0  0.97850  0.70407  0.50356  1.0000
  C   C311      1.0  0.99169  0.70749  0.58392  1.0000
  C   C312      1.0  0.02176  0.72264  0.58664  1.0000
  N   N128      1.0  0.03668  0.73326  0.50866  1.0000
  H   H127      1.0  0.97982  0.69915  0.64111  1.0000
  O   O28       1.0  0.03552  0.72646  0.66619  1.0000
  H   H128      1.0  0.05752  0.74376  0.51319  1.0000
  C   C313      1.0  0.27294  0.30138  0.34532  1.0000
  C   C314      1.0  0.28397  0.29657  0.42686  1.0000
  C   C315      1.0  0.29931  0.28117  0.42487  1.0000
  C   C316      1.0  0.30386  0.27016  0.34350  1.0000
  N   N129      1.0  0.31015  0.27762  0.50355  1.0000
  C   C317      1.0  0.30701  0.28763  0.58382  1.0000
  C   C318      1.0  0.29187  0.30256  0.58666  1.0000
  N   N130      1.0  0.28099  0.30664  0.50886  1.0000
  H   H129      1.0  0.31553  0.28426  0.64086  1.0000
  O   O29       1.0  0.28830  0.31272  0.66614  1.0000
  H   H130      1.0  0.27051  0.31698  0.51349  1.0000
  C   C319      1.0  0.71235  0.97424  0.34520  1.0000
  C   C320      1.0  0.71722  0.99008  0.42677  1.0000
  C   C321      1.0  0.73259  0.02083  0.42482  1.0000
  C   C322      1.0  0.74350  0.03639  0.34342  1.0000
  N   N131      1.0  0.73619  0.03521  0.50356  1.0000
  C   C323      1.0  0.72625  0.02203  0.58385  1.0000
  C   C324      1.0  0.71135  0.99196  0.58665  1.0000
  N   N132      1.0  0.70723  0.97702  0.50879  1.0000
  H   H131      1.0  0.72966  0.03392  0.64094  1.0000
  O   O30       1.0  0.70127  0.97822  0.66615  1.0000
  H   H132      1.0  0.69691  0.95620  0.51339  1.0000
  C   C325      1.0  0.19499  0.32534  0.35576  1.0000
  C   C326      1.0  0.18505  0.33366  0.43298  1.0000
  C   C327      1.0  0.15856  0.33384  0.42907  1.0000
  C   C328      1.0  0.14121  0.32548  0.35045  1.0000
  N   N133      1.0  0.15029  0.34283  0.50304  1.0000
  C   C329      1.0  0.16551  0.35127  0.58052  1.0000
  C   C330      1.0  0.19123  0.35071  0.58558  1.0000
  N   N134      1.0  0.20021  0.34213  0.51234  1.0000
  H   H133      1.0  0.15813  0.35762  0.63410  1.0000
  O   O31       1.0  0.20658  0.35845  0.66297  1.0000
  H   H134      1.0  0.21795  0.34163  0.51881  1.0000
  C   C331      1.0  0.68834  0.87232  0.35590  1.0000
  C   C332      1.0  0.67992  0.85405  0.43309  1.0000
  C   C333      1.0  0.67969  0.82735  0.42927  1.0000
  C   C334      1.0  0.68811  0.81838  0.35076  1.0000
  N   N135      1.0  0.67061  0.81006  0.50318  1.0000
  C   C335      1.0  0.66212  0.81686  0.58055  1.0000
  C   C336      1.0  0.66272  0.84316  0.58554  1.0000
  N   N136      1.0  0.67139  0.86073  0.51233  1.0000
  H   H135      1.0  0.65570  0.80311  0.63412  1.0000
  O   O32       1.0  0.65495  0.85079  0.66284  1.0000
  H   H136      1.0  0.67192  0.87899  0.51875  1.0000
  C   C337      1.0  0.14130  0.81875  0.35601  1.0000
  C   C338      1.0  0.15950  0.82873  0.43333  1.0000
  C   C339      1.0  0.18620  0.85520  0.42947  1.0000
  C   C340      1.0  0.19527  0.87249  0.35074  1.0000
  N   N137      1.0  0.20341  0.86350  0.50357  1.0000
  C   C341      1.0  0.19654  0.84831  0.58114  1.0000
  C   C342      1.0  0.17024  0.82261  0.58615  1.0000
  N   N138      1.0  0.15274  0.81361  0.51277  1.0000
  H   H137      1.0  0.21024  0.85571  0.63484  1.0000
  O   O33       1.0  0.16255  0.80729  0.66361  1.0000
  H   H138      1.0  0.13450  0.79588  0.51916  1.0000
  C   C343      1.0  0.82150  0.68568  0.35602  1.0000
  C   C344      1.0  0.83147  0.67743  0.43332  1.0000
  C   C345      1.0  0.85795  0.67722  0.42948  1.0000
  C   C346      1.0  0.87525  0.68547  0.35078  1.0000
  N   N139      1.0  0.86624  0.66830  0.50356  1.0000
  C   C347      1.0  0.85104  0.65995  0.58110  1.0000
  C   C348      1.0  0.82533  0.66053  0.58609  1.0000
  N   N140      1.0  0.81634  0.66905  0.51272  1.0000
  H   H139      1.0  0.85843  0.65364  0.63478  1.0000
  O   O34       1.0  0.81000  0.65288  0.66352  1.0000
  H   H140      1.0  0.79860  0.66955  0.51910  1.0000
  C   C349      1.0  0.32805  0.13853  0.35584  1.0000
  C   C350      1.0  0.33636  0.15679  0.43302  1.0000
  C   C351      1.0  0.33653  0.18347  0.42907  1.0000
  C   C352      1.0  0.32817  0.19245  0.35041  1.0000
  N   N141      1.0  0.34551  0.20074  0.50303  1.0000
  C   C353      1.0  0.35396  0.19396  0.58052  1.0000
  C   C354      1.0  0.35340  0.16768  0.58563  1.0000
  N   N142      1.0  0.34483  0.15012  0.51239  1.0000
  H   H141      1.0  0.36028  0.20769  0.63412  1.0000
  O   O35       1.0  0.36112  0.16007  0.66305  1.0000
  H   H142      1.0  0.34433  0.13189  0.51887  1.0000
  C   C355      1.0  0.87514  0.19219  0.35562  1.0000
  C   C356      1.0  0.85686  0.18228  0.43281  1.0000
  C   C357      1.0  0.83017  0.15580  0.42899  1.0000
  C   C358      1.0  0.82118  0.13845  0.35039  1.0000
  N   N143      1.0  0.81291  0.14756  0.50296  1.0000
  C   C359      1.0  0.81972  0.16281  0.58039  1.0000
  C   C360      1.0  0.84602  0.18851  0.58541  1.0000
  N   N144      1.0  0.86357  0.19746  0.51213  1.0000
  H   H143      1.0  0.80600  0.15545  0.63402  1.0000
  O   O36       1.0  0.85367  0.20387  0.66279  1.0000
  H   H144      1.0  0.88182  0.21518  0.51857  1.0000
