data_image0
_chemical_formula_structural       C2NC2O2CH3C2NC2O2CH3NCHNCHNCHNCHC2NC2O2CH3C2NC2O2CH3C2NC2O2CH3C2NC2O2CH3NCHNCHNCHNCHC2NC2O2CH3C2NC2O2CH3C2NC2O2CH3C2NC2O2CH3CNCNCNCNCNCNCNCNCNCNCNCNCNCNCNCNCNCNCNCNCNCNCNCNCNCNCNCNCNCNCNCNCNCNCNCN2CHNCHC2NC2O2CH3C2NC2O2CH3C2NC2O2CH3C2NC2O2CH3NCHNCHNCHNCHC2NC2O2CH3C2NC2O2CH3C2NC2O2CH3C2NC2O2CH3NCHNCHNCHNCH
_chemical_formula_sum              "C144 N72 O36 H72"
_cell_length_a       33.8296
_cell_length_b       33.6686
_cell_length_c       14.8964
_cell_angle_alpha    90
_cell_angle_beta     90
_cell_angle_gamma    90.2806

_space_group_name_H-M_alt    "P 1"
_space_group_IT_number       1

loop_
  _space_group_symop_operation_xyz
  'x, y, z'

loop_
  _atom_site_type_symbol
  _atom_site_label
  _atom_site_symmetry_multiplicity
  _atom_site_fract_x
  _atom_site_fract_y
  _atom_site_fract_z
  _atom_site_occupancy
  C   C1        1.0  0.03322  0.47140  0.32901  1.0000
  C   C2        1.0  0.97144  0.52780  0.33198  1.0000
  N   N1        1.0  0.00967  0.53824  0.31618  1.0000
  C   C3        1.0  0.04066  0.51255  0.31367  1.0000
  C   C4        1.0  0.07716  0.52823  0.29209  1.0000
  O   O1        1.0  0.09234  0.54860  0.35069  1.0000
  O   O2        1.0  0.07989  0.54324  0.20926  1.0000
  C   C5        1.0  0.10382  0.51930  0.15084  1.0000
  H   H1        1.0  0.10467  0.53358  0.08519  1.0000
  H   H2        1.0  0.09130  0.48953  0.14224  1.0000
  H   H3        1.0  0.13415  0.51704  0.17549  1.0000
  C   C6        1.0  0.52962  0.03075  0.32878  1.0000
  C   C7        1.0  0.47240  0.96918  0.33211  1.0000
  N   N2        1.0  0.46271  0.00757  0.31523  1.0000
  C   C8        1.0  0.48883  0.03847  0.31257  1.0000
  C   C9        1.0  0.47390  0.07509  0.28962  1.0000
  O   O3        1.0  0.45445  0.09102  0.34857  1.0000
  O   O4        1.0  0.45847  0.07834  0.20747  1.0000
  C   C10       1.0  0.48360  0.10025  0.14714  1.0000
  H   H4        1.0  0.46896  0.10158  0.08202  1.0000
  H   H5        1.0  0.51212  0.08567  0.13791  1.0000
  H   H6        1.0  0.48836  0.13069  0.17041  1.0000
  N   N3        1.0  0.08386  0.26191  0.34360  1.0000
  C   C11       1.0  0.09617  0.30013  0.33749  1.0000
  H   H7        1.0  0.12516  0.30563  0.32259  1.0000
  N   N4        1.0  0.91912  0.73602  0.33879  1.0000
  C   C12       1.0  0.90688  0.69773  0.33362  1.0000
  H   H8        1.0  0.87781  0.69203  0.31993  1.0000
  N   N5        1.0  0.73888  0.08141  0.34302  1.0000
  C   C13       1.0  0.70097  0.09389  0.33718  1.0000
  H   H9        1.0  0.69582  0.12306  0.32258  1.0000
  N   N6        1.0  0.26446  0.91662  0.33710  1.0000
  C   C14       1.0  0.30245  0.90424  0.33189  1.0000
  H   H10       1.0  0.30780  0.87506  0.31777  1.0000
  C   C15       1.0  0.45594  0.75006  0.31424  1.0000
  C   C16       1.0  0.43335  0.83052  0.32314  1.0000
  N   N7        1.0  0.47114  0.81949  0.30499  1.0000
  C   C17       1.0  0.48384  0.78118  0.29986  1.0000
  C   C18       1.0  0.52267  0.77483  0.27672  1.0000
  O   O5        1.0  0.54746  0.78768  0.32904  1.0000
  O   O6        1.0  0.53155  0.78192  0.19074  1.0000
  C   C19       1.0  0.53938  0.74619  0.14101  1.0000
  H   H11       1.0  0.54716  0.75461  0.07257  1.0000
  H   H12       1.0  0.51333  0.72693  0.13793  1.0000
  H   H13       1.0  0.56422  0.72973  0.16949  1.0000
  C   C20       1.0  0.54811  0.24876  0.30962  1.0000
  C   C21       1.0  0.57115  0.16848  0.31871  1.0000
  N   N8        1.0  0.53333  0.17932  0.30029  1.0000
  C   C22       1.0  0.52041  0.21752  0.29492  1.0000
  C   C23       1.0  0.48156  0.22356  0.27150  1.0000
  O   O7        1.0  0.45680  0.21026  0.32333  1.0000
  O   O8        1.0  0.47294  0.21649  0.18537  1.0000
  C   C24       1.0  0.46447  0.25214  0.13592  1.0000
  H   H14       1.0  0.45696  0.24368  0.06735  1.0000
  H   H15       1.0  0.49017  0.27191  0.13319  1.0000
  H   H16       1.0  0.43929  0.26805  0.16434  1.0000
  C   C25       1.0  0.75238  0.54548  0.31575  1.0000
  C   C26       1.0  0.83308  0.56678  0.32463  1.0000
  N   N9        1.0  0.82112  0.52909  0.30556  1.0000
  C   C27       1.0  0.78262  0.51701  0.30045  1.0000
  C   C28       1.0  0.77521  0.47820  0.27609  1.0000
  O   O9        1.0  0.78731  0.45316  0.32857  1.0000
  O   O10       1.0  0.78203  0.47022  0.18964  1.0000
  C   C29       1.0  0.74638  0.46180  0.14042  1.0000
  H   H17       1.0  0.75458  0.45483  0.07144  1.0000
  H   H18       1.0  0.72674  0.48749  0.13894  1.0000
  H   H19       1.0  0.73057  0.43618  0.16811  1.0000
  C   C30       1.0  0.25119  0.45255  0.31030  1.0000
  C   C31       1.0  0.17072  0.43039  0.31933  1.0000
  N   N10       1.0  0.18232  0.46828  0.30120  1.0000
  C   C32       1.0  0.22066  0.48078  0.29598  1.0000
  C   C33       1.0  0.22758  0.51979  0.27281  1.0000
  O   O11       1.0  0.21565  0.54413  0.32726  1.0000
  O   O12       1.0  0.22040  0.52935  0.18744  1.0000
  C   C34       1.0  0.25594  0.53728  0.13742  1.0000
  H   H20       1.0  0.24747  0.54550  0.06932  1.0000
  H   H21       1.0  0.27470  0.51099  0.13332  1.0000
  H   H22       1.0  0.27277  0.56197  0.16630  1.0000
  N   N11       1.0  0.08712  0.08492  0.28344  1.0000
  C   C35       1.0  0.10909  0.05184  0.27414  1.0000
  H   H23       1.0  0.10056  0.03090  0.22824  1.0000
  N   N12       1.0  0.91467  0.91288  0.28037  1.0000
  C   C36       1.0  0.89250  0.94591  0.27239  1.0000
  H   H24       1.0  0.90036  0.96685  0.22591  1.0000
  N   N13       1.0  0.91687  0.08233  0.28677  1.0000
  C   C37       1.0  0.95041  0.10393  0.27966  1.0000
  H   H25       1.0  0.97173  0.09492  0.23558  1.0000
  N   N14       1.0  0.08635  0.91563  0.28173  1.0000
  C   C38       1.0  0.05266  0.89428  0.27429  1.0000
  H   H26       1.0  0.03141  0.90348  0.23023  1.0000
  C   C39       1.0  0.40983  0.61277  0.33324  1.0000
  C   C40       1.0  0.36390  0.54321  0.33965  1.0000
  N   N15       1.0  0.35605  0.57293  0.28051  1.0000
  C   C41       1.0  0.37665  0.60801  0.27528  1.0000
  C   C42       1.0  0.36799  0.63420  0.20637  1.0000
  O   O13       1.0  0.35149  0.62064  0.13970  1.0000
  O   O14       1.0  0.35565  0.67024  0.23222  1.0000
  C   C43       1.0  0.36517  0.70204  0.17096  1.0000
  H   H27       1.0  0.35611  0.72994  0.20163  1.0000
  H   H28       1.0  0.34920  0.69871  0.10764  1.0000
  H   H29       1.0  0.39689  0.70374  0.15733  1.0000
  C   C44       1.0  0.59380  0.38586  0.33125  1.0000
  C   C45       1.0  0.63949  0.45536  0.34193  1.0000
  N   N16       1.0  0.64727  0.42650  0.28067  1.0000
  C   C46       1.0  0.62684  0.39141  0.27318  1.0000
  C   C47       1.0  0.63527  0.36649  0.20161  1.0000
  O   O15       1.0  0.65349  0.38066  0.13793  1.0000
  O   O16       1.0  0.64513  0.32911  0.22289  1.0000
  C   C48       1.0  0.63342  0.29969  0.15760  1.0000
  H   H30       1.0  0.64063  0.27048  0.18429  1.0000
  H   H31       1.0  0.64946  0.30360  0.09453  1.0000
  H   H32       1.0  0.60164  0.30049  0.14436  1.0000
  C   C49       1.0  0.61649  0.59343  0.33654  1.0000
  C   C50       1.0  0.54717  0.63873  0.34388  1.0000
  N   N17       1.0  0.57596  0.64602  0.28221  1.0000
  C   C51       1.0  0.61096  0.62580  0.27631  1.0000
  C   C52       1.0  0.63596  0.63355  0.20440  1.0000
  O   O17       1.0  0.62167  0.65060  0.13941  1.0000
  O   O18       1.0  0.67295  0.64413  0.22652  1.0000
  C   C53       1.0  0.70263  0.63239  0.16246  1.0000
  H   H33       1.0  0.73153  0.64013  0.18986  1.0000
  H   H34       1.0  0.69906  0.64814  0.09888  1.0000
  H   H35       1.0  0.70201  0.60038  0.15004  1.0000
  C   C54       1.0  0.38721  0.40529  0.32995  1.0000
  C   C55       1.0  0.45649  0.36003  0.33775  1.0000
  N   N18       1.0  0.42764  0.35247  0.27637  1.0000
  C   C56       1.0  0.39266  0.37271  0.27026  1.0000
  C   C57       1.0  0.36739  0.36451  0.19914  1.0000
  O   O19       1.0  0.38155  0.34699  0.13458  1.0000
  O   O20       1.0  0.33011  0.35467  0.22023  1.0000
  C   C58       1.0  0.30097  0.36683  0.15528  1.0000
  H   H36       1.0  0.27181  0.35959  0.18191  1.0000
  H   H37       1.0  0.30461  0.35095  0.09187  1.0000
  H   H38       1.0  0.30219  0.39881  0.14273  1.0000
  C   C59       1.0  0.12998  0.42061  0.32539  1.0000
  N   N19       1.0  0.10160  0.44900  0.32376  1.0000
  C   C60       1.0  0.06226  0.44061  0.33045  1.0000
  N   N20       1.0  0.05178  0.40154  0.33967  1.0000
  C   C61       1.0  0.07908  0.37184  0.34140  1.0000
  N   N21       1.0  0.11777  0.38238  0.33419  1.0000
  C   C62       1.0  0.87392  0.57643  0.32934  1.0000
  N   N22       1.0  0.90253  0.54811  0.32865  1.0000
  C   C63       1.0  0.94175  0.55755  0.33314  1.0000
  N   N23       1.0  0.95191  0.59677  0.33837  1.0000
  C   C64       1.0  0.92432  0.62610  0.33946  1.0000
  N   N24       1.0  0.88575  0.61495  0.33483  1.0000
  C   C65       1.0  0.58112  0.12774  0.32491  1.0000
  N   N25       1.0  0.55273  0.09916  0.32336  1.0000
  C   C66       1.0  0.56074  0.05970  0.33013  1.0000
  N   N26       1.0  0.59954  0.04927  0.33939  1.0000
  C   C67       1.0  0.62932  0.07680  0.34105  1.0000
  N   N27       1.0  0.61913  0.11569  0.33376  1.0000
  C   C68       1.0  0.42329  0.87131  0.32823  1.0000
  N   N28       1.0  0.45155  0.90021  0.32812  1.0000
  C   C69       1.0  0.44239  0.93951  0.33299  1.0000
  N   N29       1.0  0.40339  0.94952  0.33800  1.0000
  C   C70       1.0  0.37404  0.92163  0.33859  1.0000
  N   N30       1.0  0.38495  0.88289  0.33360  1.0000
  C   C71       1.0  0.99415  0.15374  0.34714  1.0000
  N   N31       1.0  0.00088  0.19338  0.35581  1.0000
  C   C72       1.0  0.03836  0.20856  0.36132  1.0000
  N   N32       1.0  0.06922  0.18249  0.35833  1.0000
  C   C73       1.0  0.06362  0.14263  0.35166  1.0000
  N   N33       1.0  0.02588  0.12937  0.34469  1.0000
  C   C74       1.0  0.00870  0.84449  0.34118  1.0000
  N   N34       1.0  0.00206  0.80480  0.34921  1.0000
  C   C75       1.0  0.96464  0.78953  0.35501  1.0000
  N   N35       1.0  0.93375  0.81555  0.35326  1.0000
  C   C76       1.0  0.93927  0.85545  0.34751  1.0000
  N   N36       1.0  0.97695  0.86886  0.33999  1.0000
  C   C77       1.0  0.84500  0.99040  0.34372  1.0000
  N   N37       1.0  0.80572  0.99757  0.35304  1.0000
  C   C78       1.0  0.79141  0.03535  0.35995  1.0000
  N   N38       1.0  0.81804  0.06609  0.35789  1.0000
  C   C79       1.0  0.85759  0.06000  0.35031  1.0000
  N   N39       1.0  0.86991  0.02196  0.34214  1.0000
  C   C80       1.0  0.15781  0.00743  0.34136  1.0000
  N   N40       1.0  0.19717  0.00033  0.34923  1.0000
  C   C81       1.0  0.21169  0.96256  0.35415  1.0000
  N   N41       1.0  0.18517  0.93174  0.35163  1.0000
  C   C82       1.0  0.14555  0.93770  0.34567  1.0000
  N   N42       1.0  0.13305  0.97575  0.33942  1.0000
  C   C83       1.0  0.50910  0.65509  0.33452  1.0000
  N   N43       1.0  0.50177  0.69444  0.32415  1.0000
  C   C84       1.0  0.46413  0.70857  0.31682  1.0000
  N   N44       1.0  0.43365  0.68177  0.31939  1.0000
  C   C85       1.0  0.43990  0.64213  0.32799  1.0000
  N   N45       1.0  0.47781  0.62989  0.33667  1.0000
  C   C86       1.0  0.49456  0.34361  0.32886  1.0000
  N   N46       1.0  0.50197  0.30425  0.31856  1.0000
  C   C87       1.0  0.53969  0.29018  0.31223  1.0000
  N   N47       1.0  0.57010  0.31700  0.31590  1.0000
  C   C88       1.0  0.56376  0.35661  0.32421  1.0000
  N   N48       1.0  0.52582  0.36883  0.33191  1.0000
  C   C89       1.0  0.65660  0.49345  0.33448  1.0000
  N   N49       1.0  0.69591  0.50035  0.32426  1.0000
  C   C90       1.0  0.71086  0.53800  0.31832  1.0000
  N   N50       1.0  0.68489  0.56898  0.32210  1.0000
  C   C91       1.0  0.64528  0.56313  0.33042  1.0000
  N   N51       1.0  0.63223  0.52518  0.33763  1.0000
  C   C92       1.0  0.34672  0.50517  0.33016  1.0000
  N   N52       1.0  0.30741  0.49816  0.31985  1.0000
  C   C93       1.0  0.29264  0.46044  0.31278  1.0000
  N   N53       1.0  0.31875  0.42957  0.31571  1.0000
  C   C94       1.0  0.35832  0.43551  0.32412  1.0000
  N   N54       1.0  0.37117  0.47348  0.33236  1.0000
  N   N55       1.0  0.99475  0.46106  0.34404  1.0000
  C   C95       1.0  0.96403  0.48693  0.34551  1.0000
  H   H39       1.0  0.93619  0.47639  0.35789  1.0000
  N   N56       1.0  0.53922  0.99212  0.34486  1.0000
  C   C96       1.0  0.51291  0.96148  0.34655  1.0000
  H   H40       1.0  0.52289  0.93349  0.35969  1.0000
  C   C97       1.0  0.04613  0.25027  0.36195  1.0000
  C   C98       1.0  0.06854  0.33104  0.34908  1.0000
  N   N57       1.0  0.03079  0.31974  0.36817  1.0000
  C   C99       1.0  0.01823  0.28123  0.37522  1.0000
  C   C100      1.0  0.97952  0.27443  0.39915  1.0000
  O   O21       1.0  0.95451  0.28651  0.34673  1.0000
  O   O22       1.0  0.97084  0.28206  0.48498  1.0000
  C   C101      1.0  0.96343  0.24661  0.53632  1.0000
  H   H41       1.0  0.95578  0.25547  0.60451  1.0000
  H   H42       1.0  0.98967  0.22785  0.53986  1.0000
  H   H43       1.0  0.93866  0.22947  0.50894  1.0000
  C   C102      1.0  0.95694  0.74781  0.35574  1.0000
  C   C103      1.0  0.93468  0.66698  0.34495  1.0000
  N   N58       1.0  0.97251  0.67846  0.36266  1.0000
  C   C104      1.0  0.98503  0.71699  0.36853  1.0000
  C   C105      1.0  0.02386  0.72389  0.39131  1.0000
  O   O23       1.0  0.04858  0.71198  0.33799  1.0000
  O   O24       1.0  0.03311  0.71617  0.47679  1.0000
  C   C106      1.0  0.04053  0.75158  0.52826  1.0000
  H   H44       1.0  0.04864  0.74267  0.59612  1.0000
  H   H45       1.0  0.01416  0.77012  0.53275  1.0000
  H   H46       1.0  0.06499  0.76897  0.50031  1.0000
  C   C107      1.0  0.75001  0.04343  0.36098  1.0000
  C   C108      1.0  0.66985  0.06621  0.34866  1.0000
  N   N59       1.0  0.68067  0.02823  0.36746  1.0000
  C   C109      1.0  0.71883  0.01549  0.37423  1.0000
  C   C110      1.0  0.72511  0.97649  0.39808  1.0000
  O   O25       1.0  0.71278  0.95183  0.34466  1.0000
  O   O26       1.0  0.71745  0.96828  0.48409  1.0000
  C   C111      1.0  0.75257  0.95983  0.53490  1.0000
  H   H47       1.0  0.74368  0.95262  0.60336  1.0000
  H   H48       1.0  0.77235  0.98557  0.53771  1.0000
  H   H49       1.0  0.76848  0.93433  0.50759  1.0000
  C   C112      1.0  0.25313  0.95459  0.35470  1.0000
  C   C113      1.0  0.33341  0.93202  0.34402  1.0000
  N   N60       1.0  0.32239  0.96997  0.36238  1.0000
  C   C114      1.0  0.28419  0.98265  0.36822  1.0000
  C   C115      1.0  0.27783  0.02164  0.39164  1.0000
  O   O27       1.0  0.28923  0.04597  0.33632  1.0000
  O   O28       1.0  0.28599  0.03134  0.47654  1.0000
  C   C116      1.0  0.25100  0.03854  0.52884  1.0000
  H   H50       1.0  0.26021  0.04694  0.59637  1.0000
  H   H51       1.0  0.23258  0.01186  0.53413  1.0000
  H   H52       1.0  0.23354  0.06287  0.50107  1.0000
  N   N61       1.0  0.41811  0.76136  0.33162  1.0000
  C   C117      1.0  0.40568  0.79952  0.33581  1.0000
  H   H53       1.0  0.37666  0.80498  0.35000  1.0000
  N   N62       1.0  0.58600  0.23765  0.32731  1.0000
  C   C118      1.0  0.59866  0.19958  0.33157  1.0000
  H   H54       1.0  0.62766  0.19422  0.34620  1.0000
  N   N63       1.0  0.76462  0.58321  0.33392  1.0000
  C   C119      1.0  0.80292  0.59500  0.33822  1.0000
  H   H55       1.0  0.80907  0.62401  0.35296  1.0000
  N   N64       1.0  0.23930  0.41460  0.32756  1.0000
  C   C120      1.0  0.20113  0.40238  0.33189  1.0000
  H   H56       1.0  0.19523  0.37326  0.34605  1.0000
  C   C121      1.0  0.09415  0.11409  0.34462  1.0000
  C   C122      1.0  0.14075  0.04546  0.33378  1.0000
  N   N65       1.0  0.14790  0.07432  0.39568  1.0000
  C   C123      1.0  0.12704  0.10899  0.40321  1.0000
  C   C124      1.0  0.13506  0.13405  0.47491  1.0000
  O   O29       1.0  0.15396  0.12049  0.53802  1.0000
  O   O30       1.0  0.14376  0.17184  0.45396  1.0000
  C   C125      1.0  0.13092  0.20064  0.51928  1.0000
  H   H57       1.0  0.13723  0.23018  0.49287  1.0000
  H   H58       1.0  0.14692  0.19733  0.58253  1.0000
  H   H59       1.0  0.09916  0.19847  0.53207  1.0000
  C   C126      1.0  0.90857  0.88384  0.34237  1.0000
  C   C127      1.0  0.86178  0.95235  0.33445  1.0000
  N   N66       1.0  0.85572  0.92369  0.39734  1.0000
  C   C128      1.0  0.87663  0.88901  0.40363  1.0000
  C   C129      1.0  0.86989  0.86446  0.47701  1.0000
  O   O31       1.0  0.85044  0.87777  0.53955  1.0000
  O   O32       1.0  0.86318  0.82597  0.45921  1.0000
  C   C130      1.0  0.87885  0.79903  0.52538  1.0000
  H   H60       1.0  0.87390  0.76877  0.50175  1.0000
  H   H61       1.0  0.86380  0.80234  0.58981  1.0000
  H   H62       1.0  0.91064  0.80329  0.53500  1.0000
  C   C131      1.0  0.88695  0.09014  0.34503  1.0000
  C   C132      1.0  0.95633  0.13622  0.33832  1.0000
  N   N67       1.0  0.92661  0.14436  0.39698  1.0000
  C   C133      1.0  0.89163  0.12371  0.40232  1.0000
  C   C134      1.0  0.86541  0.13258  0.47095  1.0000
  O   O33       1.0  0.87915  0.14906  0.53747  1.0000
  O   O34       1.0  0.82979  0.14498  0.44366  1.0000
  C   C135      1.0  0.79786  0.13594  0.50452  1.0000
  H   H63       1.0  0.77027  0.14502  0.47300  1.0000
  H   H64       1.0  0.80100  0.15232  0.56745  1.0000
  H   H65       1.0  0.79591  0.10416  0.51900  1.0000
  C   C136      1.0  0.11618  0.90756  0.34008  1.0000
  C   C137      1.0  0.04654  0.86196  0.33266  1.0000
  N   N68       1.0  0.07616  0.85354  0.39134  1.0000
  C   C138      1.0  0.11127  0.87394  0.39723  1.0000
  C   C139      1.0  0.13719  0.86473  0.46636  1.0000
  O   O35       1.0  0.12373  0.84556  0.52949  1.0000
  O   O36       1.0  0.17446  0.85622  0.44317  1.0000
  C   C140      1.0  0.20379  0.86798  0.50834  1.0000
  H   H66       1.0  0.23290  0.86179  0.48045  1.0000
  H   H67       1.0  0.20067  0.85106  0.57055  1.0000
  H   H68       1.0  0.20227  0.89972  0.52345  1.0000
  N   N69       1.0  0.41742  0.58280  0.39185  1.0000
  C   C141      1.0  0.39581  0.54919  0.39896  1.0000
  H   H69       1.0  0.40469  0.52774  0.44308  1.0000
  N   N70       1.0  0.58618  0.41502  0.39190  1.0000
  C   C142      1.0  0.60771  0.44859  0.40111  1.0000
  H   H70       1.0  0.59882  0.46949  0.44652  1.0000
  N   N71       1.0  0.58741  0.58630  0.39759  1.0000
  C   C143      1.0  0.55395  0.60767  0.40517  1.0000
  H   H71       1.0  0.53313  0.59915  0.45116  1.0000
  N   N72       1.0  0.41627  0.41254  0.39095  1.0000
  C   C144      1.0  0.44972  0.39119  0.39877  1.0000
  H   H72       1.0  0.47052  0.39980  0.44472  1.0000
