data_image0
_chemical_formula_structural       C2NCNC2H3CH3C2NCNC2H3CH3C2NCNC2H3CH3CNCNCNC18H12CNCNCNC18H12C2HC6H3C2HC6H3C2HC6H3
_chemical_formula_sum              "C84 N12 H54"
_cell_length_a       36.7289
_cell_length_b       36.729
_cell_length_c       14.9737
_cell_angle_alpha    90
_cell_angle_beta     90
_cell_angle_gamma    120

_space_group_name_H-M_alt    "P 1"
_space_group_IT_number       1

loop_
  _space_group_symop_operation_xyz
  'x, y, z'

loop_
  _atom_site_type_symbol
  _atom_site_label
  _atom_site_symmetry_multiplicity
  _atom_site_fract_x
  _atom_site_fract_y
  _atom_site_fract_z
  _atom_site_occupancy
  C   C1        1.0  0.55663  0.44555  0.33223  1.0000
  C   C2        1.0  0.54467  0.45752  0.25209  1.0000
  N   N1        1.0  0.52333  0.47885  0.25801  1.0000
  C   C3        1.0  0.51240  0.48979  0.33594  1.0000
  N   N2        1.0  0.47912  0.52307  0.25879  1.0000
  C   C4        1.0  0.45777  0.54442  0.25390  1.0000
  C   C5        1.0  0.55348  0.44871  0.16055  1.0000
  H   H1        1.0  0.57062  0.43158  0.15956  1.0000
  H   H2        1.0  0.57220  0.47830  0.12492  1.0000
  H   H3        1.0  0.52389  0.42999  0.12492  1.0000
  C   C6        1.0  0.44799  0.55420  0.16421  1.0000
  H   H4        1.0  0.45985  0.54234  0.11147  1.0000
  H   H5        1.0  0.46243  0.58817  0.15610  1.0000
  H   H6        1.0  0.41402  0.53976  0.15611  1.0000
  C   C7        1.0  0.55664  0.11152  0.33223  1.0000
  C   C8        1.0  0.54467  0.08758  0.25209  1.0000
  N   N3        1.0  0.52334  0.04492  0.25801  1.0000
  C   C9        1.0  0.51241  0.02306  0.33594  1.0000
  N   N4        1.0  0.47912  0.95649  0.25879  1.0000
  C   C10       1.0  0.45777  0.91379  0.25390  1.0000
  C   C11       1.0  0.55348  0.10521  0.16055  1.0000
  H   H7        1.0  0.57062  0.13948  0.15956  1.0000
  H   H8        1.0  0.52389  0.09434  0.12492  1.0000
  H   H9        1.0  0.57220  0.09434  0.12492  1.0000
  C   C12       1.0  0.44799  0.89423  0.16421  1.0000
  H   H10       1.0  0.45985  0.91795  0.11147  1.0000
  H   H11       1.0  0.41402  0.87470  0.15611  1.0000
  H   H12       1.0  0.46243  0.87470  0.15611  1.0000
  C   C13       1.0  0.89067  0.44555  0.33223  1.0000
  C   C14       1.0  0.91461  0.45752  0.25209  1.0000
  N   N5        1.0  0.95728  0.47886  0.25801  1.0000
  C   C15       1.0  0.97913  0.48979  0.33594  1.0000
  N   N6        1.0  0.04570  0.52307  0.25879  1.0000
  C   C16       1.0  0.08840  0.54442  0.25390  1.0000
  C   C17       1.0  0.89698  0.44871  0.16055  1.0000
  H   H13       1.0  0.86272  0.43158  0.15956  1.0000
  H   H14       1.0  0.90785  0.42999  0.12492  1.0000
  H   H15       1.0  0.90785  0.47830  0.12492  1.0000
  C   C18       1.0  0.10797  0.55420  0.16421  1.0000
  H   H16       1.0  0.08424  0.54234  0.11147  1.0000
  H   H17       1.0  0.12749  0.53976  0.15611  1.0000
  H   H18       1.0  0.12749  0.58817  0.15611  1.0000
  C   C19       1.0  0.35636  0.71096  0.33541  1.0000
  N   N7        1.0  0.37673  0.68858  0.33541  1.0000
  C   C20       1.0  0.35636  0.64583  0.33541  1.0000
  N   N8        1.0  0.31361  0.62546  0.33541  1.0000
  C   C21       1.0  0.29123  0.64583  0.33541  1.0000
  N   N9        1.0  0.31361  0.68858  0.33541  1.0000
  C   C22       1.0  0.37880  0.62339  0.33549  1.0000
  C   C23       1.0  0.42339  0.64484  0.33553  1.0000
  C   C24       1.0  0.44558  0.62279  0.33541  1.0000
  C   C25       1.0  0.42373  0.57846  0.33510  1.0000
  C   C26       1.0  0.37940  0.55661  0.33541  1.0000
  C   C27       1.0  0.35735  0.57880  0.33553  1.0000
  C   C28       1.0  0.37880  0.75585  0.33549  1.0000
  C   C29       1.0  0.42339  0.77899  0.33553  1.0000
  C   C30       1.0  0.44558  0.82323  0.33542  1.0000
  C   C31       1.0  0.42373  0.84571  0.33510  1.0000
  C   C32       1.0  0.37940  0.82323  0.33541  1.0000
  C   C33       1.0  0.35735  0.77899  0.33553  1.0000
  C   C34       1.0  0.24634  0.62339  0.33549  1.0000
  C   C35       1.0  0.22320  0.64484  0.33553  1.0000
  C   C36       1.0  0.17896  0.62279  0.33542  1.0000
  C   C37       1.0  0.15648  0.57846  0.33511  1.0000
  C   C38       1.0  0.17896  0.55661  0.33542  1.0000
  C   C39       1.0  0.22320  0.57880  0.33553  1.0000
  H   H19       1.0  0.47777  0.83888  0.33524  1.0000
  H   H20       1.0  0.44047  0.76392  0.33553  1.0000
  H   H21       1.0  0.36287  0.83888  0.33524  1.0000
  H   H22       1.0  0.32520  0.76392  0.33553  1.0000
  H   H23       1.0  0.23828  0.67699  0.33553  1.0000
  H   H24       1.0  0.16331  0.63932  0.33524  1.0000
  H   H25       1.0  0.23827  0.56172  0.33553  1.0000
  H   H26       1.0  0.16331  0.52442  0.33523  1.0000
  H   H27       1.0  0.32520  0.56172  0.33553  1.0000
  H   H28       1.0  0.36287  0.52442  0.33524  1.0000
  H   H29       1.0  0.47777  0.63932  0.33524  1.0000
  H   H30       1.0  0.44047  0.67699  0.33553  1.0000
  C   C40       1.0  0.64627  0.29078  0.33548  1.0000
  N   N10       1.0  0.62590  0.31317  0.33544  1.0000
  C   C41       1.0  0.64627  0.35592  0.33548  1.0000
  N   N11       1.0  0.68902  0.37629  0.33544  1.0000
  C   C42       1.0  0.71141  0.35592  0.33547  1.0000
  N   N12       1.0  0.68902  0.31317  0.33544  1.0000
  C   C43       1.0  0.62382  0.37837  0.33500  1.0000
  C   C44       1.0  0.57923  0.35692  0.33462  1.0000
  C   C45       1.0  0.55704  0.37898  0.33372  1.0000
  C   C46       1.0  0.57888  0.42331  0.33305  1.0000
  C   C47       1.0  0.62321  0.44515  0.33373  1.0000
  C   C48       1.0  0.64527  0.42296  0.33462  1.0000
  C   C49       1.0  0.62382  0.24588  0.33501  1.0000
  C   C50       1.0  0.57922  0.22274  0.33462  1.0000
  C   C51       1.0  0.55704  0.17850  0.33372  1.0000
  C   C52       1.0  0.57888  0.15601  0.33305  1.0000
  C   C53       1.0  0.62321  0.17850  0.33372  1.0000
  C   C54       1.0  0.64527  0.22274  0.33462  1.0000
  C   C55       1.0  0.75631  0.37837  0.33500  1.0000
  C   C56       1.0  0.77945  0.35692  0.33462  1.0000
  C   C57       1.0  0.82369  0.37898  0.33372  1.0000
  C   C58       1.0  0.84618  0.42331  0.33306  1.0000
  C   C59       1.0  0.82369  0.44515  0.33373  1.0000
  C   C60       1.0  0.77945  0.42296  0.33462  1.0000
  H   H31       1.0  0.52485  0.16284  0.33337  1.0000
  H   H32       1.0  0.56215  0.23781  0.33490  1.0000
  H   H33       1.0  0.63975  0.16284  0.33337  1.0000
  H   H34       1.0  0.67741  0.23781  0.33490  1.0000
  H   H35       1.0  0.76438  0.32478  0.33490  1.0000
  H   H36       1.0  0.83935  0.36244  0.33337  1.0000
  H   H37       1.0  0.76438  0.44004  0.33490  1.0000
  H   H38       1.0  0.83935  0.47735  0.33337  1.0000
  H   H39       1.0  0.67741  0.44004  0.33490  1.0000
  H   H40       1.0  0.63975  0.47735  0.33337  1.0000
  H   H41       1.0  0.52484  0.36244  0.33337  1.0000
  H   H42       1.0  0.56215  0.32478  0.33490  1.0000
  C   C61       1.0  0.52367  0.47852  0.41776  1.0000
  C   C62       1.0  0.54584  0.45635  0.41474  1.0000
  H   H43       1.0  0.55420  0.44799  0.47329  1.0000
  C   C63       1.0  0.49020  0.51199  0.33636  1.0000
  C   C64       1.0  0.44598  0.55620  0.33440  1.0000
  C   C65       1.0  0.45693  0.54526  0.41652  1.0000
  C   C66       1.0  0.47911  0.52308  0.41863  1.0000
  C   C67       1.0  0.49042  0.51177  0.49973  1.0000
  C   C68       1.0  0.51253  0.48966  0.49930  1.0000
  H   H44       1.0  0.48268  0.51951  0.55967  1.0000
  H   H45       1.0  0.52041  0.48178  0.55892  1.0000
  H   H46       1.0  0.44867  0.55352  0.47533  1.0000
  C   C69       1.0  0.52367  0.04559  0.41776  1.0000
  C   C70       1.0  0.54584  0.08993  0.41474  1.0000
  H   H47       1.0  0.55420  0.10665  0.47329  1.0000
  C   C71       1.0  0.49020  0.97865  0.33636  1.0000
  C   C72       1.0  0.44599  0.89021  0.33440  1.0000
  C   C73       1.0  0.45693  0.91209  0.41653  1.0000
  C   C74       1.0  0.47911  0.95646  0.41863  1.0000
  C   C75       1.0  0.49042  0.97909  0.49973  1.0000
  C   C76       1.0  0.51253  0.02331  0.49930  1.0000
  H   H48       1.0  0.48268  0.96360  0.55967  1.0000
  H   H49       1.0  0.52041  0.03906  0.55892  1.0000
  H   H50       1.0  0.44867  0.89558  0.47533  1.0000
  C   C77       1.0  0.95660  0.47852  0.41776  1.0000
  C   C78       1.0  0.91226  0.45635  0.41474  1.0000
  H   H51       1.0  0.89554  0.44799  0.47329  1.0000
  C   C79       1.0  0.02354  0.51199  0.33636  1.0000
  C   C80       1.0  0.11198  0.55621  0.33440  1.0000
  C   C81       1.0  0.09009  0.54526  0.41653  1.0000
  C   C82       1.0  0.04573  0.52308  0.41863  1.0000
  C   C83       1.0  0.02310  0.51177  0.49973  1.0000
  C   C84       1.0  0.97889  0.48966  0.49930  1.0000
  H   H52       1.0  0.03859  0.51951  0.55967  1.0000
  H   H53       1.0  0.96313  0.48179  0.55892  1.0000
  H   H54       1.0  0.10661  0.55352  0.47533  1.0000
