data_image0
_chemical_formula_structural       C2NCHCOCH2C3NH2C5NCONH2C5NCONH2C2H2C2H2C2H2C2H2C2H2C2H2C23H13C24H15C24H15C24H15C24H15C24H15CHC2H2C2H2C5NCONH2C5NCONH2C5NCONH2C5NCONH2C5NCONH2C5NCONH2
_chemical_formula_sum              "C216 N18 H126 O9"
_cell_length_a       61.5893
_cell_length_b       61.5894
_cell_length_c       14.9693
_cell_angle_alpha    90
_cell_angle_beta     90
_cell_angle_gamma    120

_space_group_name_H-M_alt    "P 1"
_space_group_IT_number       1

loop_
  _space_group_symop_operation_xyz
  'x, y, z'

loop_
  _atom_site_type_symbol
  _atom_site_label
  _atom_site_symmetry_multiplicity
  _atom_site_fract_x
  _atom_site_fract_y
  _atom_site_fract_z
  _atom_site_occupancy
  C   C1        1.0  0.01496  0.50974  0.22556  1.0000
  C   C2        1.0  0.02653  0.51844  0.14078  1.0000
  N   N1        1.0  0.01292  0.51077  0.06471  1.0000
  C   C3        1.0  0.01477  0.50784  0.38854  1.0000
  H   H1        1.0  0.02384  0.51192  0.44884  1.0000
  C   C4        1.0  0.02846  0.51606  0.30797  1.0000
  O   O1        1.0  0.05098  0.53567  0.12902  1.0000
  C   C5        1.0  0.05518  0.52887  0.31475  1.0000
  H   H2        1.0  0.06024  0.50217  0.24183  1.0000
  H   H3        1.0  0.05882  0.55923  0.39311  1.0000
  C   C6        1.0  0.97475  0.48678  0.30809  1.0000
  C   C7        1.0  0.98815  0.49426  0.22552  1.0000
  C   C8        1.0  0.98802  0.49465  0.06586  1.0000
  N   N2        1.0  0.97590  0.48666  0.14502  1.0000
  H   H4        1.0  0.97844  0.48905  0.00677  1.0000
  H   H5        1.0  0.95799  0.47490  0.14197  1.0000
  C   C9        1.0  0.51579  0.48852  0.30809  1.0000
  C   C10       1.0  0.50830  0.49442  0.22553  1.0000
  C   C11       1.0  0.49281  0.50575  0.22557  1.0000
  C   C12       1.0  0.48649  0.51293  0.30798  1.0000
  C   C13       1.0  0.48411  0.50862  0.14080  1.0000
  N   N3        1.0  0.49177  0.50267  0.06473  1.0000
  C   C14       1.0  0.50788  0.49388  0.06586  1.0000
  O   O2        1.0  0.46687  0.51583  0.12904  1.0000
  N   N4        1.0  0.51589  0.48977  0.14502  1.0000
  H   H6        1.0  0.51350  0.48993  0.00677  1.0000
  H   H7        1.0  0.52765  0.48363  0.14197  1.0000
  C   C15       1.0  0.51406  0.02781  0.30813  1.0000
  C   C16       1.0  0.50816  0.01442  0.22556  1.0000
  C   C17       1.0  0.49683  0.98761  0.22558  1.0000
  C   C18       1.0  0.48965  0.97411  0.30799  1.0000
  C   C19       1.0  0.49396  0.97604  0.14080  1.0000
  N   N5        1.0  0.49991  0.98965  0.06474  1.0000
  C   C20       1.0  0.50870  0.01456  0.06589  1.0000
  O   O3        1.0  0.48675  0.95159  0.12904  1.0000
  N   N6        1.0  0.51280  0.02667  0.14505  1.0000
  H   H8        1.0  0.51266  0.02413  0.00680  1.0000
  H   H9        1.0  0.51895  0.04458  0.14202  1.0000
  C   C21       1.0  0.25870  0.53885  0.27444  1.0000
  C   C22       1.0  0.28175  0.53946  0.27303  1.0000
  H   H10       1.0  0.29391  0.54891  0.22191  1.0000
  H   H11       1.0  0.25513  0.54798  0.22435  1.0000
  C   C23       1.0  0.46370  0.72038  0.27446  1.0000
  C   C24       1.0  0.46313  0.74284  0.27301  1.0000
  H   H12       1.0  0.45368  0.74557  0.22193  1.0000
  H   H13       1.0  0.45457  0.70768  0.22436  1.0000
  C   C25       1.0  0.28223  0.74384  0.27444  1.0000
  C   C26       1.0  0.25982  0.72078  0.27314  1.0000
  H   H14       1.0  0.25706  0.70862  0.22191  1.0000
  H   H15       1.0  0.29493  0.74742  0.22433  1.0000
  C   C27       1.0  0.74428  0.46294  0.27482  1.0000
  C   C28       1.0  0.72132  0.46251  0.27355  1.0000
  H   H16       1.0  0.70913  0.45317  0.22237  1.0000
  H   H17       1.0  0.74781  0.45384  0.22451  1.0000
  C   C29       1.0  0.53961  0.28187  0.27479  1.0000
  C   C30       1.0  0.54006  0.25935  0.27356  1.0000
  H   H18       1.0  0.54940  0.25649  0.22238  1.0000
  H   H19       1.0  0.54872  0.29451  0.22452  1.0000
  C   C31       1.0  0.72075  0.25824  0.27478  1.0000
  C   C32       1.0  0.74328  0.28119  0.27349  1.0000
  H   H20       1.0  0.74609  0.29341  0.22244  1.0000
  H   H21       1.0  0.70810  0.25472  0.22453  1.0000
  C   C33       1.0  0.17639  0.60781  0.34253  1.0000
  C   C34       1.0  0.15002  0.59454  0.33319  1.0000
  C   C35       1.0  0.13594  0.56790  0.33335  1.0000
  C   C36       1.0  0.14940  0.55479  0.34064  1.0000
  C   C37       1.0  0.17581  0.56748  0.34837  1.0000
  C   C38       1.0  0.18890  0.59393  0.34848  1.0000
  C   C39       1.0  0.10898  0.55470  0.32797  1.0000
  C   C40       1.0  0.09466  0.56411  0.36968  1.0000
  C   C41       1.0  0.06833  0.55155  0.36293  1.0000
  C   C42       1.0  0.06916  0.51875  0.27619  1.0000
  C   C43       1.0  0.09553  0.53165  0.28136  1.0000
  C   C44       1.0  0.19060  0.63449  0.34777  1.0000
  C   C45       1.0  0.18904  0.64990  0.28093  1.0000
  C   C46       1.0  0.20564  0.67603  0.28113  1.0000
  C   C47       1.0  0.22385  0.68748  0.34921  1.0000
  C   C48       1.0  0.22491  0.67213  0.41727  1.0000
  C   C49       1.0  0.20845  0.64611  0.41685  1.0000
  C   C50       1.0  0.18959  0.55459  0.35554  1.0000
  C   C51       1.0  0.20833  0.56169  0.42186  1.0000
  C   C52       1.0  0.22489  0.55225  0.42104  1.0000
  C   C53       1.0  0.22301  0.53508  0.35461  1.0000
  C   C54       1.0  0.20387  0.52738  0.28967  1.0000
  C   C55       1.0  0.18720  0.53682  0.29064  1.0000
  H   H22       1.0  0.20483  0.68657  0.22977  1.0000
  H   H23       1.0  0.17686  0.64207  0.22860  1.0000
  H   H24       1.0  0.23835  0.67964  0.46604  1.0000
  H   H25       1.0  0.21024  0.63559  0.46619  1.0000
  H   H26       1.0  0.21081  0.57470  0.46937  1.0000
  H   H27       1.0  0.23904  0.55888  0.46726  1.0000
  H   H28       1.0  0.17447  0.53194  0.23986  1.0000
  H   H29       1.0  0.20253  0.51555  0.23923  1.0000
  H   H30       1.0  0.10481  0.52410  0.24885  1.0000
  H   H31       1.0  0.10322  0.58022  0.40667  1.0000
  H   H32       1.0  0.14100  0.60462  0.32728  1.0000
  H   H33       1.0  0.20810  0.60338  0.35169  1.0000
  H   H34       1.0  0.13986  0.53562  0.34380  1.0000
  C   C56       1.0  0.39472  0.56909  0.34251  1.0000
  C   C57       1.0  0.40800  0.55600  0.33318  1.0000
  C   C58       1.0  0.43464  0.56856  0.33336  1.0000
  C   C59       1.0  0.44775  0.59513  0.34065  1.0000
  C   C60       1.0  0.43505  0.60885  0.34837  1.0000
  C   C61       1.0  0.40859  0.59547  0.34849  1.0000
  C   C62       1.0  0.44784  0.55480  0.32798  1.0000
  C   C63       1.0  0.43844  0.53107  0.36970  1.0000
  C   C64       1.0  0.45100  0.51731  0.36296  1.0000
  C   C65       1.0  0.47368  0.52684  0.31477  1.0000
  C   C66       1.0  0.48379  0.55094  0.27621  1.0000
  C   C67       1.0  0.47090  0.56440  0.28138  1.0000
  C   C68       1.0  0.36805  0.55661  0.34774  1.0000
  C   C69       1.0  0.35264  0.53962  0.28094  1.0000
  C   C70       1.0  0.32650  0.53007  0.28115  1.0000
  C   C71       1.0  0.31504  0.53683  0.34917  1.0000
  C   C72       1.0  0.33038  0.55326  0.41721  1.0000
  C   C73       1.0  0.35641  0.56284  0.41679  1.0000
  C   C74       1.0  0.44792  0.63550  0.35558  1.0000
  C   C75       1.0  0.44084  0.64715  0.42193  1.0000
  C   C76       1.0  0.45026  0.67315  0.42100  1.0000
  C   C77       1.0  0.46745  0.68845  0.35463  1.0000
  C   C78       1.0  0.47516  0.67701  0.28973  1.0000
  C   C79       1.0  0.46568  0.65089  0.29064  1.0000
  H   H35       1.0  0.31597  0.51871  0.22979  1.0000
  H   H36       1.0  0.36048  0.53527  0.22864  1.0000
  H   H37       1.0  0.32287  0.55920  0.46593  1.0000
  H   H38       1.0  0.36692  0.57516  0.46611  1.0000
  H   H39       1.0  0.42781  0.63662  0.46935  1.0000
  H   H40       1.0  0.44363  0.68067  0.46723  1.0000
  H   H41       1.0  0.47059  0.64304  0.23990  1.0000
  H   H42       1.0  0.48698  0.68749  0.23927  1.0000
  H   H43       1.0  0.47844  0.58124  0.24888  1.0000
  H   H44       1.0  0.50038  0.55861  0.24186  1.0000
  H   H45       1.0  0.44332  0.50011  0.39312  1.0000
  H   H46       1.0  0.42233  0.52352  0.40667  1.0000
  H   H47       1.0  0.39792  0.53690  0.32727  1.0000
  H   H48       1.0  0.39915  0.60523  0.35170  1.0000
  H   H49       1.0  0.46691  0.60476  0.34383  1.0000
  C   C80       1.0  0.43350  0.82618  0.34247  1.0000
  C   C81       1.0  0.44659  0.85254  0.33312  1.0000
  C   C82       1.0  0.43403  0.86663  0.33332  1.0000
  C   C83       1.0  0.40746  0.85316  0.34062  1.0000
  C   C84       1.0  0.39374  0.82675  0.34835  1.0000
  C   C85       1.0  0.40711  0.81367  0.34847  1.0000
  C   C86       1.0  0.44779  0.89358  0.32795  1.0000
  C   C87       1.0  0.47151  0.90791  0.36965  1.0000
  C   C88       1.0  0.48528  0.93424  0.36293  1.0000
  C   C89       1.0  0.47574  0.94738  0.31476  1.0000
  C   C90       1.0  0.45164  0.93340  0.27622  1.0000
  C   C91       1.0  0.43819  0.90703  0.28132  1.0000
  C   C92       1.0  0.44597  0.81197  0.34768  1.0000
  C   C93       1.0  0.46297  0.81356  0.28090  1.0000
  C   C94       1.0  0.47251  0.79698  0.28110  1.0000
  C   C95       1.0  0.46578  0.77877  0.34918  1.0000
  C   C96       1.0  0.44933  0.77768  0.41718  1.0000
  C   C97       1.0  0.43975  0.79412  0.41677  1.0000
  C   C98       1.0  0.36708  0.81297  0.35557  1.0000
  C   C99       1.0  0.35544  0.79425  0.42194  1.0000
  C   C100      1.0  0.32943  0.77767  0.42108  1.0000
  C   C101      1.0  0.31414  0.77953  0.35463  1.0000
  C   C102      1.0  0.32558  0.79868  0.28968  1.0000
  C   C103      1.0  0.35170  0.81532  0.29056  1.0000
  H   H50       1.0  0.48389  0.79782  0.22980  1.0000
  H   H51       1.0  0.46732  0.82575  0.22860  1.0000
  H   H52       1.0  0.44339  0.76422  0.46589  1.0000
  H   H53       1.0  0.42741  0.79229  0.46603  1.0000
  H   H54       1.0  0.36597  0.79174  0.46937  1.0000
  H   H55       1.0  0.32192  0.76350  0.46723  1.0000
  H   H56       1.0  0.35954  0.82809  0.23989  1.0000
  H   H57       1.0  0.31509  0.80001  0.23924  1.0000
  H   H58       1.0  0.42135  0.89775  0.24886  1.0000
  H   H59       1.0  0.44398  0.94232  0.24184  1.0000
  H   H60       1.0  0.50247  0.94375  0.39310  1.0000
  H   H61       1.0  0.47906  0.89935  0.40665  1.0000
  H   H62       1.0  0.46569  0.86157  0.32722  1.0000
  H   H63       1.0  0.39736  0.79446  0.35167  1.0000
  H   H64       1.0  0.39783  0.86270  0.34381  1.0000
  C   C104      1.0  0.82680  0.39396  0.34300  1.0000
  C   C105      1.0  0.85316  0.40729  0.33328  1.0000
  C   C106      1.0  0.86715  0.43393  0.33278  1.0000
  C   C107      1.0  0.85363  0.44698  0.33995  1.0000
  C   C108      1.0  0.82723  0.43423  0.34813  1.0000
  C   C109      1.0  0.81422  0.40777  0.34880  1.0000
  C   C110      1.0  0.89409  0.44721  0.32692  1.0000
  C   C111      1.0  0.90859  0.43816  0.36950  1.0000
  C   C112      1.0  0.93493  0.45098  0.36302  1.0000
  C   C113      1.0  0.94796  0.47357  0.31412  1.0000
  C   C114      1.0  0.93371  0.48318  0.27401  1.0000
  C   C115      1.0  0.90734  0.47008  0.27911  1.0000
  C   C116      1.0  0.81266  0.36729  0.34847  1.0000
  C   C117      1.0  0.81410  0.35187  0.28142  1.0000
  C   C118      1.0  0.79748  0.32575  0.28166  1.0000
  C   C119      1.0  0.77932  0.31431  0.34989  1.0000
  C   C120      1.0  0.77835  0.32967  0.41814  1.0000
  C   C121      1.0  0.79486  0.35568  0.41774  1.0000
  C   C122      1.0  0.81340  0.44706  0.35524  1.0000
  C   C123      1.0  0.79469  0.43999  0.42167  1.0000
  C   C124      1.0  0.77814  0.44945  0.42096  1.0000
  C   C125      1.0  0.78001  0.46663  0.35459  1.0000
  C   C126      1.0  0.79910  0.47428  0.28945  1.0000
  C   C127      1.0  0.81574  0.46480  0.29027  1.0000
  H   H65       1.0  0.79822  0.31521  0.23019  1.0000
  H   H66       1.0  0.82628  0.35969  0.22906  1.0000
  H   H67       1.0  0.76490  0.32220  0.46686  1.0000
  H   H68       1.0  0.79309  0.36622  0.46708  1.0000
  H   H69       1.0  0.79224  0.42702  0.46926  1.0000
  H   H70       1.0  0.76404  0.44287  0.46737  1.0000
  H   H71       1.0  0.82847  0.46970  0.23949  1.0000
  H   H72       1.0  0.80044  0.48612  0.23908  1.0000
  H   H73       1.0  0.89792  0.47739  0.24607  1.0000
  H   H74       1.0  0.94245  0.49973  0.23942  1.0000
  H   H75       1.0  0.94456  0.44355  0.39405  1.0000
  H   H76       1.0  0.90015  0.42218  0.40719  1.0000
  H   H77       1.0  0.86225  0.39727  0.32757  1.0000
  H   H78       1.0  0.79502  0.39828  0.35224  1.0000
  H   H79       1.0  0.86313  0.46615  0.34268  1.0000
  C   C128      1.0  0.60858  0.43336  0.34300  1.0000
  C   C129      1.0  0.59525  0.44639  0.33328  1.0000
  C   C130      1.0  0.56861  0.43374  0.33279  1.0000
  C   C131      1.0  0.55556  0.40717  0.33994  1.0000
  C   C132      1.0  0.56831  0.39352  0.34813  1.0000
  C   C133      1.0  0.59476  0.40697  0.34880  1.0000
  C   C134      1.0  0.55533  0.44740  0.32695  1.0000
  C   C135      1.0  0.56439  0.47096  0.36953  1.0000
  C   C136      1.0  0.55159  0.48449  0.36303  1.0000
  C   C137      1.0  0.52899  0.47493  0.31412  1.0000
  C   C138      1.0  0.51937  0.45107  0.27403  1.0000
  C   C139      1.0  0.53247  0.43780  0.27915  1.0000
  C   C140      1.0  0.63525  0.44588  0.34847  1.0000
  C   C141      1.0  0.65067  0.46272  0.28138  1.0000
  C   C142      1.0  0.67679  0.47221  0.28162  1.0000
  C   C143      1.0  0.68822  0.46547  0.34986  1.0000
  C   C144      1.0  0.67286  0.44916  0.41812  1.0000
  C   C145      1.0  0.64685  0.43969  0.41778  1.0000
  C   C146      1.0  0.55548  0.36686  0.35527  1.0000
  C   C147      1.0  0.56254  0.35522  0.42172  1.0000
  C   C148      1.0  0.55311  0.32922  0.42098  1.0000
  C   C149      1.0  0.53594  0.31391  0.35459  1.0000
  C   C150      1.0  0.52824  0.32533  0.28953  1.0000
  C   C151      1.0  0.53774  0.35145  0.29028  1.0000
  H   H80       1.0  0.68734  0.48349  0.23013  1.0000
  H   H81       1.0  0.64286  0.46708  0.22900  1.0000
  H   H82       1.0  0.68033  0.44321  0.46695  1.0000
  H   H83       1.0  0.63631  0.42741  0.46716  1.0000
  H   H84       1.0  0.57552  0.36576  0.46929  1.0000
  H   H85       1.0  0.55970  0.32170  0.46736  1.0000
  H   H86       1.0  0.53284  0.35929  0.23953  1.0000
  H   H87       1.0  0.51643  0.31483  0.23907  1.0000
  H   H88       1.0  0.52516  0.42106  0.24608  1.0000
  H   H89       1.0  0.50283  0.44326  0.23942  1.0000
  H   H90       1.0  0.55901  0.50155  0.39408  1.0000
  H   H91       1.0  0.58038  0.47850  0.40723  1.0000
  H   H92       1.0  0.60528  0.46550  0.32758  1.0000
  H   H93       1.0  0.60425  0.39726  0.35225  1.0000
  H   H94       1.0  0.53639  0.39750  0.34272  1.0000
  C   C152      1.0  0.56924  0.17577  0.34300  1.0000
  C   C153      1.0  0.55620  0.14941  0.33330  1.0000
  C   C154      1.0  0.56885  0.13541  0.33281  1.0000
  C   C155      1.0  0.59542  0.14893  0.33995  1.0000
  C   C156      1.0  0.60908  0.17533  0.34811  1.0000
  C   C157      1.0  0.59564  0.18834  0.34878  1.0000
  C   C158      1.0  0.55519  0.10848  0.32699  1.0000
  C   C159      1.0  0.53163  0.09398  0.36960  1.0000
  C   C160      1.0  0.51809  0.06764  0.36308  1.0000
  C   C161      1.0  0.52765  0.05461  0.31418  1.0000
  C   C162      1.0  0.55152  0.06885  0.27409  1.0000
  C   C163      1.0  0.56479  0.09521  0.27919  1.0000
  C   C164      1.0  0.55673  0.18993  0.34845  1.0000
  C   C165      1.0  0.53987  0.18849  0.28138  1.0000
  C   C166      1.0  0.53038  0.20513  0.28163  1.0000
  C   C167      1.0  0.53710  0.22328  0.34988  1.0000
  C   C168      1.0  0.55344  0.22424  0.41809  1.0000
  C   C169      1.0  0.56293  0.20774  0.41770  1.0000
  C   C170      1.0  0.63574  0.18915  0.35518  1.0000
  C   C171      1.0  0.64739  0.20788  0.42154  1.0000
  C   C172      1.0  0.67341  0.22442  0.42082  1.0000
  C   C173      1.0  0.68870  0.22252  0.35443  1.0000
  C   C174      1.0  0.67726  0.20341  0.28938  1.0000
  C   C175      1.0  0.65114  0.18679  0.29023  1.0000
  H   H95       1.0  0.51910  0.20439  0.23015  1.0000
  H   H96       1.0  0.53551  0.17632  0.22902  1.0000
  H   H97       1.0  0.55938  0.23766  0.46694  1.0000
  H   H98       1.0  0.57519  0.20946  0.46714  1.0000
  H   H99       1.0  0.63687  0.21035  0.46908  1.0000
  H   H100      1.0  0.68093  0.23854  0.46712  1.0000
  H   H101      1.0  0.64328  0.17402  0.23954  1.0000
  H   H102      1.0  0.68776  0.20205  0.23904  1.0000
  H   H103      1.0  0.58152  0.10463  0.24609  1.0000
  H   H104      1.0  0.55932  0.06010  0.23945  1.0000
  H   H105      1.0  0.50104  0.05802  0.39412  1.0000
  H   H106      1.0  0.52409  0.10242  0.40725  1.0000
  H   H107      1.0  0.53709  0.14033  0.32762  1.0000
  H   H108      1.0  0.60535  0.20754  0.35219  1.0000
  H   H109      1.0  0.60508  0.13942  0.34272  1.0000
  C   C176      1.0  0.98852  0.49388  0.38866  1.0000
  H   H110      1.0  0.97950  0.48898  0.44907  1.0000
  C   C177      1.0  0.49471  0.50745  0.38855  1.0000
  C   C178      1.0  0.50868  0.49517  0.38866  1.0000
  H   H111      1.0  0.51358  0.49106  0.44907  1.0000
  H   H112      1.0  0.49063  0.51246  0.44885  1.0000
  C   C179      1.0  0.49512  0.98779  0.38856  1.0000
  C   C180      1.0  0.50740  0.01405  0.38869  1.0000
  H   H113      1.0  0.51152  0.02306  0.44911  1.0000
  H   H114      1.0  0.49012  0.97872  0.44886  1.0000
  C   C181      1.0  0.28928  0.53007  0.34541  1.0000
  C   C182      1.0  0.27234  0.51826  0.41781  1.0000
  C   C183      1.0  0.24871  0.51753  0.41894  1.0000
  C   C184      1.0  0.24230  0.52878  0.34810  1.0000
  C   C185      1.0  0.23278  0.50535  0.49302  1.0000
  N   N7        1.0  0.24002  0.49526  0.55871  1.0000
  C   C186      1.0  0.26250  0.49648  0.55706  1.0000
  O   O4        1.0  0.20926  0.50154  0.50090  1.0000
  N   N8        1.0  0.27827  0.50762  0.48730  1.0000
  H   H115      1.0  0.26718  0.48844  0.60772  1.0000
  H   H116      1.0  0.29387  0.50725  0.48767  1.0000
  C   C187      1.0  0.47251  0.75975  0.34543  1.0000
  C   C188      1.0  0.48429  0.75459  0.41786  1.0000
  C   C189      1.0  0.48501  0.73169  0.41898  1.0000
  C   C190      1.0  0.47376  0.71403  0.34813  1.0000
  C   C191      1.0  0.49718  0.72793  0.49308  1.0000
  N   N9        1.0  0.50727  0.74525  0.55878  1.0000
  C   C192      1.0  0.50608  0.76653  0.55712  1.0000
  O   O5        1.0  0.50096  0.70820  0.50097  1.0000
  N   N10       1.0  0.49493  0.77115  0.48738  1.0000
  H   H117      1.0  0.51412  0.77924  0.60778  1.0000
  H   H118      1.0  0.49534  0.78715  0.48771  1.0000
  C   C193      1.0  0.24287  0.71323  0.34546  1.0000
  C   C194      1.0  0.24801  0.73019  0.41782  1.0000
  C   C195      1.0  0.27089  0.75382  0.41895  1.0000
  C   C196      1.0  0.28856  0.76024  0.34811  1.0000
  C   C197      1.0  0.27463  0.76975  0.49301  1.0000
  N   N11       1.0  0.25730  0.76252  0.55866  1.0000
  C   C198      1.0  0.23603  0.74004  0.55700  1.0000
  O   O6        1.0  0.29434  0.79328  0.50088  1.0000
  N   N12       1.0  0.23143  0.72426  0.48730  1.0000
  H   H119      1.0  0.22332  0.73537  0.60764  1.0000
  H   H120      1.0  0.21544  0.70867  0.48763  1.0000
  C   C199      1.0  0.71392  0.47201  0.34595  1.0000
  C   C200      1.0  0.73095  0.48379  0.41816  1.0000
  C   C201      1.0  0.75450  0.48437  0.41912  1.0000
  C   C202      1.0  0.76075  0.47297  0.34832  1.0000
  C   C203      1.0  0.77052  0.49655  0.49299  1.0000
  N   N13       1.0  0.76343  0.50677  0.55867  1.0000
  C   C204      1.0  0.74102  0.50571  0.55717  1.0000
  O   O7        1.0  0.79398  0.50018  0.50079  1.0000
  N   N14       1.0  0.72517  0.49457  0.48763  1.0000
  H   H121      1.0  0.73646  0.51385  0.60781  1.0000
  H   H122      1.0  0.70964  0.49508  0.48805  1.0000
  C   C205      1.0  0.53057  0.24245  0.34596  1.0000
  C   C206      1.0  0.51878  0.24769  0.41817  1.0000
  C   C207      1.0  0.51821  0.27067  0.41913  1.0000
  C   C208      1.0  0.52960  0.28832  0.34831  1.0000
  C   C209      1.0  0.50602  0.27450  0.49300  1.0000
  N   N15       1.0  0.49581  0.25720  0.55870  1.0000
  C   C210      1.0  0.49687  0.23585  0.55721  1.0000
  O   O8        1.0  0.50238  0.29433  0.50078  1.0000
  N   N16       1.0  0.50801  0.23114  0.48766  1.0000
  H   H123      1.0  0.48874  0.22315  0.60785  1.0000
  H   H124      1.0  0.50751  0.21510  0.48809  1.0000
  C   C211      1.0  0.76016  0.28860  0.34596  1.0000
  C   C212      1.0  0.75491  0.27157  0.41818  1.0000
  C   C213      1.0  0.73194  0.24802  0.41906  1.0000
  C   C214      1.0  0.71431  0.24173  0.34817  1.0000
  C   C215      1.0  0.72810  0.23200  0.49294  1.0000
  N   N17       1.0  0.74538  0.23909  0.55871  1.0000
  C   C216      1.0  0.76672  0.26152  0.55729  1.0000
  O   O9        1.0  0.70827  0.20853  0.50064  1.0000
  N   N18       1.0  0.77144  0.27736  0.48773  1.0000
  H   H125      1.0  0.77940  0.26608  0.60797  1.0000
  H   H126      1.0  0.78748  0.29291  0.48820  1.0000
