data_image0
_chemical_formula_structural       C2NCNO2C2NCNO2C2NCNO2C2NCNO2C2NCNO2C2NCNO2NCHNCHNCHNCHNCHNCHNCHNCHNCHNCHNCHNCHC2NCNO2C2NCNO2C2NCNO2C2NCNO2C2NCNO2C2NCNO2NCHNCHNCHNCHNCHNCHNCHNCHNCHNCHNCHNCHCNCNCNCNCNCNCNCNCNCNCNCNCNCNCNCNCNCNCNCNCNCNCNCNCNCNCNCNCNCNCNCNCNCNCNCNCNCNCNCNCNCNCNCNCNCNCNCNCNCNCNCNCNCNCNCNCNCNCNCNCNCNCNCNCNCNCNCNCNCNCNCN2CHNCHNCHNCHNCHNCHC2NCNO2C2NCNO2C2NCNO2C2NCNO2C2NCNO2C2NCNO2C2NCNO2C2NCNO2C2NCNO2C2NCNO2C2NCNO2C2NCNO2NCHNCHNCHNCHNCHNCHC2NCNO2C2NCNO2C2NCNO2C2NCNO2C2NCNO2C2NCNO2C2NCNO2C2NCNO2C2NCNO2C2NCNO2C2NCNO2C2NCNO2
_chemical_formula_sum              "C216 N180 O72 H36"
_cell_length_a       53.4342
_cell_length_b       53.4342
_cell_length_c       14.8475
_cell_angle_alpha    90
_cell_angle_beta     90
_cell_angle_gamma    120

_space_group_name_H-M_alt    "P 1"
_space_group_IT_number       1

loop_
  _space_group_symop_operation_xyz
  'x, y, z'

loop_
  _atom_site_type_symbol
  _atom_site_label
  _atom_site_symmetry_multiplicity
  _atom_site_fract_x
  _atom_site_fract_y
  _atom_site_fract_z
  _atom_site_occupancy
  C   C1        1.0  0.12450  0.39985  0.30590  1.0000
  C   C2        1.0  0.15053  0.46068  0.30619  1.0000
  N   N1        1.0  0.16372  0.44651  0.27271  1.0000
  C   C3        1.0  0.15238  0.41746  0.26883  1.0000
  N   N2        1.0  0.16885  0.40616  0.23078  1.0000
  O   O1        1.0  0.19223  0.41515  0.27273  1.0000
  O   O2        1.0  0.17463  0.41380  0.14994  1.0000
  C   C4        1.0  0.61291  0.72724  0.30588  1.0000
  C   C5        1.0  0.55209  0.69258  0.30681  1.0000
  N   N3        1.0  0.56627  0.71996  0.27343  1.0000
  C   C6        1.0  0.59532  0.73760  0.26930  1.0000
  N   N4        1.0  0.60664  0.76541  0.23146  1.0000
  O   O3        1.0  0.59774  0.77981  0.27379  1.0000
  O   O4        1.0  0.59891  0.76361  0.15072  1.0000
  C   C7        1.0  0.28554  0.88820  0.30606  1.0000
  C   C8        1.0  0.32020  0.86203  0.30684  1.0000
  N   N5        1.0  0.29280  0.84882  0.27363  1.0000
  C   C9        1.0  0.27515  0.86023  0.26961  1.0000
  N   N6        1.0  0.24733  0.84374  0.23186  1.0000
  O   O5        1.0  0.23294  0.82044  0.27421  1.0000
  O   O6        1.0  0.24910  0.83780  0.15111  1.0000
  C   C10       1.0  0.89091  0.61042  0.30598  1.0000
  C   C11       1.0  0.86488  0.54959  0.30559  1.0000
  N   N7        1.0  0.85171  0.56381  0.27221  1.0000
  C   C12       1.0  0.86306  0.59286  0.26869  1.0000
  N   N8        1.0  0.84660  0.60420  0.23077  1.0000
  O   O7        1.0  0.82321  0.59516  0.27266  1.0000
  O   O8        1.0  0.84085  0.59664  0.14986  1.0000
  C   C13       1.0  0.40245  0.28304  0.30579  1.0000
  C   C14       1.0  0.46327  0.31782  0.30614  1.0000
  N   N9        1.0  0.44910  0.29045  0.27263  1.0000
  C   C15       1.0  0.42005  0.27276  0.26872  1.0000
  N   N10       1.0  0.40874  0.24499  0.23065  1.0000
  O   O9        1.0  0.41772  0.23059  0.27261  1.0000
  O   O10       1.0  0.41639  0.24685  0.14982  1.0000
  C   C16       1.0  0.72976  0.12192  0.30578  1.0000
  C   C17       1.0  0.69508  0.14806  0.30650  1.0000
  N   N11       1.0  0.72244  0.16123  0.27296  1.0000
  C   C18       1.0  0.74009  0.14983  0.26891  1.0000
  N   N12       1.0  0.76789  0.16631  0.23097  1.0000
  O   O11       1.0  0.78229  0.18963  0.27315  1.0000
  O   O12       1.0  0.76606  0.17218  0.15020  1.0000
  N   N13       1.0  0.41544  0.10633  0.31985  1.0000
  C   C19       1.0  0.44463  0.11729  0.32133  1.0000
  H   H1        1.0  0.45411  0.11164  0.27161  1.0000
  N   N14       1.0  0.70115  0.59750  0.31929  1.0000
  C   C20       1.0  0.68288  0.56833  0.32061  1.0000
  H   H2        1.0  0.66775  0.55886  0.27091  1.0000
  N   N15       1.0  0.90655  0.31166  0.31934  1.0000
  C   C21       1.0  0.89562  0.32991  0.32075  1.0000
  H   H3        1.0  0.90126  0.34504  0.27106  1.0000
  N   N16       1.0  0.59999  0.90394  0.31960  1.0000
  C   C22       1.0  0.57081  0.89302  0.32105  1.0000
  H   H4        1.0  0.56131  0.89858  0.27120  1.0000
  N   N17       1.0  0.31423  0.41283  0.31993  1.0000
  C   C23       1.0  0.33245  0.44202  0.32136  1.0000
  H   H5        1.0  0.34757  0.45149  0.27164  1.0000
  N   N18       1.0  0.10896  0.69869  0.31932  1.0000
  C   C24       1.0  0.11998  0.68051  0.32058  1.0000
  H   H6        1.0  0.11424  0.66529  0.27114  1.0000
  N   N19       1.0  0.29513  0.54812  0.33622  1.0000
  C   C25       1.0  0.27142  0.55127  0.33014  1.0000
  H   H7        1.0  0.27209  0.56726  0.29055  1.0000
  N   N20       1.0  0.46465  0.74965  0.33583  1.0000
  C   C26       1.0  0.46142  0.72275  0.32997  1.0000
  H   H8        1.0  0.44565  0.70757  0.28952  1.0000
  N   N21       1.0  0.26324  0.71761  0.33484  1.0000
  C   C27       1.0  0.29012  0.74131  0.32889  1.0000
  H   H9        1.0  0.30526  0.74075  0.28815  1.0000
  N   N22       1.0  0.72018  0.46220  0.33581  1.0000
  C   C28       1.0  0.74387  0.45902  0.32977  1.0000
  H   H10       1.0  0.74311  0.44289  0.29074  1.0000
  N   N23       1.0  0.55071  0.26066  0.33630  1.0000
  C   C29       1.0  0.55386  0.28752  0.33018  1.0000
  H   H11       1.0  0.56982  0.30282  0.29052  1.0000
  N   N24       1.0  0.75229  0.29268  0.33653  1.0000
  C   C30       1.0  0.72538  0.26901  0.33072  1.0000
  H   H12       1.0  0.71009  0.26970  0.29107  1.0000
  C   C31       1.0  0.17999  0.56545  0.30598  1.0000
  C   C32       1.0  0.17636  0.61617  0.31903  1.0000
  N   N25       1.0  0.19930  0.61587  0.28100  1.0000
  C   C33       1.0  0.20211  0.59215  0.27079  1.0000
  N   N26       1.0  0.22715  0.59512  0.22870  1.0000
  O   O13       1.0  0.24943  0.61287  0.27079  1.0000
  O   O14       1.0  0.22906  0.60413  0.14948  1.0000
  C   C34       1.0  0.44731  0.61712  0.30651  1.0000
  C   C35       1.0  0.39662  0.56275  0.31978  1.0000
  N   N27       1.0  0.39688  0.58598  0.28176  1.0000
  C   C36       1.0  0.42058  0.61251  0.27145  1.0000
  N   N28       1.0  0.41756  0.63454  0.22927  1.0000
  O   O15       1.0  0.39982  0.63908  0.27138  1.0000
  O   O16       1.0  0.40853  0.62740  0.15009  1.0000
  C   C37       1.0  0.39576  0.83284  0.30598  1.0000
  C   C38       1.0  0.45015  0.83657  0.31894  1.0000
  N   N29       1.0  0.42693  0.81362  0.28084  1.0000
  C   C39       1.0  0.40038  0.81077  0.27061  1.0000
  N   N30       1.0  0.37836  0.78573  0.22837  1.0000
  O   O17       1.0  0.37384  0.76343  0.27035  1.0000
  O   O18       1.0  0.38548  0.78388  0.14914  1.0000
  C   C40       1.0  0.83530  0.44476  0.30616  1.0000
  C   C41       1.0  0.83908  0.39412  0.31932  1.0000
  N   N31       1.0  0.81605  0.39434  0.28155  1.0000
  C   C42       1.0  0.81318  0.41802  0.27124  1.0000
  N   N32       1.0  0.78809  0.41495  0.22928  1.0000
  O   O19       1.0  0.76584  0.39720  0.27157  1.0000
  O   O20       1.0  0.78614  0.40590  0.15011  1.0000
  C   C43       1.0  0.56804  0.39313  0.30627  1.0000
  C   C44       1.0  0.61871  0.44749  0.31957  1.0000
  N   N33       1.0  0.61847  0.42426  0.28164  1.0000
  C   C45       1.0  0.59477  0.39772  0.27134  1.0000
  N   N34       1.0  0.59780  0.37568  0.22931  1.0000
  O   O21       1.0  0.61554  0.37115  0.27154  1.0000
  O   O22       1.0  0.60685  0.38279  0.15013  1.0000
  C   C46       1.0  0.61974  0.17753  0.30664  1.0000
  C   C47       1.0  0.56537  0.17384  0.31988  1.0000
  N   N35       1.0  0.58861  0.19683  0.28201  1.0000
  C   C48       1.0  0.61515  0.19967  0.27172  1.0000
  N   N36       1.0  0.63718  0.22474  0.22967  1.0000
  O   O23       1.0  0.64171  0.24701  0.27190  1.0000
  O   O24       1.0  0.63007  0.22668  0.15050  1.0000
  N   N37       1.0  0.02458  0.27680  0.32646  1.0000
  C   C49       1.0  0.99504  0.26011  0.32743  1.0000
  H   H13       1.0  0.98551  0.23855  0.31319  1.0000
  N   N38       1.0  0.73598  0.75031  0.32626  1.0000
  C   C50       1.0  0.75269  0.73748  0.32731  1.0000
  H   H14       1.0  0.77424  0.74951  0.31298  1.0000
  N   N39       1.0  0.26257  0.98825  0.32631  1.0000
  C   C51       1.0  0.27541  0.01779  0.32733  1.0000
  H   H15       1.0  0.26337  0.02732  0.31324  1.0000
  N   N40       1.0  0.99083  0.73345  0.32655  1.0000
  C   C52       1.0  0.02037  0.75014  0.32744  1.0000
  H   H16       1.0  0.02990  0.77172  0.31337  1.0000
  N   N41       1.0  0.27941  0.25994  0.32640  1.0000
  C   C53       1.0  0.26271  0.27279  0.32741  1.0000
  H   H17       1.0  0.24115  0.26076  0.31325  1.0000
  N   N42       1.0  0.75288  0.02199  0.32632  1.0000
  C   C54       1.0  0.74004  0.99245  0.32733  1.0000
  H   H18       1.0  0.75205  0.98292  0.31289  1.0000
  N   N43       1.0  0.17523  0.30980  0.29362  1.0000
  C   C55       1.0  0.14870  0.30761  0.28546  1.0000
  H   H19       1.0  0.13734  0.29970  0.22694  1.0000
  N   N44       1.0  0.70315  0.86802  0.29351  1.0000
  C   C56       1.0  0.70532  0.84367  0.28535  1.0000
  H   H20       1.0  0.71342  0.84027  0.22713  1.0000
  N   N45       1.0  0.14487  0.83770  0.29322  1.0000
  C   C57       1.0  0.16923  0.86423  0.28516  1.0000
  H   H21       1.0  0.17270  0.87566  0.22680  1.0000
  N   N46       1.0  0.84024  0.70053  0.29401  1.0000
  C   C58       1.0  0.86680  0.70278  0.28602  1.0000
  H   H22       1.0  0.87819  0.71069  0.22756  1.0000
  N   N47       1.0  0.31240  0.14228  0.29350  1.0000
  C   C59       1.0  0.31021  0.16662  0.28535  1.0000
  H   H23       1.0  0.30230  0.17007  0.22681  1.0000
  N   N48       1.0  0.87062  0.17253  0.29399  1.0000
  C   C60       1.0  0.84627  0.14600  0.28583  1.0000
  H   H24       1.0  0.84292  0.13447  0.22773  1.0000
  C   C61       1.0  0.16857  0.49090  0.31990  1.0000
  N   N49       1.0  0.16248  0.51280  0.30953  1.0000
  C   C62       1.0  0.18398  0.54121  0.31691  1.0000
  N   N50       1.0  0.21131  0.54704  0.33718  1.0000
  C   C63       1.0  0.21775  0.52592  0.35089  1.0000
  N   N51       1.0  0.19612  0.49850  0.34070  1.0000
  C   C64       1.0  0.52184  0.68035  0.32009  1.0000
  N   N52       1.0  0.49997  0.65233  0.30991  1.0000
  C   C65       1.0  0.47154  0.64539  0.31718  1.0000
  N   N53       1.0  0.46567  0.66687  0.33732  1.0000
  C   C66       1.0  0.48676  0.69444  0.35089  1.0000
  N   N54       1.0  0.51420  0.70027  0.34079  1.0000
  C   C67       1.0  0.33247  0.84404  0.31993  1.0000
  N   N55       1.0  0.36050  0.85023  0.30966  1.0000
  C   C68       1.0  0.36748  0.82877  0.31681  1.0000
  N   N56       1.0  0.34604  0.80141  0.33694  1.0000
  C   C69       1.0  0.31846  0.79489  0.35069  1.0000
  N   N57       1.0  0.31258  0.81646  0.34067  1.0000
  C   C70       1.0  0.84679  0.51935  0.31890  1.0000
  N   N58       1.0  0.85286  0.49742  0.30915  1.0000
  C   C71       1.0  0.83132  0.46903  0.31662  1.0000
  N   N59       1.0  0.80399  0.46324  0.33658  1.0000
  C   C72       1.0  0.79757  0.48440  0.34979  1.0000
  N   N60       1.0  0.81924  0.51179  0.33952  1.0000
  C   C73       1.0  0.49349  0.32998  0.31989  1.0000
  N   N61       1.0  0.51539  0.35798  0.30959  1.0000
  C   C74       1.0  0.54379  0.36488  0.31704  1.0000
  N   N62       1.0  0.54963  0.34339  0.33732  1.0000
  C   C75       1.0  0.52850  0.31583  0.35095  1.0000
  N   N63       1.0  0.50108  0.31003  0.34069  1.0000
  C   C76       1.0  0.68288  0.16610  0.31985  1.0000
  N   N64       1.0  0.65488  0.16001  0.30982  1.0000
  C   C77       1.0  0.64800  0.18153  0.31721  1.0000
  N   N65       1.0  0.66952  0.20887  0.33731  1.0000
  C   C78       1.0  0.69709  0.21530  0.35073  1.0000
  N   N66       1.0  0.70285  0.19365  0.34052  1.0000
  C   C79       1.0  0.49140  0.15932  0.37352  1.0000
  N   N67       1.0  0.51324  0.15423  0.35028  1.0000
  C   C80       1.0  0.54090  0.17677  0.33865  1.0000
  N   N68       1.0  0.54602  0.20435  0.34975  1.0000
  C   C81       1.0  0.52500  0.21013  0.37393  1.0000
  N   N69       1.0  0.49828  0.18717  0.38370  1.0000
  C   C82       1.0  0.67806  0.52153  0.37290  1.0000
  N   N70       1.0  0.65113  0.49963  0.34994  1.0000
  C   C83       1.0  0.64610  0.47201  0.33808  1.0000
  N   N71       1.0  0.66862  0.46697  0.34886  1.0000
  C   C84       1.0  0.69543  0.48805  0.37272  1.0000
  N   N72       1.0  0.69910  0.51473  0.38270  1.0000
  C   C85       1.0  0.85371  0.33480  0.37351  1.0000
  N   N73       1.0  0.85875  0.36169  0.35004  1.0000
  C   C86       1.0  0.83617  0.36674  0.33822  1.0000
  N   N74       1.0  0.80861  0.34425  0.34930  1.0000
  C   C87       1.0  0.80287  0.31746  0.37354  1.0000
  N   N75       1.0  0.82587  0.31378  0.38351  1.0000
  C   C88       1.0  0.52403  0.85095  0.37317  1.0000
  N   N76       1.0  0.50224  0.85609  0.34964  1.0000
  C   C89       1.0  0.47457  0.83357  0.33789  1.0000
  N   N77       1.0  0.46939  0.80598  0.34920  1.0000
  C   C90       1.0  0.49035  0.80015  0.37362  1.0000
  N   N78       1.0  0.51709  0.82308  0.38348  1.0000
  C   C91       1.0  0.33717  0.48879  0.37343  1.0000
  N   N79       1.0  0.36410  0.51063  0.35022  1.0000
  C   C92       1.0  0.36921  0.53829  0.33854  1.0000
  N   N80       1.0  0.34676  0.54341  0.34959  1.0000
  C   C93       1.0  0.31995  0.52239  0.37374  1.0000
  N   N81       1.0  0.31620  0.49568  0.38355  1.0000
  C   C94       1.0  0.16201  0.67575  0.37263  1.0000
  N   N82       1.0  0.15684  0.64879  0.34938  1.0000
  C   C95       1.0  0.17933  0.64360  0.33771  1.0000
  N   N83       1.0  0.20693  0.66598  0.34896  1.0000
  C   C96       1.0  0.21279  0.69280  0.37320  1.0000
  N   N84       1.0  0.18989  0.69666  0.38299  1.0000
  C   C97       1.0  0.11818  0.32839  0.33663  1.0000
  N   N85       1.0  0.08873  0.31107  0.34245  1.0000
  C   C98       1.0  0.07063  0.32235  0.33610  1.0000
  N   N86       1.0  0.08324  0.35147  0.32315  1.0000
  C   C99       1.0  0.11211  0.36944  0.31622  1.0000
  N   N87       1.0  0.12890  0.35718  0.32499  1.0000
  C   C100      1.0  0.68442  0.79234  0.33647  1.0000
  N   N88       1.0  0.70173  0.78019  0.34220  1.0000
  C   C101      1.0  0.69042  0.75080  0.33588  1.0000
  N   N89       1.0  0.66130  0.73430  0.32301  1.0000
  C   C102      1.0  0.64334  0.74522  0.31616  1.0000
  N   N90       1.0  0.65563  0.77427  0.32491  1.0000
  C   C103      1.0  0.22050  0.89468  0.33699  1.0000
  N   N91       1.0  0.23266  0.92414  0.34237  1.0000
  C   C104      1.0  0.26206  0.94220  0.33593  1.0000
  N   N92       1.0  0.27852  0.92954  0.32310  1.0000
  C   C105      1.0  0.26758  0.90066  0.31641  1.0000
  N   N93       1.0  0.23852  0.88392  0.32529  1.0000
  C   C106      1.0  0.89724  0.68186  0.33730  1.0000
  N   N94       1.0  0.92669  0.69919  0.34274  1.0000
  C   C107      1.0  0.94479  0.68790  0.33622  1.0000
  N   N95       1.0  0.93217  0.65878  0.32328  1.0000
  C   C108      1.0  0.90329  0.64082  0.31656  1.0000
  N   N96       1.0  0.88650  0.65308  0.32551  1.0000
  C   C109      1.0  0.33098  0.21791  0.33652  1.0000
  N   N97       1.0  0.31366  0.23005  0.34233  1.0000
  C   C110      1.0  0.32495  0.25943  0.33596  1.0000
  N   N98       1.0  0.35407  0.27593  0.32302  1.0000
  C   C111      1.0  0.37203  0.26502  0.31609  1.0000
  N   N99       1.0  0.35976  0.23597  0.32488  1.0000
  C   C112      1.0  0.79489  0.11559  0.33669  1.0000
  N   N100      1.0  0.78277  0.08614  0.34245  1.0000
  C   C113      1.0  0.75338  0.06804  0.33606  1.0000
  N   N101      1.0  0.73687  0.08064  0.32308  1.0000
  C   C114      1.0  0.74777  0.10951  0.31619  1.0000
  N   N102      1.0  0.77682  0.12630  0.32502  1.0000
  C   C115      1.0  0.33218  0.11427  0.35887  1.0000
  N   N103      1.0  0.31331  0.08518  0.34870  1.0000
  C   C116      1.0  0.32289  0.06559  0.34724  1.0000
  N   N104      1.0  0.35194  0.07622  0.35493  1.0000
  C   C117      1.0  0.37125  0.10462  0.36471  1.0000
  N   N105      1.0  0.36076  0.12304  0.36731  1.0000
  C   C118      1.0  0.79238  0.68066  0.35900  1.0000
  N   N106      1.0  0.78217  0.69955  0.34881  1.0000
  C   C119      1.0  0.75301  0.69000  0.34711  1.0000
  N   N107      1.0  0.73458  0.66095  0.35475  1.0000
  C   C120      1.0  0.74363  0.64162  0.36455  1.0000
  N   N108      1.0  0.77254  0.65208  0.36729  1.0000
  C   C121      1.0  0.89853  0.22045  0.35901  1.0000
  N   N109      1.0  0.92763  0.23065  0.34889  1.0000
  C   C122      1.0  0.94724  0.25981  0.34729  1.0000
  N   N110      1.0  0.93664  0.27825  0.35489  1.0000
  C   C123      1.0  0.90824  0.26920  0.36458  1.0000
  N   N111      1.0  0.88980  0.24029  0.36727  1.0000
  C   C124      1.0  0.68323  0.89596  0.35877  1.0000
  N   N112      1.0  0.70211  0.92506  0.34868  1.0000
  C   C125      1.0  0.69254  0.94465  0.34721  1.0000
  N   N113      1.0  0.66350  0.93404  0.35488  1.0000
  C   C126      1.0  0.64417  0.90564  0.36456  1.0000
  N   N114      1.0  0.65465  0.88720  0.36714  1.0000
  C   C127      1.0  0.22302  0.32958  0.35899  1.0000
  N   N115      1.0  0.23325  0.31070  0.34886  1.0000
  C   C128      1.0  0.26241  0.32028  0.34742  1.0000
  N   N116      1.0  0.28083  0.34932  0.35510  1.0000
  C   C129      1.0  0.27175  0.36864  0.36483  1.0000
  N   N117      1.0  0.24283  0.35815  0.36741  1.0000
  C   C130      1.0  0.11686  0.78987  0.35866  1.0000
  N   N118      1.0  0.08775  0.77962  0.34858  1.0000
  C   C131      1.0  0.06818  0.75046  0.34703  1.0000
  N   N119      1.0  0.07883  0.73205  0.35467  1.0000
  C   C132      1.0  0.10724  0.74116  0.36437  1.0000
  N   N120      1.0  0.12565  0.77007  0.36695  1.0000
  N   N121      1.0  0.11063  0.41371  0.33800  1.0000
  C   C133      1.0  0.12210  0.44303  0.33808  1.0000
  H   H25       1.0  0.11104  0.45183  0.36786  1.0000
  N   N122      1.0  0.59902  0.69945  0.33753  1.0000
  C   C134      1.0  0.56970  0.68161  0.33756  1.0000
  H   H26       1.0  0.56088  0.66175  0.36731  1.0000
  N   N123      1.0  0.31335  0.90211  0.33756  1.0000
  C   C135      1.0  0.33117  0.89060  0.33759  1.0000
  H   H27       1.0  0.35109  0.90171  0.36700  1.0000
  N   N124      1.0  0.90476  0.59652  0.33792  1.0000
  C   C136      1.0  0.89328  0.56720  0.33769  1.0000
  H   H28       1.0  0.90432  0.55836  0.36739  1.0000
  N   N125      1.0  0.41631  0.31077  0.33790  1.0000
  C   C137      1.0  0.44563  0.32860  0.33801  1.0000
  H   H29       1.0  0.45444  0.34847  0.36781  1.0000
  N   N126      1.0  0.70200  0.10805  0.33760  1.0000
  C   C138      1.0  0.68415  0.11952  0.33753  1.0000
  H   H30       1.0  0.66431  0.10850  0.36748  1.0000
  C   C139      1.0  0.40103  0.11461  0.37759  1.0000
  C   C140      1.0  0.46141  0.13952  0.38298  1.0000
  N   N127      1.0  0.44656  0.14697  0.44127  1.0000
  C   C141      1.0  0.41742  0.13529  0.44454  1.0000
  N   N128      1.0  0.40449  0.14471  0.50956  1.0000
  O   O25       1.0  0.42216  0.16652  0.55381  1.0000
  O   O26       1.0  0.39136  0.12490  0.56619  1.0000
  C   C142      1.0  0.72380  0.61184  0.37723  1.0000
  C   C143      1.0  0.68809  0.55148  0.38266  1.0000
  N   N129      1.0  0.71041  0.56627  0.44098  1.0000
  C   C144      1.0  0.72797  0.59539  0.44426  1.0000
  N   N130      1.0  0.75030  0.60824  0.50934  1.0000
  O   O27       1.0  0.75439  0.59051  0.55344  1.0000
  O   O28       1.0  0.74366  0.62137  0.56605  1.0000
  C   C145      1.0  0.89830  0.28903  0.37733  1.0000
  C   C146      1.0  0.87359  0.32471  0.38293  1.0000
  N   N131      1.0  0.86613  0.30240  0.44126  1.0000
  C   C147      1.0  0.87772  0.28486  0.44447  1.0000
  N   N132      1.0  0.86828  0.26255  0.50961  1.0000
  O   O29       1.0  0.84649  0.25847  0.55386  1.0000
  O   O30       1.0  0.88810  0.26922  0.56619  1.0000
  C   C148      1.0  0.61439  0.89565  0.37738  1.0000
  C   C149      1.0  0.55403  0.87074  0.38256  1.0000
  N   N133      1.0  0.56884  0.86327  0.44095  1.0000
  C   C150      1.0  0.59799  0.87498  0.44433  1.0000
  N   N134      1.0  0.61090  0.86556  0.50942  1.0000
  O   O31       1.0  0.59322  0.84377  0.55373  1.0000
  O   O32       1.0  0.62404  0.88538  0.56600  1.0000
  C   C151      1.0  0.29154  0.39843  0.37768  1.0000
  C   C152      1.0  0.32698  0.45881  0.38295  1.0000
  N   N135      1.0  0.30468  0.44397  0.44125  1.0000
  C   C153      1.0  0.28724  0.41482  0.44457  1.0000
  N   N136      1.0  0.26489  0.40190  0.50959  1.0000
  O   O33       1.0  0.26073  0.41958  0.55376  1.0000
  O   O34       1.0  0.27157  0.38879  0.56628  1.0000
  C   C154      1.0  0.11728  0.72139  0.37704  1.0000
  C   C155      1.0  0.14224  0.68598  0.38212  1.0000
  N   N137      1.0  0.14972  0.70828  0.44045  1.0000
  C   C156      1.0  0.13801  0.72571  0.44385  1.0000
  N   N138      1.0  0.14741  0.74803  0.50896  1.0000
  O   O35       1.0  0.16918  0.75213  0.55333  1.0000
  O   O36       1.0  0.12758  0.74135  0.56552  1.0000
  C   C157      1.0  0.29567  0.52624  0.38200  1.0000
  C   C158      1.0  0.24535  0.52994  0.36911  1.0000
  N   N139      1.0  0.24618  0.50861  0.41588  1.0000
  C   C159      1.0  0.26990  0.50597  0.42674  1.0000
  N   N140      1.0  0.26727  0.48247  0.47768  1.0000
  O   O37       1.0  0.24832  0.45896  0.44410  1.0000
  O   O38       1.0  0.26011  0.48382  0.55729  1.0000
  C   C160      1.0  0.48642  0.77200  0.38212  1.0000
  C   C161      1.0  0.48270  0.71798  0.36925  1.0000
  N   N141      1.0  0.50392  0.74008  0.41651  1.0000
  C   C162      1.0  0.50656  0.76644  0.42744  1.0000
  N   N142      1.0  0.52993  0.78726  0.47888  1.0000
  O   O39       1.0  0.55352  0.79181  0.44592  1.0000
  O   O40       1.0  0.52838  0.77867  0.55850  1.0000
  C   C163      1.0  0.24096  0.71697  0.38176  1.0000
  C   C164      1.0  0.29495  0.76728  0.36890  1.0000
  N   N143      1.0  0.27294  0.76632  0.41691  1.0000
  C   C165      1.0  0.24659  0.74256  0.42782  1.0000
  N   N144      1.0  0.22584  0.74497  0.48013  1.0000
  O   O41       1.0  0.22126  0.76411  0.44820  1.0000
  O   O42       1.0  0.23455  0.75178  0.55974  1.0000
  C   C166      1.0  0.71975  0.48425  0.38086  1.0000
  C   C167      1.0  0.77002  0.48048  0.36798  1.0000
  N   N145      1.0  0.76928  0.50196  0.41418  1.0000
  C   C168      1.0  0.74559  0.50466  0.42497  1.0000
  N   N146      1.0  0.74833  0.52831  0.47530  1.0000
  O   O43       1.0  0.76721  0.55173  0.44103  1.0000
  O   O44       1.0  0.75564  0.52719  0.55492  1.0000
  C   C169      1.0  0.52886  0.23826  0.38220  1.0000
  C   C170      1.0  0.53254  0.29227  0.36922  1.0000
  N   N147      1.0  0.51123  0.27012  0.41610  1.0000
  C   C171      1.0  0.50860  0.24376  0.42701  1.0000
  N   N148      1.0  0.48513  0.22290  0.47806  1.0000
  O   O45       1.0  0.46160  0.21833  0.44459  1.0000
  O   O46       1.0  0.48651  0.23144  0.55766  1.0000
  C   C172      1.0  0.77475  0.29315  0.38179  1.0000
  C   C173      1.0  0.72070  0.24287  0.36901  1.0000
  N   N149      1.0  0.74291  0.24365  0.41531  1.0000
  C   C174      1.0  0.76930  0.26735  0.42614  1.0000
  N   N150      1.0  0.79021  0.26463  0.47654  1.0000
  O   O47       1.0  0.79474  0.24573  0.44239  1.0000
  O   O48       1.0  0.78178  0.25735  0.55617  1.0000
  N   N151      1.0  0.15650  0.56537  0.34257  1.0000
  C   C175      1.0  0.15341  0.58920  0.34777  1.0000
  H   H31       1.0  0.13587  0.58774  0.38032  1.0000
  N   N152      1.0  0.44744  0.59375  0.34314  1.0000
  C   C176      1.0  0.42360  0.56683  0.34859  1.0000
  H   H32       1.0  0.42509  0.55073  0.38090  1.0000
  N   N153      1.0  0.41910  0.85631  0.34279  1.0000
  C   C177      1.0  0.44604  0.85942  0.34813  1.0000
  H   H33       1.0  0.46212  0.87696  0.38064  1.0000
  N   N154      1.0  0.85884  0.44493  0.34260  1.0000
  C   C178      1.0  0.86201  0.42114  0.34785  1.0000
  H   H34       1.0  0.87955  0.42262  0.38045  1.0000
  N   N155      1.0  0.56790  0.41650  0.34275  1.0000
  C   C179      1.0  0.59171  0.44344  0.34807  1.0000
  H   H35       1.0  0.59020  0.45952  0.38045  1.0000
  N   N156      1.0  0.59636  0.15401  0.34311  1.0000
  C   C180      1.0  0.56943  0.15091  0.34855  1.0000
  H   H36       1.0  0.55332  0.13331  0.38074  1.0000
  C   C181      1.0  0.03966  0.30588  0.34343  1.0000
  C   C182      1.0  0.97811  0.27311  0.34498  1.0000
  N   N157      1.0  0.99345  0.30182  0.36387  1.0000
  C   C183      1.0  0.02267  0.31875  0.36495  1.0000
  N   N158      1.0  0.03446  0.34803  0.38975  1.0000
  O   O49       1.0  0.02631  0.36083  0.33657  1.0000
  O   O50       1.0  0.02676  0.35013  0.46802  1.0000
  C   C184      1.0  0.70690  0.73631  0.34317  1.0000
  C   C185      1.0  0.73969  0.70755  0.34482  1.0000
  N   N159      1.0  0.71098  0.69417  0.36362  1.0000
  C   C186      1.0  0.69404  0.70644  0.36466  1.0000
  N   N160      1.0  0.66475  0.68893  0.38938  1.0000
  O   O51       1.0  0.65198  0.66800  0.33616  1.0000
  O   O52       1.0  0.66263  0.67913  0.46763  1.0000
  C   C187      1.0  0.27657  0.97317  0.34305  1.0000
  C   C188      1.0  0.30535  0.03472  0.34476  1.0000
  N   N161      1.0  0.31873  0.01939  0.36339  1.0000
  C   C189      1.0  0.30646  0.99017  0.36439  1.0000
  N   N162      1.0  0.32397  0.97839  0.38893  1.0000
  O   O53       1.0  0.34488  0.98655  0.33560  1.0000
  O   O54       1.0  0.33382  0.98606  0.46716  1.0000
  C   C190      1.0  0.97576  0.70436  0.34333  1.0000
  C   C191      1.0  0.03731  0.73713  0.34476  1.0000
  N   N163      1.0  0.02199  0.70842  0.36344  1.0000
  C   C192      1.0  0.99277  0.69148  0.36457  1.0000
  N   N164      1.0  0.98100  0.66218  0.38913  1.0000
  O   O55       1.0  0.98914  0.64943  0.33573  1.0000
  O   O56       1.0  0.98871  0.66002  0.46730  1.0000
  C   C193      1.0  0.30849  0.27393  0.34330  1.0000
  C   C194      1.0  0.27573  0.30273  0.34496  1.0000
  N   N165      1.0  0.30444  0.31609  0.36375  1.0000
  C   C195      1.0  0.32137  0.30381  0.36476  1.0000
  N   N166      1.0  0.35065  0.32131  0.38947  1.0000
  O   O57       1.0  0.36343  0.34224  0.33626  1.0000
  O   O58       1.0  0.35278  0.33112  0.46773  1.0000
  C   C196      1.0  0.73889  0.03707  0.34338  1.0000
  C   C197      1.0  0.71010  0.97552  0.34490  1.0000
  N   N167      1.0  0.69674  0.99086  0.36388  1.0000
  C   C198      1.0  0.70903  0.02007  0.36499  1.0000
  N   N168      1.0  0.69155  0.03186  0.38990  1.0000
  O   O59       1.0  0.67059  0.02372  0.33678  1.0000
  O   O60       1.0  0.68177  0.02417  0.46818  1.0000
  C   C199      1.0  0.19337  0.32222  0.36516  1.0000
  C   C200      1.0  0.13938  0.32015  0.35170  1.0000
  N   N169      1.0  0.15796  0.33316  0.42128  1.0000
  C   C201      1.0  0.18371  0.33408  0.43359  1.0000
  N   N170      1.0  0.20128  0.34870  0.50891  1.0000
  O   O61       1.0  0.19342  0.36390  0.55182  1.0000
  O   O62       1.0  0.20057  0.33039  0.56335  1.0000
  C   C202      1.0  0.69057  0.87364  0.36481  1.0000
  C   C203      1.0  0.69268  0.82179  0.35143  1.0000
  N   N171      1.0  0.67955  0.82727  0.42088  1.0000
  C   C204      1.0  0.67862  0.85209  0.43314  1.0000
  N   N172      1.0  0.66391  0.85499  0.50833  1.0000
  O   O63       1.0  0.64866  0.83190  0.55106  1.0000
  O   O64       1.0  0.68217  0.87255  0.56297  1.0000
  C   C205      1.0  0.13912  0.81954  0.36469  1.0000
  C   C206      1.0  0.19101  0.87355  0.35160  1.0000
  N   N173      1.0  0.18544  0.85493  0.42109  1.0000
  C   C207      1.0  0.16061  0.82916  0.43322  1.0000
  N   N174      1.0  0.15767  0.81159  0.50853  1.0000
  O   O65       1.0  0.18071  0.81944  0.55148  1.0000
  O   O66       1.0  0.14005  0.81229  0.56295  1.0000
  C   C208      1.0  0.82202  0.68800  0.36532  1.0000
  C   C209      1.0  0.87607  0.69016  0.35213  1.0000
  N   N175      1.0  0.85739  0.67701  0.42142  1.0000
  C   C210      1.0  0.83162  0.67605  0.43363  1.0000
  N   N176      1.0  0.81399  0.66130  0.50870  1.0000
  O   O67       1.0  0.82181  0.64603  0.55140  1.0000
  O   O68       1.0  0.81464  0.67952  0.56343  1.0000
  C   C211      1.0  0.32482  0.13656  0.36504  1.0000
  C   C212      1.0  0.32273  0.18847  0.35160  1.0000
  N   N177      1.0  0.33574  0.18290  0.42119  1.0000
  C   C213      1.0  0.33666  0.15807  0.43349  1.0000
  N   N178      1.0  0.35128  0.15513  0.50882  1.0000
  O   O69       1.0  0.36648  0.17819  0.55173  1.0000
  O   O70       1.0  0.33297  0.13753  0.56326  1.0000
  C   C214      1.0  0.87621  0.19080  0.36509  1.0000
  C   C215      1.0  0.82434  0.13682  0.35171  1.0000
  N   N179      1.0  0.82977  0.15548  0.42096  1.0000
  C   C216      1.0  0.85459  0.18125  0.43319  1.0000
  N   N180      1.0  0.85742  0.19888  0.50821  1.0000
  O   O71       1.0  0.83430  0.19111  0.55063  1.0000
  O   O72       1.0  0.87490  0.19817  0.56317  1.0000
