data_image0
_chemical_formula_structural       C5NH3C5NH3C5NH3C5NH3NC5H3NC5H3C5NH3C5NH3NC5H3NC5H3C5NH3C5NH3C5NH3C5NH3NC5H3NC5H3NC5H3NC5H3C6H3C6H3C6H3C6H3C6H3C6H3C6H3C6H3C6H3C6H3C6H3C6H3NC5H3NC5H3NC5H3NC5H3C5NH3C5NH3NC5H3NC5H3C5NH3C5NH3NC5H3NC5H3NC5H3NC5H3C5NH3C5NH3C5NH3C5NH3
_chemical_formula_sum              "C252 N36 H144"
_cell_length_a       32.0178
_cell_length_b       83.0195
_cell_length_c       14.8733
_cell_angle_alpha    90
_cell_angle_beta     90
_cell_angle_gamma    90

_space_group_name_H-M_alt    "P 1"
_space_group_IT_number       1

loop_
  _space_group_symop_operation_xyz
  'x, y, z'

loop_
  _atom_site_type_symbol
  _atom_site_label
  _atom_site_symmetry_multiplicity
  _atom_site_fract_x
  _atom_site_fract_y
  _atom_site_fract_z
  _atom_site_occupancy
  C   C1        1.0  0.61494  0.17365  0.33944  1.0000
  C   C2        1.0  0.59261  0.17373  0.25764  1.0000
  C   C3        1.0  0.54872  0.17270  0.25750  1.0000
  C   C4        1.0  0.52655  0.17186  0.33984  1.0000
  C   C5        1.0  0.41663  0.17258  0.26427  1.0000
  N   N1        1.0  0.45896  0.17185  0.26730  1.0000
  H   H1        1.0  0.40211  0.17296  0.20307  1.0000
  H   H2        1.0  0.60805  0.17498  0.19776  1.0000
  H   H3        1.0  0.53335  0.17310  0.19726  1.0000
  C   C6        1.0  0.39360  0.83484  0.33929  1.0000
  C   C7        1.0  0.41592  0.83478  0.25749  1.0000
  C   C8        1.0  0.45981  0.83583  0.25735  1.0000
  C   C9        1.0  0.48198  0.83665  0.33969  1.0000
  C   C10       1.0  0.59190  0.83595  0.26411  1.0000
  N   N2        1.0  0.54957  0.83668  0.26716  1.0000
  H   H4        1.0  0.60641  0.83559  0.20291  1.0000
  H   H5        1.0  0.40047  0.83356  0.19761  1.0000
  H   H6        1.0  0.47518  0.83545  0.19710  1.0000
  C   C11       1.0  0.11494  0.67362  0.33940  1.0000
  C   C12       1.0  0.09259  0.67382  0.25764  1.0000
  C   C13       1.0  0.04870  0.67277  0.25747  1.0000
  C   C14       1.0  0.02655  0.67185  0.33978  1.0000
  C   C15       1.0  0.91662  0.67249  0.26420  1.0000
  N   N3        1.0  0.95894  0.67175  0.26724  1.0000
  H   H7        1.0  0.90209  0.67278  0.20300  1.0000
  H   H8        1.0  0.10803  0.67511  0.19778  1.0000
  H   H9        1.0  0.03333  0.67323  0.19724  1.0000
  C   C16       1.0  0.89360  0.33487  0.33939  1.0000
  C   C17       1.0  0.91594  0.33468  0.25762  1.0000
  C   C18       1.0  0.95982  0.33573  0.25743  1.0000
  C   C19       1.0  0.98198  0.33668  0.33974  1.0000
  C   C20       1.0  0.09191  0.33604  0.26414  1.0000
  N   N4        1.0  0.04958  0.33677  0.26719  1.0000
  H   H10       1.0  0.10643  0.33575  0.20293  1.0000
  H   H11       1.0  0.90050  0.33334  0.19778  1.0000
  H   H12       1.0  0.97520  0.33522  0.19722  1.0000
  N   N5        1.0  0.20022  0.13747  0.26603  1.0000
  C   C21       1.0  0.23115  0.14865  0.26298  1.0000
  C   C22       1.0  0.14948  0.12021  0.33869  1.0000
  C   C23       1.0  0.13159  0.11505  0.25640  1.0000
  C   C24       1.0  0.09706  0.10454  0.25659  1.0000
  C   C25       1.0  0.08040  0.09878  0.33836  1.0000
  H   H13       1.0  0.14247  0.11923  0.19611  1.0000
  H   H14       1.0  0.08353  0.10143  0.19668  1.0000
  H   H15       1.0  0.24171  0.15252  0.20180  1.0000
  N   N6        1.0  0.80825  0.87110  0.26636  1.0000
  C   C26       1.0  0.77732  0.85992  0.26320  1.0000
  C   C27       1.0  0.85906  0.88831  0.33922  1.0000
  C   C28       1.0  0.87661  0.89365  0.25697  1.0000
  C   C29       1.0  0.91113  0.90417  0.25726  1.0000
  C   C30       1.0  0.92815  0.90972  0.33912  1.0000
  H   H16       1.0  0.86545  0.88962  0.19659  1.0000
  H   H17       1.0  0.92440  0.90743  0.19731  1.0000
  H   H18       1.0  0.76671  0.85609  0.20198  1.0000
  C   C31       1.0  0.76122  0.15507  0.34006  1.0000
  C   C32       1.0  0.77813  0.14948  0.25820  1.0000
  C   C33       1.0  0.80994  0.13776  0.25792  1.0000
  C   C34       1.0  0.82557  0.13158  0.34015  1.0000
  C   C35       1.0  0.90965  0.10425  0.26406  1.0000
  N   N7        1.0  0.87674  0.11455  0.26726  1.0000
  H   H19       1.0  0.92144  0.10099  0.20281  1.0000
  H   H20       1.0  0.76782  0.15406  0.19827  1.0000
  H   H21       1.0  0.82190  0.13408  0.19755  1.0000
  C   C36       1.0  0.24736  0.85346  0.34017  1.0000
  C   C37       1.0  0.23048  0.85909  0.25835  1.0000
  C   C38       1.0  0.19869  0.87081  0.25818  1.0000
  C   C39       1.0  0.18299  0.87694  0.34046  1.0000
  C   C40       1.0  0.09930  0.90448  0.26467  1.0000
  N   N8        1.0  0.13218  0.89416  0.26777  1.0000
  H   H22       1.0  0.08778  0.90789  0.20344  1.0000
  H   H23       1.0  0.24082  0.85453  0.19837  1.0000
  H   H24       1.0  0.18672  0.87451  0.19785  1.0000
  N   N9        1.0  0.70070  0.63729  0.26609  1.0000
  C   C41       1.0  0.73167  0.64846  0.26313  1.0000
  C   C42       1.0  0.64952  0.62019  0.33861  1.0000
  C   C43       1.0  0.63173  0.61500  0.25630  1.0000
  C   C44       1.0  0.59719  0.60449  0.25645  1.0000
  C   C45       1.0  0.58044  0.59878  0.33821  1.0000
  H   H25       1.0  0.64268  0.61916  0.19602  1.0000
  H   H26       1.0  0.58372  0.60136  0.19652  1.0000
  H   H27       1.0  0.74257  0.65220  0.20200  1.0000
  N   N10       1.0  0.30783  0.37126  0.26640  1.0000
  C   C46       1.0  0.27686  0.36010  0.26332  1.0000
  C   C47       1.0  0.35904  0.38832  0.33912  1.0000
  C   C48       1.0  0.37650  0.39370  0.25686  1.0000
  C   C49       1.0  0.41103  0.40422  0.25712  1.0000
  C   C50       1.0  0.42815  0.40972  0.33898  1.0000
  H   H28       1.0  0.36528  0.38969  0.19649  1.0000
  H   H29       1.0  0.42423  0.40750  0.19716  1.0000
  H   H30       1.0  0.26592  0.35639  0.20214  1.0000
  C   C51       1.0  0.26123  0.65506  0.33998  1.0000
  C   C52       1.0  0.27860  0.64964  0.25821  1.0000
  C   C53       1.0  0.31038  0.63791  0.25798  1.0000
  C   C54       1.0  0.32559  0.63158  0.34020  1.0000
  C   C55       1.0  0.40976  0.60429  0.26417  1.0000
  N   N11       1.0  0.37684  0.61458  0.26736  1.0000
  H   H31       1.0  0.42161  0.60105  0.20293  1.0000
  H   H32       1.0  0.26859  0.65434  0.19831  1.0000
  H   H33       1.0  0.32266  0.63436  0.19768  1.0000
  C   C56       1.0  0.74733  0.35346  0.34007  1.0000
  C   C57       1.0  0.73001  0.35893  0.25833  1.0000
  C   C58       1.0  0.69825  0.37066  0.25822  1.0000
  C   C59       1.0  0.68300  0.37696  0.34050  1.0000
  C   C60       1.0  0.59921  0.40445  0.26478  1.0000
  N   N12       1.0  0.63211  0.39414  0.26786  1.0000
  H   H34       1.0  0.58762  0.40783  0.20356  1.0000
  H   H35       1.0  0.73999  0.35424  0.19839  1.0000
  H   H36       1.0  0.68594  0.37423  0.19796  1.0000
  C   C61       1.0  0.28003  0.21277  0.33965  1.0000
  C   C62       1.0  0.27446  0.22104  0.25770  1.0000
  C   C63       1.0  0.26398  0.23750  0.25752  1.0000
  C   C64       1.0  0.25928  0.24590  0.33988  1.0000
  C   C65       1.0  0.23368  0.28707  0.26395  1.0000
  N   N13       1.0  0.24361  0.27119  0.26706  1.0000
  H   H37       1.0  0.22949  0.29246  0.20280  1.0000
  H   H38       1.0  0.27846  0.21520  0.19770  1.0000
  H   H39       1.0  0.26034  0.24323  0.19713  1.0000
  C   C66       1.0  0.72847  0.79575  0.33963  1.0000
  C   C67       1.0  0.73403  0.78747  0.25770  1.0000
  C   C68       1.0  0.74450  0.77101  0.25753  1.0000
  C   C69       1.0  0.74921  0.76262  0.33989  1.0000
  C   C70       1.0  0.77478  0.72144  0.26400  1.0000
  N   N14       1.0  0.76485  0.73732  0.26709  1.0000
  H   H40       1.0  0.77895  0.71605  0.20285  1.0000
  H   H41       1.0  0.73003  0.79331  0.19768  1.0000
  H   H42       1.0  0.74813  0.76528  0.19714  1.0000
  N   N15       1.0  0.74355  0.23733  0.26669  1.0000
  C   C71       1.0  0.73362  0.22146  0.26358  1.0000
  C   C72       1.0  0.75927  0.26263  0.33948  1.0000
  C   C73       1.0  0.76409  0.27100  0.25710  1.0000
  C   C74       1.0  0.77458  0.28746  0.25724  1.0000
  C   C75       1.0  0.78002  0.29576  0.33917  1.0000
  H   H43       1.0  0.76055  0.26526  0.19673  1.0000
  H   H44       1.0  0.77866  0.29329  0.19722  1.0000
  H   H45       1.0  0.72938  0.21607  0.20242  1.0000
  N   N16       1.0  0.26495  0.77118  0.26672  1.0000
  C   C76       1.0  0.27488  0.78705  0.26359  1.0000
  C   C77       1.0  0.24922  0.74589  0.33953  1.0000
  C   C78       1.0  0.24443  0.73751  0.25716  1.0000
  C   C79       1.0  0.23395  0.72105  0.25732  1.0000
  C   C80       1.0  0.22846  0.71276  0.33925  1.0000
  H   H46       1.0  0.24797  0.74325  0.19678  1.0000
  H   H47       1.0  0.22986  0.71522  0.19730  1.0000
  H   H48       1.0  0.27914  0.79243  0.20242  1.0000
  N   N17       1.0  0.00491  0.02177  0.26664  1.0000
  C   C81       1.0  0.00497  0.03814  0.26350  1.0000
  C   C82       1.0  0.00429  0.99563  0.33955  1.0000
  C   C83       1.0  0.00373  0.98698  0.25739  1.0000
  C   C84       1.0  0.00368  0.96999  0.25764  1.0000
  C   C85       1.0  0.00431  0.96137  0.33943  1.0000
  H   H49       1.0  0.00326  0.99286  0.19698  1.0000
  H   H50       1.0  0.00324  0.96396  0.19761  1.0000
  H   H51       1.0  0.00545  0.04373  0.20227  1.0000
  N   N18       1.0  0.50495  0.52178  0.26665  1.0000
  C   C86       1.0  0.50502  0.53814  0.26350  1.0000
  C   C87       1.0  0.50429  0.49563  0.33956  1.0000
  C   C88       1.0  0.50370  0.48698  0.25740  1.0000
  C   C89       1.0  0.50364  0.47000  0.25765  1.0000
  C   C90       1.0  0.50431  0.46137  0.33943  1.0000
  H   H52       1.0  0.50319  0.49286  0.19699  1.0000
  H   H53       1.0  0.50316  0.46397  0.19761  1.0000
  H   H54       1.0  0.50553  0.54374  0.20228  1.0000
  C   C91       1.0  0.29318  0.19653  0.34086  1.0000
  C   C92       1.0  0.33622  0.19291  0.34205  1.0000
  C   C93       1.0  0.35018  0.17678  0.34320  1.0000
  C   C94       1.0  0.32053  0.16416  0.34333  1.0000
  C   C95       1.0  0.27726  0.16761  0.34233  1.0000
  C   C96       1.0  0.26386  0.18383  0.34106  1.0000
  H   H55       1.0  0.33048  0.15243  0.34452  1.0000
  H   H56       1.0  0.23255  0.18643  0.34048  1.0000
  H   H57       1.0  0.35760  0.20211  0.34203  1.0000
  C   C97       1.0  0.71534  0.81199  0.34084  1.0000
  C   C98       1.0  0.67230  0.81561  0.34194  1.0000
  C   C99       1.0  0.65834  0.83174  0.34308  1.0000
  C   C100      1.0  0.68801  0.84436  0.34323  1.0000
  C   C101      1.0  0.73127  0.84091  0.34234  1.0000
  C   C102      1.0  0.74467  0.82468  0.34112  1.0000
  H   H58       1.0  0.67806  0.85609  0.34444  1.0000
  H   H59       1.0  0.77597  0.82208  0.34062  1.0000
  H   H60       1.0  0.65091  0.80641  0.34188  1.0000
  C   C103      1.0  0.71535  0.19653  0.34303  1.0000
  C   C104      1.0  0.67231  0.19291  0.34209  1.0000
  C   C105      1.0  0.65835  0.17678  0.34097  1.0000
  C   C106      1.0  0.68800  0.16417  0.34072  1.0000
  C   C107      1.0  0.73127  0.16761  0.34147  1.0000
  C   C108      1.0  0.74467  0.18383  0.34264  1.0000
  H   H61       1.0  0.67805  0.15244  0.33953  1.0000
  H   H62       1.0  0.77598  0.18643  0.34305  1.0000
  H   H63       1.0  0.65093  0.20211  0.34222  1.0000
  C   C109      1.0  0.29316  0.81198  0.34302  1.0000
  C   C110      1.0  0.33621  0.81560  0.34201  1.0000
  C   C111      1.0  0.35019  0.83173  0.34087  1.0000
  C   C112      1.0  0.32055  0.84434  0.34064  1.0000
  C   C113      1.0  0.27728  0.84091  0.34146  1.0000
  C   C114      1.0  0.26386  0.82469  0.34268  1.0000
  H   H64       1.0  0.33052  0.85607  0.33945  1.0000
  H   H65       1.0  0.23255  0.82210  0.34316  1.0000
  H   H66       1.0  0.35757  0.80639  0.34211  1.0000
  C   C115      1.0  0.79315  0.69653  0.34349  1.0000
  C   C116      1.0  0.83620  0.69292  0.34367  1.0000
  C   C117      1.0  0.85019  0.67679  0.34311  1.0000
  C   C118      1.0  0.82055  0.66417  0.34234  1.0000
  C   C119      1.0  0.77728  0.66760  0.34253  1.0000
  C   C120      1.0  0.76385  0.68382  0.34320  1.0000
  H   H67       1.0  0.83053  0.65244  0.34257  1.0000
  H   H68       1.0  0.73254  0.68641  0.34365  1.0000
  H   H69       1.0  0.85756  0.70212  0.34445  1.0000
  C   C121      1.0  0.21535  0.31199  0.34341  1.0000
  C   C122      1.0  0.17231  0.31561  0.34357  1.0000
  C   C123      1.0  0.15834  0.33174  0.34302  1.0000
  C   C124      1.0  0.18800  0.34436  0.34231  1.0000
  C   C125      1.0  0.23127  0.34091  0.34251  1.0000
  C   C126      1.0  0.24467  0.32469  0.34318  1.0000
  H   H70       1.0  0.17805  0.35609  0.34255  1.0000
  H   H71       1.0  0.27598  0.32209  0.34367  1.0000
  H   H72       1.0  0.15093  0.30641  0.34432  1.0000
  C   C127      1.0  0.21534  0.69652  0.34045  1.0000
  C   C128      1.0  0.17230  0.69290  0.34043  1.0000
  C   C129      1.0  0.15835  0.67676  0.34099  1.0000
  C   C130      1.0  0.18802  0.66415  0.34165  1.0000
  C   C131      1.0  0.23128  0.66760  0.34134  1.0000
  C   C132      1.0  0.24467  0.68383  0.34061  1.0000
  H   H73       1.0  0.17807  0.65242  0.34144  1.0000
  H   H74       1.0  0.27597  0.68643  0.34004  1.0000
  H   H75       1.0  0.15091  0.70210  0.33971  1.0000
  C   C133      1.0  0.79317  0.31199  0.34037  1.0000
  C   C134      1.0  0.83621  0.31561  0.34033  1.0000
  C   C135      1.0  0.85018  0.33174  0.34094  1.0000
  C   C136      1.0  0.82053  0.34436  0.34164  1.0000
  C   C137      1.0  0.77726  0.34092  0.34131  1.0000
  C   C138      1.0  0.76385  0.32469  0.34056  1.0000
  H   H76       1.0  0.83049  0.35609  0.34148  1.0000
  H   H77       1.0  0.73255  0.32210  0.34002  1.0000
  H   H78       1.0  0.85759  0.30641  0.33961  1.0000
  C   C139      1.0  0.04265  0.08990  0.33996  1.0000
  C   C140      1.0  0.00428  0.09828  0.34098  1.0000
  C   C141      1.0  0.96591  0.08991  0.34300  1.0000
  C   C142      1.0  0.96616  0.07288  0.34398  1.0000
  C   C143      1.0  0.00427  0.06424  0.34270  1.0000
  C   C144      1.0  0.04239  0.07287  0.34078  1.0000
  H   H79       1.0  0.93840  0.06674  0.34558  1.0000
  H   H80       1.0  0.07015  0.06673  0.34011  1.0000
  H   H81       1.0  0.00428  0.11063  0.34050  1.0000
  C   C145      1.0  0.96591  0.91861  0.34057  1.0000
  C   C146      1.0  0.00427  0.91023  0.34260  1.0000
  C   C147      1.0  0.04265  0.91861  0.34353  1.0000
  C   C148      1.0  0.04241  0.93563  0.34261  1.0000
  C   C149      1.0  0.00430  0.94427  0.34068  1.0000
  C   C150      1.0  0.96617  0.93563  0.33950  1.0000
  H   H82       1.0  0.07017  0.94177  0.34323  1.0000
  H   H83       1.0  0.93842  0.94177  0.33792  1.0000
  H   H84       1.0  0.00427  0.89787  0.34316  1.0000
  C   C151      1.0  0.54267  0.58990  0.33980  1.0000
  C   C152      1.0  0.50431  0.59828  0.34097  1.0000
  C   C153      1.0  0.46593  0.58991  0.34315  1.0000
  C   C154      1.0  0.46618  0.57288  0.34415  1.0000
  C   C155      1.0  0.50428  0.56424  0.34271  1.0000
  C   C156      1.0  0.54240  0.57287  0.34061  1.0000
  H   H85       1.0  0.43841  0.56675  0.34583  1.0000
  H   H86       1.0  0.57016  0.56673  0.33986  1.0000
  H   H87       1.0  0.50432  0.61064  0.34049  1.0000
  C   C157      1.0  0.46590  0.41861  0.34040  1.0000
  C   C158      1.0  0.50426  0.41024  0.34261  1.0000
  C   C159      1.0  0.54264  0.41861  0.34369  1.0000
  C   C160      1.0  0.54240  0.43563  0.34277  1.0000
  C   C161      1.0  0.50429  0.44427  0.34069  1.0000
  C   C162      1.0  0.46617  0.43564  0.33933  1.0000
  H   H88       1.0  0.57017  0.44177  0.34349  1.0000
  H   H89       1.0  0.43842  0.44178  0.33766  1.0000
  H   H90       1.0  0.50426  0.39788  0.34315  1.0000
  N   N19       1.0  0.54958  0.17187  0.41698  1.0000
  C   C163      1.0  0.59190  0.17261  0.42001  1.0000
  C   C164      1.0  0.48198  0.17186  0.34445  1.0000
  C   C165      1.0  0.45981  0.17271  0.42678  1.0000
  C   C166      1.0  0.41592  0.17376  0.42662  1.0000
  C   C167      1.0  0.39359  0.17364  0.34484  1.0000
  H   H91       1.0  0.47518  0.17315  0.48701  1.0000
  H   H92       1.0  0.40048  0.17502  0.48648  1.0000
  H   H93       1.0  0.60642  0.17300  0.48120  1.0000
  N   N20       1.0  0.45896  0.83663  0.41685  1.0000
  C   C168      1.0  0.41663  0.83588  0.41988  1.0000
  C   C169      1.0  0.52655  0.83667  0.34430  1.0000
  C   C170      1.0  0.54872  0.83580  0.42663  1.0000
  C   C171      1.0  0.59261  0.83476  0.42646  1.0000
  C   C172      1.0  0.61494  0.83488  0.34466  1.0000
  H   H94       1.0  0.53336  0.83536  0.48686  1.0000
  H   H95       1.0  0.60806  0.83350  0.48632  1.0000
  H   H96       1.0  0.40211  0.83548  0.48107  1.0000
  N   N21       1.0  0.04959  0.67176  0.41691  1.0000
  C   C173      1.0  0.09192  0.67248  0.41995  1.0000
  C   C174      1.0  0.98198  0.67185  0.34438  1.0000
  C   C175      1.0  0.95983  0.67281  0.42669  1.0000
  C   C176      1.0  0.91595  0.67388  0.42651  1.0000
  C   C177      1.0  0.89360  0.67367  0.34474  1.0000
  H   H97       1.0  0.97521  0.67330  0.48690  1.0000
  H   H98       1.0  0.90050  0.67519  0.48635  1.0000
  H   H99       1.0  0.10644  0.67282  0.48115  1.0000
  N   N22       1.0  0.95894  0.33678  0.41688  1.0000
  C   C178      1.0  0.91661  0.33606  0.41993  1.0000
  C   C179      1.0  0.02655  0.33667  0.34433  1.0000
  C   C180      1.0  0.04870  0.33572  0.42664  1.0000
  C   C181      1.0  0.09259  0.33467  0.42643  1.0000
  C   C182      1.0  0.11494  0.33488  0.34467  1.0000
  H   H100      1.0  0.03333  0.33521  0.48685  1.0000
  H   H101      1.0  0.10803  0.33334  0.48627  1.0000
  H   H102      1.0  0.90209  0.33573  0.48113  1.0000
  C   C183      1.0  0.24732  0.15507  0.34356  1.0000
  C   C184      1.0  0.23053  0.14939  0.42536  1.0000
  C   C185      1.0  0.19871  0.13767  0.42549  1.0000
  C   C186      1.0  0.18296  0.13158  0.34318  1.0000
  C   C187      1.0  0.09928  0.10403  0.41888  1.0000
  N   N23       1.0  0.13215  0.11435  0.41582  1.0000
  H   H103      1.0  0.08772  0.10063  0.48010  1.0000
  H   H104      1.0  0.24090  0.15392  0.48536  1.0000
  H   H105      1.0  0.18681  0.13395  0.48582  1.0000
  C   C188      1.0  0.76122  0.85345  0.34371  1.0000
  C   C189      1.0  0.77808  0.85907  0.42556  1.0000
  C   C190      1.0  0.80988  0.87078  0.42582  1.0000
  C   C191      1.0  0.82557  0.87694  0.34357  1.0000
  C   C192      1.0  0.90964  0.90428  0.41962  1.0000
  N   N24       1.0  0.87672  0.89398  0.41644  1.0000
  H   H106      1.0  0.92143  0.90754  0.48085  1.0000
  H   H107      1.0  0.76773  0.85450  0.48551  1.0000
  H   H108      1.0  0.82181  0.87448  0.48618  1.0000
  N   N25       1.0  0.80820  0.13739  0.41736  1.0000
  C   C193      1.0  0.77725  0.14856  0.42055  1.0000
  C   C194      1.0  0.85907  0.12021  0.34449  1.0000
  C   C195      1.0  0.87663  0.11487  0.42672  1.0000
  C   C196      1.0  0.91114  0.10435  0.42641  1.0000
  C   C197      1.0  0.92816  0.09880  0.34454  1.0000
  H   H109      1.0  0.86543  0.11888  0.48711  1.0000
  H   H110      1.0  0.92438  0.10107  0.48635  1.0000
  H   H111      1.0  0.76662  0.15238  0.48178  1.0000
  N   N26       1.0  0.20030  0.87108  0.41763  1.0000
  C   C198      1.0  0.23125  0.85991  0.42071  1.0000
  C   C199      1.0  0.14949  0.88830  0.34493  1.0000
  C   C200      1.0  0.13158  0.89345  0.42719  1.0000
  C   C201      1.0  0.09704  0.90396  0.42698  1.0000
  C   C202      1.0  0.08040  0.90972  0.34519  1.0000
  H   H112      1.0  0.14246  0.88927  0.48750  1.0000
  H   H113      1.0  0.08350  0.90707  0.48687  1.0000
  H   H114      1.0  0.24184  0.85606  0.48191  1.0000
  C   C203      1.0  0.74736  0.65505  0.34371  1.0000
  C   C204      1.0  0.73008  0.64956  0.42543  1.0000
  C   C205      1.0  0.69829  0.63783  0.42549  1.0000
  C   C206      1.0  0.68300  0.63157  0.34317  1.0000
  C   C207      1.0  0.59922  0.60406  0.41876  1.0000
  N   N27       1.0  0.63209  0.61438  0.41574  1.0000
  H   H115      1.0  0.58759  0.60069  0.47997  1.0000
  H   H116      1.0  0.74011  0.65422  0.48539  1.0000
  H   H117      1.0  0.68604  0.63423  0.48573  1.0000
  C   C208      1.0  0.26121  0.35345  0.34382  1.0000
  C   C209      1.0  0.27853  0.35890  0.42559  1.0000
  C   C210      1.0  0.31032  0.37063  0.42577  1.0000
  C   C211      1.0  0.32557  0.37694  0.34353  1.0000
  C   C212      1.0  0.40972  0.40425  0.41949  1.0000
  N   N28       1.0  0.37680  0.39395  0.41632  1.0000
  H   H118      1.0  0.42158  0.40748  0.48071  1.0000
  H   H119      1.0  0.26851  0.35422  0.48550  1.0000
  H   H120      1.0  0.32257  0.37420  0.48606  1.0000
  N   N29       1.0  0.30782  0.63724  0.41734  1.0000
  C   C213      1.0  0.27682  0.64839  0.42046  1.0000
  C   C214      1.0  0.35909  0.62021  0.34458  1.0000
  C   C215      1.0  0.37655  0.61483  0.42683  1.0000
  C   C216      1.0  0.41108  0.60431  0.42655  1.0000
  C   C217      1.0  0.42819  0.59881  0.34468  1.0000
  H   H121      1.0  0.36529  0.61881  0.48721  1.0000
  H   H122      1.0  0.42425  0.60101  0.48650  1.0000
  H   H123      1.0  0.26588  0.65209  0.48165  1.0000
  N   N30       1.0  0.70074  0.37126  0.41759  1.0000
  C   C218      1.0  0.73173  0.36010  0.42060  1.0000
  C   C219      1.0  0.64950  0.38832  0.34501  1.0000
  C   C220      1.0  0.63170  0.39351  0.42730  1.0000
  C   C221      1.0  0.59714  0.40401  0.42711  1.0000
  C   C222      1.0  0.58039  0.40972  0.34532  1.0000
  H   H124      1.0  0.64264  0.38936  0.48760  1.0000
  H   H125      1.0  0.58365  0.40715  0.48703  1.0000
  H   H126      1.0  0.74264  0.35637  0.48177  1.0000
  N   N31       1.0  0.26508  0.23735  0.41715  1.0000
  C   C223      1.0  0.27502  0.22147  0.42029  1.0000
  C   C224      1.0  0.24927  0.26262  0.34433  1.0000
  C   C225      1.0  0.24443  0.27100  0.42670  1.0000
  C   C226      1.0  0.23393  0.28746  0.42655  1.0000
  C   C227      1.0  0.22849  0.29575  0.34462  1.0000
  H   H127      1.0  0.24793  0.26526  0.48709  1.0000
  H   H128      1.0  0.22980  0.29329  0.48657  1.0000
  H   H129      1.0  0.27932  0.21610  0.48145  1.0000
  N   N32       1.0  0.74343  0.77117  0.41716  1.0000
  C   C228      1.0  0.73350  0.78705  0.42028  1.0000
  C   C229      1.0  0.75921  0.74589  0.34435  1.0000
  C   C230      1.0  0.76407  0.73752  0.42674  1.0000
  C   C231      1.0  0.77457  0.72106  0.42660  1.0000
  C   C232      1.0  0.77998  0.71276  0.34467  1.0000
  H   H130      1.0  0.76058  0.74326  0.48711  1.0000
  H   H131      1.0  0.77871  0.71523  0.48662  1.0000
  H   H132      1.0  0.72922  0.79243  0.48144  1.0000
  C   C233      1.0  0.72849  0.21277  0.34424  1.0000
  C   C234      1.0  0.73397  0.22106  0.42617  1.0000
  C   C235      1.0  0.74446  0.23752  0.42633  1.0000
  C   C236      1.0  0.74925  0.24590  0.34396  1.0000
  C   C237      1.0  0.77488  0.28707  0.41983  1.0000
  N   N33       1.0  0.76495  0.27119  0.41674  1.0000
  H   H133      1.0  0.77907  0.29246  0.48099  1.0000
  H   H134      1.0  0.72992  0.21522  0.48619  1.0000
  H   H135      1.0  0.74804  0.24325  0.48671  1.0000
  C   C238      1.0  0.28000  0.79575  0.34423  1.0000
  C   C239      1.0  0.27448  0.78747  0.42618  1.0000
  C   C240      1.0  0.26399  0.77101  0.42635  1.0000
  C   C241      1.0  0.25922  0.76262  0.34399  1.0000
  C   C242      1.0  0.23360  0.72145  0.41991  1.0000
  N   N34       1.0  0.24353  0.73733  0.41680  1.0000
  H   H136      1.0  0.22939  0.71606  0.48107  1.0000
  H   H137      1.0  0.27855  0.79330  0.48619  1.0000
  H   H138      1.0  0.26042  0.76527  0.48674  1.0000
  C   C243      1.0  0.00428  0.04714  0.34394  1.0000
  C   C244      1.0  0.00359  0.03851  0.42571  1.0000
  C   C245      1.0  0.00365  0.02153  0.42596  1.0000
  C   C246      1.0  0.00428  0.01288  0.34379  1.0000
  C   C247      1.0  0.00493  0.97037  0.41987  1.0000
  N   N35       1.0  0.00486  0.98674  0.41671  1.0000
  H   H139      1.0  0.00536  0.96478  0.48110  1.0000
  H   H140      1.0  0.00310  0.04454  0.48575  1.0000
  H   H141      1.0  0.00313  0.01565  0.48636  1.0000
  C   C248      1.0  0.50428  0.54714  0.34394  1.0000
  C   C249      1.0  0.50355  0.53852  0.42572  1.0000
  C   C250      1.0  0.50361  0.52153  0.42596  1.0000
  C   C251      1.0  0.50428  0.51288  0.34380  1.0000
  C   C252      1.0  0.50497  0.47037  0.41987  1.0000
  N   N36       1.0  0.50490  0.48674  0.41671  1.0000
  H   H142      1.0  0.50543  0.46478  0.48110  1.0000
  H   H143      1.0  0.50303  0.54455  0.48575  1.0000
  H   H144      1.0  0.50306  0.51565  0.48637  1.0000
