data_image0
_chemical_formula_structural       O2C2NCNC2O2HCNC2O2HCNC2O2HCNC2O2HCNC2O2HCNC2O2HNC3O2HNC3O2HC3O2HNC3O2HNC3O2HNC2OHNC3O2HNC3O2HNC3O2HNC3O2HNC3O2HNC3O2HCNCNCNC18H12CNCNCNC18H12CNCNCNC18H12CNCNCNC18H12CNCNCNC18H12CNCNCNC18H12CNCNCNC18H12CNCNCNC18H12CNCNCNC18H12CNCNCNC18H12CNCNCNC18H12CNCNCNC18H12NC3O2HNC3O2HNC3O2HNC3O2HNC3O2HNC3O2HCNC2O2HCNC2O2HCNCOHCNC2O2HCNC2O2HCNC2O2HCNC2O2HCNC2O2HCNC2O2HCNC2O2HCNC2O2HCNC2O2H
_chemical_formula_sum              "O72 C360 N72 H180"
_cell_length_a       74.2454
_cell_length_b       74.2454
_cell_length_c       14.997
_cell_angle_alpha    90
_cell_angle_beta     90
_cell_angle_gamma    120

_space_group_name_H-M_alt    "P 1"
_space_group_IT_number       1

loop_
  _space_group_symop_operation_xyz
  'x, y, z'

loop_
  _atom_site_type_symbol
  _atom_site_label
  _atom_site_symmetry_multiplicity
  _atom_site_fract_x
  _atom_site_fract_y
  _atom_site_fract_z
  _atom_site_occupancy
  O   O1        1.0  0.00403  0.16728  0.13555  1.0000
  O   O2        1.0  0.00410  0.77154  0.52238  1.0000
  C   C1        1.0  0.00480  0.18661  0.25195  1.0000
  C   C2        1.0  0.00475  0.79095  0.40673  1.0000
  N   N1        1.0  0.00754  0.80551  0.26301  1.0000
  C   C3        1.0  0.18251  0.36524  0.33889  1.0000
  N   N2        1.0  0.20557  0.39916  0.28366  1.0000
  C   C4        1.0  0.19581  0.37827  0.27030  1.0000
  C   C5        1.0  0.19832  0.37103  0.18848  1.0000
  O   O3        1.0  0.21567  0.37958  0.15521  1.0000
  O   O4        1.0  0.18378  0.36256  0.13478  1.0000
  H   H1        1.0  0.17046  0.35735  0.14798  1.0000
  C   C6        1.0  0.62165  0.80397  0.33887  1.0000
  N   N3        1.0  0.58773  0.79308  0.28358  1.0000
  C   C7        1.0  0.60863  0.80423  0.27023  1.0000
  C   C8        1.0  0.61590  0.81397  0.18844  1.0000
  O   O5        1.0  0.60717  0.82258  0.15500  1.0000
  O   O6        1.0  0.62425  0.80787  0.13433  1.0000
  H   H2        1.0  0.62953  0.79982  0.14740  1.0000
  C   C9        1.0  0.18294  0.80440  0.33876  1.0000
  N   N4        1.0  0.19381  0.78135  0.28353  1.0000
  C   C10       1.0  0.18268  0.79111  0.27013  1.0000
  C   C11       1.0  0.17293  0.78860  0.18838  1.0000
  O   O7        1.0  0.16438  0.77135  0.15414  1.0000
  O   O8        1.0  0.17886  0.80313  0.13469  1.0000
  H   H3        1.0  0.18688  0.81646  0.14795  1.0000
  C   C12       1.0  0.80889  0.61713  0.33878  1.0000
  N   N5        1.0  0.78583  0.58321  0.28362  1.0000
  C   C13       1.0  0.79559  0.60410  0.27021  1.0000
  C   C14       1.0  0.79309  0.61133  0.18839  1.0000
  O   O9        1.0  0.77584  0.60263  0.15415  1.0000
  O   O10       1.0  0.80762  0.61989  0.13469  1.0000
  H   H4        1.0  0.82095  0.62520  0.14798  1.0000
  C   C15       1.0  0.36973  0.17840  0.33891  1.0000
  N   N6        1.0  0.40365  0.18925  0.28371  1.0000
  C   C16       1.0  0.38276  0.17812  0.27033  1.0000
  C   C17       1.0  0.37552  0.16839  0.18848  1.0000
  O   O11       1.0  0.38407  0.15958  0.15522  1.0000
  O   O12       1.0  0.36706  0.17446  0.13479  1.0000
  H   H5        1.0  0.36185  0.18257  0.14800  1.0000
  C   C18       1.0  0.80847  0.17801  0.33889  1.0000
  N   N7        1.0  0.79758  0.20104  0.28364  1.0000
  C   C19       1.0  0.80873  0.19130  0.27027  1.0000
  C   C20       1.0  0.81846  0.19376  0.18848  1.0000
  O   O13       1.0  0.82708  0.21111  0.15506  1.0000
  O   O14       1.0  0.81237  0.17933  0.13436  1.0000
  H   H6        1.0  0.80431  0.16598  0.14742  1.0000
  N   N8        1.0  0.18134  0.18870  0.26299  1.0000
  C   C21       1.0  0.19109  0.17747  0.25199  1.0000
  C   C22       1.0  0.20410  0.17785  0.32214  1.0000
  C   C23       1.0  0.18891  0.16759  0.17079  1.0000
  O   O15       1.0  0.17168  0.15869  0.13641  1.0000
  O   O16       1.0  0.20364  0.17362  0.11819  1.0000
  H   H7        1.0  0.21691  0.18179  0.13219  1.0000
  N   N9        1.0  0.79818  0.97933  0.26304  1.0000
  C   C24       1.0  0.80939  0.00030  0.25200  1.0000
  C   C25       1.0  0.80900  0.01294  0.32214  1.0000
  C   C26       1.0  0.81929  0.00801  0.17091  1.0000
  O   O17       1.0  0.82796  0.99954  0.13561  1.0000
  O   O18       1.0  0.81342  0.01684  0.11827  1.0000
  H   H8        1.0  0.80535  0.02207  0.13228  1.0000
  C   C27       1.0  0.98657  0.79576  0.25202  1.0000
  C   C28       1.0  0.97394  0.78274  0.32218  1.0000
  C   C29       1.0  0.97885  0.79795  0.17093  1.0000
  O   O19       1.0  0.98732  0.81508  0.13560  1.0000
  O   O20       1.0  0.97001  0.78323  0.11831  1.0000
  H   H9        1.0  0.96479  0.76995  0.13234  1.0000
  N   N10       1.0  0.80998  0.79362  0.26293  1.0000
  C   C30       1.0  0.80023  0.80484  0.25191  1.0000
  C   C31       1.0  0.78723  0.80447  0.32210  1.0000
  C   C32       1.0  0.80244  0.81475  0.17085  1.0000
  O   O21       1.0  0.81957  0.82340  0.13553  1.0000
  O   O22       1.0  0.78772  0.80890  0.11823  1.0000
  H   H10       1.0  0.77444  0.80084  0.13224  1.0000
  N   N11       1.0  0.19319  0.00304  0.26299  1.0000
  C   C33       1.0  0.18196  0.98207  0.25201  1.0000
  C   C34       1.0  0.18234  0.96944  0.32216  1.0000
  C   C35       1.0  0.17208  0.97436  0.17081  1.0000
  O   O23       1.0  0.16318  0.98269  0.13643  1.0000
  O   O24       1.0  0.17811  0.96566  0.11822  1.0000
  H   H11       1.0  0.18627  0.96055  0.13221  1.0000
  N   N12       1.0  0.98383  0.17686  0.26301  1.0000
  C   C36       1.0  0.01744  0.19964  0.32208  1.0000
  C   C37       1.0  0.01250  0.18441  0.17085  1.0000
  O   O25       1.0  0.02133  0.19913  0.11820  1.0000
  H   H12       1.0  0.02655  0.21241  0.13220  1.0000
  N   N13       1.0  0.21170  0.59065  0.24503  1.0000
  C   C38       1.0  0.21076  0.60842  0.23847  1.0000
  C   C39       1.0  0.21155  0.61873  0.31919  1.0000
  C   C40       1.0  0.21184  0.61688  0.15449  1.0000
  O   O26       1.0  0.22058  0.61322  0.09395  1.0000
  O   O27       1.0  0.19924  0.62212  0.12964  1.0000
  H   H13       1.0  0.19028  0.62331  0.16463  1.0000
  N   N14       1.0  0.39631  0.60767  0.24488  1.0000
  C   C41       1.0  0.37853  0.58898  0.23831  1.0000
  C   C42       1.0  0.36817  0.57945  0.31897  1.0000
  C   C43       1.0  0.37012  0.58156  0.15428  1.0000
  O   O28       1.0  0.37383  0.59394  0.09359  1.0000
  O   O29       1.0  0.36488  0.56371  0.12965  1.0000
  H   H14       1.0  0.36367  0.55358  0.16481  1.0000
  N   N15       1.0  0.37913  0.77520  0.24535  1.0000
  C   C44       1.0  0.39778  0.77604  0.23871  1.0000
  C   C45       1.0  0.40731  0.77519  0.31938  1.0000
  C   C46       1.0  0.40511  0.77496  0.15454  1.0000
  O   O30       1.0  0.39263  0.76594  0.09459  1.0000
  O   O31       1.0  0.42298  0.78745  0.12974  1.0000
  H   H15       1.0  0.43311  0.79647  0.16461  1.0000
  N   N16       1.0  0.77981  0.39185  0.24491  1.0000
  C   C47       1.0  0.78071  0.37407  0.23813  1.0000
  C   C48       1.0  0.77986  0.36363  0.31863  1.0000
  C   C49       1.0  0.77965  0.36567  0.15401  1.0000
  O   O32       1.0  0.77099  0.36943  0.09346  1.0000
  O   O33       1.0  0.79219  0.36035  0.12919  1.0000
  H   H16       1.0  0.80109  0.35907  0.16422  1.0000
  N   N17       1.0  0.59514  0.37465  0.24504  1.0000
  C   C50       1.0  0.61293  0.39333  0.23863  1.0000
  C   C51       1.0  0.62328  0.40287  0.31933  1.0000
  C   C52       1.0  0.62141  0.40073  0.15468  1.0000
  O   O34       1.0  0.61778  0.38834  0.09415  1.0000
  O   O35       1.0  0.62662  0.41856  0.12983  1.0000
  H   H17       1.0  0.62778  0.42870  0.16481  1.0000
  N   N18       1.0  0.61224  0.20712  0.24498  1.0000
  C   C53       1.0  0.59354  0.20620  0.23831  1.0000
  C   C54       1.0  0.58399  0.20701  0.31894  1.0000
  C   C55       1.0  0.58614  0.20719  0.15425  1.0000
  O   O36       1.0  0.59852  0.21586  0.09359  1.0000
  O   O37       1.0  0.56828  0.19458  0.12959  1.0000
  H   H18       1.0  0.55814  0.18566  0.16473  1.0000
  C   C56       1.0  0.13842  0.24439  0.33117  1.0000
  N   N19       1.0  0.14846  0.26551  0.33394  1.0000
  C   C57       1.0  0.13829  0.27648  0.33476  1.0000
  N   N20       1.0  0.11715  0.26541  0.33297  1.0000
  C   C58       1.0  0.10620  0.24428  0.32984  1.0000
  N   N21       1.0  0.11729  0.23422  0.32887  1.0000
  C   C59       1.0  0.14935  0.29863  0.33636  1.0000
  C   C60       1.0  0.17092  0.31008  0.31722  1.0000
  C   C61       1.0  0.18182  0.33195  0.31728  1.0000
  C   C62       1.0  0.17155  0.34316  0.33713  1.0000
  C   C63       1.0  0.15014  0.33185  0.35816  1.0000
  C   C64       1.0  0.13919  0.30998  0.35672  1.0000
  C   C65       1.0  0.14958  0.23339  0.33179  1.0000
  C   C66       1.0  0.17103  0.24356  0.35327  1.0000
  C   C67       1.0  0.18199  0.23265  0.35559  1.0000
  C   C68       1.0  0.17190  0.21118  0.33587  1.0000
  C   C69       1.0  0.15062  0.20102  0.31249  1.0000
  C   C70       1.0  0.13961  0.21189  0.31147  1.0000
  C   C71       1.0  0.08405  0.23312  0.32757  1.0000
  C   C72       1.0  0.07284  0.21169  0.30565  1.0000
  C   C73       1.0  0.05098  0.20069  0.30291  1.0000
  C   C74       1.0  0.03952  0.21070  0.32263  1.0000
  C   C75       1.0  0.05057  0.23197  0.34618  1.0000
  C   C76       1.0  0.07245  0.24303  0.34760  1.0000
  H   H19       1.0  0.19753  0.24065  0.37039  1.0000
  H   H20       1.0  0.17898  0.25907  0.36850  1.0000
  H   H21       1.0  0.14283  0.18548  0.29757  1.0000
  H   H22       1.0  0.12419  0.20385  0.29476  1.0000
  H   H23       1.0  0.08047  0.20378  0.29074  1.0000
  H   H24       1.0  0.04350  0.18515  0.28803  1.0000
  H   H25       1.0  0.07978  0.25842  0.36478  1.0000
  H   H26       1.0  0.04278  0.23971  0.36114  1.0000
  H   H27       1.0  0.12368  0.30244  0.37187  1.0000
  H   H28       1.0  0.14223  0.33948  0.37312  1.0000
  H   H29       1.0  0.19743  0.33962  0.30406  1.0000
  H   H30       1.0  0.17899  0.30265  0.30202  1.0000
  C   C77       1.0  0.74250  0.88072  0.33125  1.0000
  N   N22       1.0  0.72138  0.86964  0.33399  1.0000
  C   C78       1.0  0.71041  0.84850  0.33481  1.0000
  N   N23       1.0  0.72148  0.83843  0.33302  1.0000
  C   C79       1.0  0.74261  0.84862  0.32991  1.0000
  N   N24       1.0  0.75267  0.86976  0.32895  1.0000
  C   C80       1.0  0.68826  0.83742  0.33639  1.0000
  C   C81       1.0  0.67681  0.84753  0.31728  1.0000
  C   C82       1.0  0.65494  0.83656  0.31730  1.0000
  C   C83       1.0  0.64373  0.81508  0.33709  1.0000
  C   C84       1.0  0.65503  0.80498  0.35812  1.0000
  C   C85       1.0  0.67691  0.81591  0.35670  1.0000
  C   C86       1.0  0.75350  0.90288  0.33189  1.0000
  C   C87       1.0  0.74332  0.91416  0.35339  1.0000
  C   C88       1.0  0.75423  0.93603  0.35565  1.0000
  C   C89       1.0  0.77570  0.94741  0.33595  1.0000
  C   C90       1.0  0.78586  0.93630  0.31255  1.0000
  C   C91       1.0  0.77500  0.91442  0.31156  1.0000
  C   C92       1.0  0.75377  0.83762  0.32766  1.0000
  C   C93       1.0  0.77520  0.84784  0.30573  1.0000
  C   C94       1.0  0.78620  0.83698  0.30300  1.0000
  C   C95       1.0  0.77618  0.81550  0.32270  1.0000
  C   C96       1.0  0.75491  0.80529  0.34630  1.0000
  C   C97       1.0  0.74385  0.81611  0.34770  1.0000
  H   H31       1.0  0.74622  0.94356  0.37049  1.0000
  H   H32       1.0  0.72781  0.90659  0.36859  1.0000
  H   H33       1.0  0.80140  0.94405  0.29761  1.0000
  H   H34       1.0  0.78304  0.90704  0.29481  1.0000
  H   H35       1.0  0.78310  0.86337  0.29080  1.0000
  H   H36       1.0  0.80173  0.84502  0.28806  1.0000
  H   H37       1.0  0.72846  0.80804  0.36487  1.0000
  H   H38       1.0  0.74716  0.78975  0.36121  1.0000
  H   H39       1.0  0.68445  0.80793  0.37181  1.0000
  H   H40       1.0  0.64741  0.78944  0.37303  1.0000
  H   H41       1.0  0.64728  0.84451  0.30410  1.0000
  H   H42       1.0  0.68424  0.86304  0.30209  1.0000
  C   C98       1.0  0.10615  0.84845  0.33121  1.0000
  N   N25       1.0  0.11724  0.83842  0.33397  1.0000
  C   C99       1.0  0.13838  0.84860  0.33478  1.0000
  N   N26       1.0  0.14845  0.86973  0.33299  1.0000
  C   C100      1.0  0.13825  0.88067  0.32987  1.0000
  N   N27       1.0  0.11711  0.86958  0.32891  1.0000
  C   C101      1.0  0.14947  0.83754  0.33636  1.0000
  C   C102      1.0  0.13937  0.81597  0.31721  1.0000
  C   C103      1.0  0.15035  0.80508  0.31723  1.0000
  C   C104      1.0  0.17182  0.81535  0.33705  1.0000
  C   C105      1.0  0.18191  0.83676  0.35808  1.0000
  C   C106      1.0  0.17098  0.84770  0.35669  1.0000
  C   C107      1.0  0.08399  0.83728  0.33183  1.0000
  C   C108      1.0  0.07272  0.81583  0.35333  1.0000
  C   C109      1.0  0.05085  0.80487  0.35564  1.0000
  C   C110      1.0  0.03946  0.81495  0.33589  1.0000
  C   C111      1.0  0.05058  0.83623  0.31248  1.0000
  C   C112      1.0  0.07245  0.84724  0.31148  1.0000
  C   C113      1.0  0.14924  0.90282  0.32761  1.0000
  C   C114      1.0  0.13901  0.91402  0.30561  1.0000
  C   C115      1.0  0.14987  0.93589  0.30289  1.0000
  C   C116      1.0  0.17133  0.94735  0.32268  1.0000
  C   C117      1.0  0.18155  0.93631  0.34630  1.0000
  C   C118      1.0  0.17075  0.91443  0.34770  1.0000
  H   H43       1.0  0.04333  0.78934  0.37045  1.0000
  H   H44       1.0  0.08029  0.80789  0.36857  1.0000
  H   H45       1.0  0.04282  0.84401  0.29754  1.0000
  H   H46       1.0  0.07983  0.86267  0.29475  1.0000
  H   H47       1.0  0.12349  0.90640  0.29066  1.0000
  H   H48       1.0  0.14182  0.94337  0.28796  1.0000
  H   H49       1.0  0.17882  0.90711  0.36493  1.0000
  H   H50       1.0  0.19709  0.94411  0.36131  1.0000
  H   H51       1.0  0.17896  0.86322  0.37183  1.0000
  H   H52       1.0  0.19745  0.84468  0.37303  1.0000
  H   H53       1.0  0.14240  0.78946  0.30401  1.0000
  H   H54       1.0  0.12386  0.80789  0.30202  1.0000
  C   C119      1.0  0.85295  0.73798  0.33122  1.0000
  N   N28       1.0  0.84292  0.71685  0.33395  1.0000
  C   C120      1.0  0.85310  0.70590  0.33476  1.0000
  N   N29       1.0  0.87423  0.71696  0.33301  1.0000
  C   C121      1.0  0.88517  0.73810  0.32993  1.0000
  N   N30       1.0  0.87408  0.74815  0.32896  1.0000
  C   C122      1.0  0.84204  0.68374  0.33632  1.0000
  C   C123      1.0  0.82047  0.67228  0.31716  1.0000
  C   C124      1.0  0.80958  0.65041  0.31716  1.0000
  C   C125      1.0  0.81985  0.63921  0.33701  1.0000
  C   C126      1.0  0.84125  0.65052  0.35810  1.0000
  C   C127      1.0  0.85220  0.67240  0.35669  1.0000
  C   C128      1.0  0.84178  0.74897  0.33185  1.0000
  C   C129      1.0  0.82033  0.73878  0.35330  1.0000
  C   C130      1.0  0.80936  0.74968  0.35554  1.0000
  C   C131      1.0  0.81943  0.77115  0.33587  1.0000
  C   C132      1.0  0.84072  0.78132  0.31254  1.0000
  C   C133      1.0  0.85174  0.77047  0.31157  1.0000
  C   C134      1.0  0.90732  0.74926  0.32771  1.0000
  C   C135      1.0  0.91853  0.77069  0.30582  1.0000
  C   C136      1.0  0.94040  0.78170  0.30310  1.0000
  C   C137      1.0  0.95185  0.77169  0.32279  1.0000
  C   C138      1.0  0.94080  0.75042  0.34635  1.0000
  C   C139      1.0  0.91893  0.73935  0.34775  1.0000
  H   H55       1.0  0.79382  0.74167  0.37033  1.0000
  H   H56       1.0  0.81239  0.72327  0.36847  1.0000
  H   H57       1.0  0.84850  0.79686  0.29763  1.0000
  H   H58       1.0  0.86716  0.77851  0.29486  1.0000
  H   H59       1.0  0.91091  0.77860  0.29088  1.0000
  H   H60       1.0  0.94788  0.79723  0.28817  1.0000
  H   H61       1.0  0.91160  0.72396  0.36487  1.0000
  H   H62       1.0  0.94860  0.74267  0.36123  1.0000
  H   H63       1.0  0.86771  0.67994  0.37185  1.0000
  H   H64       1.0  0.84917  0.64290  0.37305  1.0000
  H   H65       1.0  0.79397  0.64275  0.30391  1.0000
  H   H66       1.0  0.81239  0.67971  0.30192  1.0000
  C   C140      1.0  0.24888  0.10165  0.33114  1.0000
  N   N31       1.0  0.27000  0.11274  0.33391  1.0000
  C   C141      1.0  0.28097  0.13387  0.33473  1.0000
  N   N32       1.0  0.26990  0.14395  0.33294  1.0000
  C   C142      1.0  0.24877  0.13376  0.32981  1.0000
  N   N33       1.0  0.23871  0.11261  0.32883  1.0000
  C   C143      1.0  0.30312  0.14496  0.33633  1.0000
  C   C144      1.0  0.31457  0.13485  0.31718  1.0000
  C   C145      1.0  0.33644  0.14582  0.31726  1.0000
  C   C146      1.0  0.34765  0.16729  0.33712  1.0000
  C   C147      1.0  0.33635  0.17739  0.35815  1.0000
  C   C148      1.0  0.31447  0.16647  0.35670  1.0000
  C   C149      1.0  0.23788  0.07949  0.33176  1.0000
  C   C150      1.0  0.24805  0.06821  0.35324  1.0000
  C   C151      1.0  0.23714  0.04635  0.35556  1.0000
  C   C152      1.0  0.21567  0.03496  0.33585  1.0000
  C   C153      1.0  0.20551  0.04608  0.31247  1.0000
  C   C154      1.0  0.21638  0.06796  0.31144  1.0000
  C   C155      1.0  0.23761  0.14475  0.32755  1.0000
  C   C156      1.0  0.21618  0.13452  0.30556  1.0000
  C   C157      1.0  0.20517  0.14538  0.30285  1.0000
  C   C158      1.0  0.21518  0.16684  0.32264  1.0000
  C   C159      1.0  0.23644  0.17706  0.34625  1.0000
  C   C160      1.0  0.24751  0.16626  0.34765  1.0000
  H   H67       1.0  0.24515  0.03881  0.37038  1.0000
  H   H68       1.0  0.26356  0.07578  0.36847  1.0000
  H   H69       1.0  0.18997  0.03833  0.29756  1.0000
  H   H70       1.0  0.20834  0.07534  0.29473  1.0000
  H   H71       1.0  0.20828  0.11900  0.29060  1.0000
  H   H72       1.0  0.18964  0.13733  0.28793  1.0000
  H   H73       1.0  0.26290  0.17432  0.36486  1.0000
  H   H74       1.0  0.24418  0.19260  0.36126  1.0000
  H   H75       1.0  0.30693  0.17444  0.37185  1.0000
  H   H76       1.0  0.34397  0.19293  0.37313  1.0000
  H   H77       1.0  0.34410  0.13786  0.30404  1.0000
  H   H78       1.0  0.30714  0.11934  0.30197  1.0000
  C   C161      1.0  0.88523  0.13392  0.33125  1.0000
  N   N34       1.0  0.87414  0.14396  0.33400  1.0000
  C   C162      1.0  0.85300  0.13378  0.33481  1.0000
  N   N35       1.0  0.84293  0.11265  0.33301  1.0000
  C   C163      1.0  0.85312  0.10170  0.32990  1.0000
  N   N36       1.0  0.87426  0.11279  0.32895  1.0000
  C   C164      1.0  0.84191  0.14485  0.33639  1.0000
  C   C165      1.0  0.85203  0.16642  0.31730  1.0000
  C   C166      1.0  0.84105  0.17731  0.31732  1.0000
  C   C167      1.0  0.81958  0.16704  0.33711  1.0000
  C   C168      1.0  0.80947  0.14564  0.35812  1.0000
  C   C169      1.0  0.82040  0.13468  0.35670  1.0000
  C   C170      1.0  0.90738  0.14509  0.33189  1.0000
  C   C171      1.0  0.91866  0.16654  0.35341  1.0000
  C   C172      1.0  0.94053  0.17750  0.35566  1.0000
  C   C173      1.0  0.95191  0.16742  0.33595  1.0000
  C   C174      1.0  0.94080  0.14614  0.31254  1.0000
  C   C175      1.0  0.91892  0.13512  0.31155  1.0000
  C   C176      1.0  0.84213  0.07955  0.32765  1.0000
  C   C177      1.0  0.85235  0.06834  0.30575  1.0000
  C   C178      1.0  0.84150  0.04648  0.30303  1.0000
  C   C179      1.0  0.82003  0.03502  0.32272  1.0000
  C   C180      1.0  0.80980  0.04607  0.34628  1.0000
  C   C181      1.0  0.82062  0.06795  0.34768  1.0000
  H   H79       1.0  0.94806  0.19303  0.37051  1.0000
  H   H80       1.0  0.91109  0.17448  0.36861  1.0000
  H   H81       1.0  0.94855  0.13835  0.29759  1.0000
  H   H82       1.0  0.91154  0.11970  0.29479  1.0000
  H   H83       1.0  0.86788  0.07597  0.29084  1.0000
  H   H84       1.0  0.84954  0.03900  0.28812  1.0000
  H   H85       1.0  0.81254  0.07527  0.36480  1.0000
  H   H86       1.0  0.79426  0.03827  0.36116  1.0000
  H   H87       1.0  0.81242  0.11917  0.37180  1.0000
  H   H88       1.0  0.79393  0.13772  0.37303  1.0000
  H   H89       1.0  0.84901  0.19293  0.30413  1.0000
  H   H90       1.0  0.86753  0.17449  0.30211  1.0000
  C   C182      1.0  0.24741  0.52891  0.33129  1.0000
  N   N37       1.0  0.23742  0.50795  0.34195  1.0000
  C   C183      1.0  0.24794  0.49730  0.34800  1.0000
  N   N38       1.0  0.26913  0.50842  0.34381  1.0000
  C   C184      1.0  0.27989  0.52946  0.33431  1.0000
  N   N39       1.0  0.26846  0.53904  0.32789  1.0000
  C   C185      1.0  0.23707  0.47519  0.35436  1.0000
  C   C186      1.0  0.21564  0.46390  0.37629  1.0000
  C   C187      1.0  0.20473  0.44203  0.37924  1.0000
  C   C188      1.0  0.21483  0.43066  0.35968  1.0000
  C   C189      1.0  0.23616  0.44180  0.33713  1.0000
  C   C190      1.0  0.24713  0.46367  0.33557  1.0000
  C   C191      1.0  0.23697  0.54047  0.32282  1.0000
  C   C192      1.0  0.21772  0.53431  0.36528  1.0000
  C   C193      1.0  0.20887  0.54728  0.36379  1.0000
  C   C194      1.0  0.21869  0.56641  0.31733  1.0000
  C   C195      1.0  0.23741  0.57205  0.27144  1.0000
  C   C196      1.0  0.24644  0.55939  0.27464  1.0000
  C   C197      1.0  0.30204  0.54145  0.33019  1.0000
  C   C198      1.0  0.31206  0.56315  0.31377  1.0000
  C   C199      1.0  0.33378  0.57534  0.30993  1.0000
  C   C200      1.0  0.34636  0.56628  0.32250  1.0000
  C   C201      1.0  0.33674  0.54476  0.33980  1.0000
  C   C202      1.0  0.31485  0.53250  0.34293  1.0000
  H   H91       1.0  0.19543  0.54287  0.39854  1.0000
  H   H92       1.0  0.21059  0.52093  0.40215  1.0000
  H   H93       1.0  0.24532  0.58603  0.23899  1.0000
  H   H94       1.0  0.26031  0.56446  0.24245  1.0000
  H   H95       1.0  0.30370  0.57053  0.30411  1.0000
  H   H96       1.0  0.34034  0.59098  0.29815  1.0000
  H   H97       1.0  0.30836  0.51694  0.35541  1.0000
  H   H98       1.0  0.34558  0.53788  0.34953  1.0000
  H   H99       1.0  0.26250  0.47104  0.31796  1.0000
  H   H100      1.0  0.24396  0.43406  0.32207  1.0000
  H   H101      1.0  0.18915  0.43448  0.39326  1.0000
  H   H102      1.0  0.20762  0.47146  0.39005  1.0000
  C   C203      1.0  0.45799  0.70510  0.33123  1.0000
  N   N40       1.0  0.47895  0.71609  0.34189  1.0000
  C   C204      1.0  0.48959  0.73726  0.34791  1.0000
  N   N41       1.0  0.47846  0.74732  0.34369  1.0000
  C   C205      1.0  0.45743  0.73703  0.33418  1.0000
  N   N42       1.0  0.44785  0.71602  0.32781  1.0000
  C   C206      1.0  0.51171  0.74851  0.35424  1.0000
  C   C207      1.0  0.52300  0.73838  0.37622  1.0000
  C   C208      1.0  0.54487  0.74935  0.37916  1.0000
  C   C209      1.0  0.55623  0.77083  0.35960  1.0000
  C   C210      1.0  0.54509  0.78100  0.33699  1.0000
  C   C211      1.0  0.52321  0.77009  0.33541  1.0000
  C   C212      1.0  0.44643  0.68312  0.32280  1.0000
  C   C213      1.0  0.45260  0.67002  0.36523  1.0000
  C   C214      1.0  0.43965  0.64820  0.36367  1.0000
  C   C215      1.0  0.42050  0.63889  0.31730  1.0000
  C   C216      1.0  0.41482  0.65196  0.27163  1.0000
  C   C217      1.0  0.42749  0.67365  0.27477  1.0000
  C   C218      1.0  0.44541  0.74717  0.33004  1.0000
  C   C219      1.0  0.42373  0.73548  0.31318  1.0000
  C   C220      1.0  0.41151  0.74498  0.30944  1.0000
  C   C221      1.0  0.42053  0.76661  0.32248  1.0000
  C   C222      1.0  0.44203  0.77851  0.34027  1.0000
  C   C223      1.0  0.45432  0.76890  0.34326  1.0000
  H   H103      1.0  0.44407  0.63916  0.39823  1.0000
  H   H104      1.0  0.46602  0.67628  0.40181  1.0000
  H   H105      1.0  0.40083  0.64589  0.23929  1.0000
  H   H106      1.0  0.42240  0.68245  0.24271  1.0000
  H   H107      1.0  0.41638  0.71975  0.30318  1.0000
  H   H108      1.0  0.39589  0.73589  0.29741  1.0000
  H   H109      1.0  0.46987  0.77799  0.35613  1.0000
  H   H110      1.0  0.44887  0.79421  0.35044  1.0000
  H   H111      1.0  0.51584  0.77808  0.31780  1.0000
  H   H112      1.0  0.55282  0.79654  0.32192  1.0000
  H   H113      1.0  0.55242  0.74133  0.39321  1.0000
  H   H114      1.0  0.51544  0.72280  0.38999  1.0000
  C   C224      1.0  0.28172  0.73951  0.33154  1.0000
  N   N43       1.0  0.27074  0.74949  0.34209  1.0000
  C   C225      1.0  0.24957  0.73897  0.34810  1.0000
  N   N44       1.0  0.23950  0.71777  0.34398  1.0000
  C   C226      1.0  0.24979  0.70702  0.33460  1.0000
  N   N45       1.0  0.27080  0.71845  0.32821  1.0000
  C   C227      1.0  0.23832  0.74984  0.35440  1.0000
  C   C228      1.0  0.24846  0.77126  0.37641  1.0000
  C   C229      1.0  0.23751  0.78217  0.37930  1.0000
  C   C230      1.0  0.21603  0.77207  0.35965  1.0000
  C   C231      1.0  0.20585  0.75075  0.33701  1.0000
  C   C232      1.0  0.21675  0.73978  0.33549  1.0000
  C   C233      1.0  0.30371  0.74995  0.32308  1.0000
  C   C234      1.0  0.31680  0.76923  0.36531  1.0000
  C   C235      1.0  0.33862  0.77810  0.36383  1.0000
  C   C236      1.0  0.34794  0.76825  0.31759  1.0000
  C   C237      1.0  0.33487  0.74950  0.27196  1.0000
  C   C238      1.0  0.31318  0.74046  0.27514  1.0000
  C   C239      1.0  0.23964  0.68486  0.33056  1.0000
  C   C240      1.0  0.25136  0.67485  0.31483  1.0000
  C   C241      1.0  0.24185  0.65313  0.31101  1.0000
  C   C242      1.0  0.22018  0.64054  0.32288  1.0000
  C   C243      1.0  0.20824  0.65016  0.33948  1.0000
  C   C244      1.0  0.21787  0.67205  0.34262  1.0000
  H   H115      1.0  0.34765  0.79156  0.39844  1.0000
  H   H116      1.0  0.31054  0.77638  0.40203  1.0000
  H   H117      1.0  0.34094  0.74156  0.23970  1.0000
  H   H118      1.0  0.30438  0.72656  0.24312  1.0000
  H   H119      1.0  0.26712  0.68322  0.30569  1.0000
  H   H120      1.0  0.25095  0.64658  0.29969  1.0000
  H   H121      1.0  0.20876  0.67853  0.35458  1.0000
  H   H122      1.0  0.19251  0.64132  0.34866  1.0000
  H   H123      1.0  0.20876  0.72441  0.31782  1.0000
  H   H124      1.0  0.19032  0.74296  0.32184  1.0000
  H   H125      1.0  0.24554  0.79775  0.39338  1.0000
  H   H126      1.0  0.26404  0.77927  0.39025  1.0000
  C   C245      1.0  0.74404  0.45346  0.33172  1.0000
  N   N46       1.0  0.75403  0.47443  0.34225  1.0000
  C   C246      1.0  0.74350  0.48508  0.34825  1.0000
  N   N47       1.0  0.72230  0.47394  0.34415  1.0000
  C   C247      1.0  0.71155  0.45290  0.33481  1.0000
  N   N48       1.0  0.72299  0.44333  0.32842  1.0000
  C   C248      1.0  0.75436  0.50719  0.35448  1.0000
  C   C249      1.0  0.77579  0.51849  0.37639  1.0000
  C   C250      1.0  0.78670  0.54035  0.37926  1.0000
  C   C251      1.0  0.77658  0.55172  0.35969  1.0000
  C   C252      1.0  0.75525  0.54057  0.33715  1.0000
  C   C253      1.0  0.74429  0.51870  0.33564  1.0000
  C   C254      1.0  0.75448  0.44192  0.32324  1.0000
  C   C255      1.0  0.77374  0.44808  0.36567  1.0000
  C   C256      1.0  0.78262  0.43514  0.36399  1.0000
  C   C257      1.0  0.77281  0.41602  0.31743  1.0000
  C   C258      1.0  0.75405  0.41034  0.27184  1.0000
  C   C259      1.0  0.74501  0.42298  0.27511  1.0000
  C   C260      1.0  0.68940  0.44089  0.33080  1.0000
  C   C261      1.0  0.67938  0.41915  0.31528  1.0000
  C   C262      1.0  0.65766  0.40695  0.31146  1.0000
  C   C263      1.0  0.64508  0.41604  0.32311  1.0000
  C   C264      1.0  0.65469  0.43759  0.33949  1.0000
  C   C265      1.0  0.67658  0.44986  0.34265  1.0000
  H   H127      1.0  0.79608  0.43956  0.39859  1.0000
  H   H128      1.0  0.78089  0.46149  0.40235  1.0000
  H   H129      1.0  0.74613  0.39635  0.23944  1.0000
  H   H130      1.0  0.73112  0.41790  0.24307  1.0000
  H   H131      1.0  0.68775  0.41175  0.30629  1.0000
  H   H132      1.0  0.65111  0.39129  0.30026  1.0000
  H   H133      1.0  0.68307  0.46546  0.35441  1.0000
  H   H134      1.0  0.64585  0.44449  0.34846  1.0000
  H   H135      1.0  0.72892  0.51132  0.31808  1.0000
  H   H136      1.0  0.74745  0.54830  0.32208  1.0000
  H   H137      1.0  0.80227  0.54791  0.39328  1.0000
  H   H138      1.0  0.78381  0.51093  0.39018  1.0000
  C   C266      1.0  0.53339  0.27718  0.33117  1.0000
  N   N49       1.0  0.51243  0.26620  0.34189  1.0000
  C   C267      1.0  0.50178  0.24503  0.34798  1.0000
  N   N50       1.0  0.51292  0.23497  0.34378  1.0000
  C   C268      1.0  0.53395  0.24526  0.33421  1.0000
  N   N51       1.0  0.54353  0.26627  0.32775  1.0000
  C   C269      1.0  0.47967  0.23379  0.35440  1.0000
  C   C270      1.0  0.46838  0.24392  0.37635  1.0000
  C   C271      1.0  0.44652  0.23297  0.37931  1.0000
  C   C272      1.0  0.43515  0.21148  0.35975  1.0000
  C   C273      1.0  0.44629  0.20130  0.33719  1.0000
  C   C274      1.0  0.46816  0.21221  0.33561  1.0000
  C   C275      1.0  0.54493  0.29917  0.32266  1.0000
  C   C276      1.0  0.53878  0.31226  0.36520  1.0000
  C   C277      1.0  0.55174  0.33408  0.36371  1.0000
  C   C278      1.0  0.57086  0.34340  0.31714  1.0000
  C   C279      1.0  0.57650  0.33033  0.27120  1.0000
  C   C280      1.0  0.56384  0.30864  0.27439  1.0000
  C   C281      1.0  0.54595  0.23511  0.33009  1.0000
  C   C282      1.0  0.56765  0.24679  0.31346  1.0000
  C   C283      1.0  0.57985  0.23728  0.30963  1.0000
  C   C284      1.0  0.57081  0.21564  0.32240  1.0000
  C   C285      1.0  0.54929  0.20374  0.33991  1.0000
  C   C286      1.0  0.53703  0.21336  0.34301  1.0000
  H   H139      1.0  0.54735  0.34311  0.39855  1.0000
  H   H140      1.0  0.52541  0.30601  0.40215  1.0000
  H   H141      1.0  0.59047  0.33640  0.23870  1.0000
  H   H142      1.0  0.56891  0.29983  0.24217  1.0000
  H   H143      1.0  0.57501  0.26253  0.30366  1.0000
  H   H144      1.0  0.59548  0.24636  0.29772  1.0000
  H   H145      1.0  0.52147  0.20428  0.35566  1.0000
  H   H146      1.0  0.54243  0.18803  0.34980  1.0000
  H   H147      1.0  0.47553  0.20421  0.31798  1.0000
  H   H148      1.0  0.43855  0.18577  0.32212  1.0000
  H   H149      1.0  0.43897  0.24099  0.39334  1.0000
  H   H150      1.0  0.47595  0.25951  0.39011  1.0000
  C   C287      1.0  0.70966  0.24289  0.33149  1.0000
  N   N52       1.0  0.72063  0.23289  0.34215  1.0000
  C   C288      1.0  0.74180  0.24341  0.34810  1.0000
  N   N53       1.0  0.75187  0.26460  0.34379  1.0000
  C   C289      1.0  0.74160  0.27536  0.33425  1.0000
  N   N54       1.0  0.72059  0.26394  0.32795  1.0000
  C   C290      1.0  0.75304  0.23254  0.35442  1.0000
  C   C291      1.0  0.74291  0.21111  0.37639  1.0000
  C   C292      1.0  0.75386  0.20020  0.37930  1.0000
  C   C293      1.0  0.77534  0.21030  0.35970  1.0000
  C   C294      1.0  0.78553  0.23163  0.33711  1.0000
  C   C295      1.0  0.77462  0.24260  0.33555  1.0000
  C   C296      1.0  0.68767  0.23246  0.32309  1.0000
  C   C297      1.0  0.67457  0.21319  0.36546  1.0000
  C   C298      1.0  0.65275  0.20432  0.36387  1.0000
  C   C299      1.0  0.64344  0.21416  0.31751  1.0000
  C   C300      1.0  0.65651  0.23292  0.27193  1.0000
  C   C301      1.0  0.67820  0.24194  0.27509  1.0000
  C   C302      1.0  0.75176  0.29751  0.32995  1.0000
  C   C303      1.0  0.74010  0.30751  0.31262  1.0000
  C   C304      1.0  0.74962  0.32923  0.30869  1.0000
  C   C305      1.0  0.77124  0.34183  0.32206  1.0000
  C   C306      1.0  0.78311  0.33222  0.34027  1.0000
  C   C307      1.0  0.77348  0.31033  0.34345  1.0000
  H   H151      1.0  0.64371  0.19085  0.39837  1.0000
  H   H152      1.0  0.68082  0.20602  0.40201  1.0000
  H   H153      1.0  0.65045  0.24085  0.23960  1.0000
  H   H154      1.0  0.68701  0.25584  0.24307  1.0000
  H   H155      1.0  0.72438  0.29914  0.30237  1.0000
  H   H156      1.0  0.74056  0.33578  0.29630  1.0000
  H   H157      1.0  0.78255  0.30385  0.35662  1.0000
  H   H158      1.0  0.79880  0.34107  0.35062  1.0000
  H   H159      1.0  0.78262  0.25797  0.31794  1.0000
  H   H160      1.0  0.80106  0.23942  0.32202  1.0000
  H   H161      1.0  0.74583  0.18462  0.39335  1.0000
  H   H162      1.0  0.72733  0.20310  0.39018  1.0000
  N   N55       1.0  0.18065  0.37465  0.41327  1.0000
  C   C308      1.0  0.19039  0.39555  0.42656  1.0000
  C   C309      1.0  0.20376  0.40858  0.35811  1.0000
  C   C310      1.0  0.18786  0.40281  0.50817  1.0000
  O   O38       1.0  0.17058  0.39415  0.54217  1.0000
  O   O39       1.0  0.20235  0.41138  0.56203  1.0000
  H   H163      1.0  0.21569  0.41667  0.54894  1.0000
  N   N56       1.0  0.61225  0.79270  0.41325  1.0000
  C   C311      1.0  0.59134  0.78154  0.42654  1.0000
  C   C312      1.0  0.57832  0.78184  0.35802  1.0000
  C   C313      1.0  0.58408  0.77173  0.50813  1.0000
  O   O40       1.0  0.59276  0.76313  0.54215  1.0000
  O   O41       1.0  0.57549  0.77763  0.56197  1.0000
  H   H164      1.0  0.57018  0.78566  0.54886  1.0000
  N   N57       1.0  0.19420  0.80625  0.41318  1.0000
  C   C314      1.0  0.20536  0.79651  0.42645  1.0000
  C   C315      1.0  0.20504  0.78316  0.35798  1.0000
  C   C316      1.0  0.21513  0.79902  0.50819  1.0000
  O   O42       1.0  0.22399  0.81639  0.54129  1.0000
  O   O43       1.0  0.20905  0.78451  0.56198  1.0000
  H   H165      1.0  0.20091  0.77118  0.54888  1.0000
  N   N58       1.0  0.81076  0.60773  0.41318  1.0000
  C   C317      1.0  0.80101  0.58683  0.42652  1.0000
  C   C318      1.0  0.78765  0.57380  0.35808  1.0000
  C   C319      1.0  0.80355  0.57958  0.50815  1.0000
  O   O44       1.0  0.82083  0.58825  0.54214  1.0000
  O   O45       1.0  0.78906  0.57101  0.56201  1.0000
  H   H166      1.0  0.77572  0.56572  0.54892  1.0000
  N   N59       1.0  0.37913  0.18966  0.41330  1.0000
  C   C320      1.0  0.40004  0.20081  0.42662  1.0000
  C   C321      1.0  0.41306  0.20048  0.35817  1.0000
  C   C322      1.0  0.40730  0.21061  0.50824  1.0000
  O   O46       1.0  0.39863  0.21923  0.54225  1.0000
  O   O47       1.0  0.41586  0.20468  0.56209  1.0000
  H   H167      1.0  0.42115  0.19663  0.54900  1.0000
  N   N60       1.0  0.79720  0.17614  0.41329  1.0000
  C   C323      1.0  0.78604  0.18589  0.42659  1.0000
  C   C324      1.0  0.78634  0.19923  0.35810  1.0000
  C   C325      1.0  0.77623  0.18334  0.50819  1.0000
  O   O48       1.0  0.76763  0.16606  0.54219  1.0000
  O   O49       1.0  0.78213  0.19783  0.56205  1.0000
  H   H168      1.0  0.79017  0.21117  0.54896  1.0000
  C   C326      1.0  0.18290  0.20009  0.33653  1.0000
  N   N61       1.0  0.20565  0.18925  0.39569  1.0000
  C   C327      1.0  0.19589  0.20045  0.40675  1.0000
  C   C328      1.0  0.19809  0.21035  0.48785  1.0000
  O   O50       1.0  0.21521  0.21897  0.52328  1.0000
  O   O51       1.0  0.18336  0.20453  0.54037  1.0000
  H   H169      1.0  0.17007  0.19649  0.52628  1.0000
  C   C329      1.0  0.78677  0.96950  0.33656  1.0000
  N   N62       1.0  0.79761  0.00310  0.39569  1.0000
  C   C330      1.0  0.78640  0.98213  0.40675  1.0000
  C   C331      1.0  0.77652  0.97443  0.48790  1.0000
  O   O52       1.0  0.76789  0.98292  0.52334  1.0000
  O   O53       1.0  0.78239  0.96556  0.54042  1.0000
  H   H170      1.0  0.79043  0.96033  0.52631  1.0000
  C   C332      1.0  0.01738  0.80394  0.33651  1.0000
  N   N63       1.0  0.98378  0.78119  0.39572  1.0000
  C   C333      1.0  0.01246  0.78877  0.48790  1.0000
  O   O54       1.0  0.02124  0.80351  0.54041  1.0000
  H   H171      1.0  0.02638  0.81678  0.52636  1.0000
  C   C334      1.0  0.80842  0.78222  0.33646  1.0000
  N   N64       1.0  0.78569  0.79309  0.39567  1.0000
  C   C335      1.0  0.79543  0.78187  0.40669  1.0000
  C   C336      1.0  0.79329  0.77198  0.48782  1.0000
  O   O55       1.0  0.77608  0.76329  0.52247  1.0000
  O   O56       1.0  0.80794  0.77798  0.54079  1.0000
  H   H172      1.0  0.82123  0.78606  0.52688  1.0000
  C   C337      1.0  0.20458  0.01288  0.33653  1.0000
  N   N65       1.0  0.19373  0.97928  0.39571  1.0000
  C   C338      1.0  0.20494  0.00024  0.40676  1.0000
  C   C339      1.0  0.21485  0.00796  0.48785  1.0000
  O   O57       1.0  0.22346  0.99945  0.52330  1.0000
  O   O58       1.0  0.20902  0.01686  0.54037  1.0000
  H   H173      1.0  0.20098  0.02211  0.52627  1.0000
  C   C340      1.0  0.97400  0.17843  0.33654  1.0000
  N   N66       1.0  0.00760  0.20119  0.39563  1.0000
  C   C341      1.0  0.98664  0.19143  0.40671  1.0000
  C   C342      1.0  0.97894  0.19361  0.48788  1.0000
  O   O59       1.0  0.98743  0.21073  0.52332  1.0000
  O   O60       1.0  0.97008  0.17888  0.54040  1.0000
  H   H174      1.0  0.96484  0.16560  0.52629  1.0000
  C   C343      1.0  0.21196  0.58124  0.32246  1.0000
  N   N67       1.0  0.21213  0.60961  0.39685  1.0000
  C   C344      1.0  0.21124  0.59090  0.40301  1.0000
  C   C345      1.0  0.21375  0.58460  0.48679  1.0000
  O   O61       1.0  0.20092  0.58238  0.54319  1.0000
  O   O62       1.0  0.23134  0.59016  0.51599  1.0000
  H   H175      1.0  0.24249  0.59376  0.48264  1.0000
  C   C346      1.0  0.40566  0.61732  0.32242  1.0000
  N   N68       1.0  0.37727  0.58915  0.39667  1.0000
  C   C347      1.0  0.39598  0.60696  0.40299  1.0000
  C   C348      1.0  0.40233  0.61582  0.48662  1.0000
  O   O63       1.0  0.40443  0.60508  0.54275  1.0000
  O   O64       1.0  0.39667  0.62767  0.51683  1.0000
  H   H176      1.0  0.39302  0.63525  0.48396  1.0000
  C   C349      1.0  0.36951  0.77500  0.32283  1.0000
  N   N69       1.0  0.39766  0.77472  0.39703  1.0000
  C   C350      1.0  0.37989  0.77568  0.40331  1.0000
  C   C351      1.0  0.37112  0.77330  0.48705  1.0000
  O   O65       1.0  0.38184  0.78583  0.54422  1.0000
  O   O66       1.0  0.35873  0.75584  0.51646  1.0000
  H   H177      1.0  0.35104  0.74471  0.48321  1.0000
  C   C352      1.0  0.77955  0.40118  0.32253  1.0000
  N   N70       1.0  0.77930  0.37276  0.39635  1.0000
  C   C353      1.0  0.78026  0.39149  0.40297  1.0000
  C   C354      1.0  0.77770  0.39771  0.48678  1.0000
  O   O67       1.0  0.79014  0.39946  0.54426  1.0000
  O   O68       1.0  0.76018  0.39255  0.51570  1.0000
  H   H178      1.0  0.74910  0.38913  0.48214  1.0000
  C   C355      1.0  0.58571  0.36496  0.32240  1.0000
  N   N71       1.0  0.61409  0.39311  0.39684  1.0000
  C   C356      1.0  0.59537  0.37531  0.40298  1.0000
  C   C357      1.0  0.58905  0.36647  0.48674  1.0000
  O   O69       1.0  0.58686  0.37709  0.54319  1.0000
  O   O70       1.0  0.59459  0.35442  0.51585  1.0000
  H   H179      1.0  0.59818  0.34686  0.48246  1.0000
  C   C358      1.0  0.62186  0.20742  0.32256  1.0000
  N   N72       1.0  0.59367  0.20761  0.39669  1.0000
  C   C359      1.0  0.61148  0.20672  0.40307  1.0000
  C   C360      1.0  0.62033  0.20923  0.48674  1.0000
  O   O71       1.0  0.60957  0.19637  0.54283  1.0000
  O   O72       1.0  0.63217  0.22674  0.51700  1.0000
  H   H180      1.0  0.63975  0.23797  0.48417  1.0000
