data_image0
_chemical_formula_structural       HC8HC7HCH4C3H3C8HC7HCH4C4H4C2HC4HNH2NH2NC2HC4HNH2NH2NC2HC4HNH2NH2NC2HC4HNH2NH2NC2HC4HNH2NH2NC2HC4HNH2NH2NC8HC7HCH4C4H3CHC6H2N2O4NC6H2N2O4NC6H2N2O4NC6H2N2O4NC6H2N2O4NC6H2N2O4N
_chemical_formula_sum              "H78 C132 N36 O24"
_cell_length_a       38.4051
_cell_length_b       38.4052
_cell_length_c       14.9772
_cell_angle_alpha    90.0002
_cell_angle_beta     89.9998
_cell_angle_gamma    120

_space_group_name_H-M_alt    "P 1"
_space_group_IT_number       1

loop_
  _space_group_symop_operation_xyz
  'x, y, z'

loop_
  _atom_site_type_symbol
  _atom_site_label
  _atom_site_symmetry_multiplicity
  _atom_site_fract_x
  _atom_site_fract_y
  _atom_site_fract_z
  _atom_site_occupancy
  H   H1        1.0  0.12287  0.52993  0.26160  1.0000
  C   C1        1.0  0.50979  0.54193  0.34475  1.0000
  C   C2        1.0  0.51357  0.50685  0.34119  1.0000
  C   C3        1.0  0.47862  0.46808  0.33617  1.0000
  C   C4        1.0  0.44039  0.46462  0.34331  1.0000
  C   C5        1.0  0.43596  0.49878  0.35157  1.0000
  C   C6        1.0  0.47074  0.53779  0.34885  1.0000
  C   C7        1.0  0.55254  0.51170  0.34483  1.0000
  C   C8        1.0  0.46805  0.57317  0.35148  1.0000
  H   H2        1.0  0.41518  0.43657  0.34147  1.0000
  C   C9        1.0  0.54503  0.58104  0.34471  1.0000
  C   C10       1.0  0.58408  0.58519  0.34881  1.0000
  C   C11       1.0  0.61886  0.62420  0.35146  1.0000
  C   C12       1.0  0.61443  0.65836  0.34320  1.0000
  C   C13       1.0  0.57620  0.65489  0.33601  1.0000
  C   C14       1.0  0.54124  0.61613  0.34111  1.0000
  C   C15       1.0  0.58677  0.54981  0.35147  1.0000
  H   H3        1.0  0.63964  0.68641  0.34137  1.0000
  C   C16       1.0  0.50227  0.61127  0.34473  1.0000
  H   H4        1.0  0.61388  0.55104  0.35632  1.0000
  H   H5        1.0  0.55663  0.48735  0.34623  1.0000
  H   H6        1.0  0.49818  0.63563  0.34615  1.0000
  H   H7        1.0  0.44093  0.57194  0.35634  1.0000
  C   C17       1.0  0.57423  0.68912  0.31586  1.0000
  C   C18       1.0  0.65729  0.63096  0.36749  1.0000
  C   C19       1.0  0.48058  0.43385  0.31595  1.0000
  H   H8        1.0  0.55898  0.68853  0.26157  1.0000
  H   H9        1.0  0.66979  0.64267  0.42618  1.0000
  H   H10       1.0  0.49578  0.43444  0.26158  1.0000
  C   C20       1.0  0.54697  0.06342  0.34475  1.0000
  C   C21       1.0  0.58206  0.10229  0.34116  1.0000
  C   C22       1.0  0.62082  0.10610  0.33605  1.0000
  C   C23       1.0  0.62428  0.07133  0.34330  1.0000
  C   C24       1.0  0.59012  0.03274  0.35160  1.0000
  C   C25       1.0  0.55111  0.02852  0.34887  1.0000
  C   C26       1.0  0.57720  0.13641  0.34479  1.0000
  C   C27       1.0  0.51572  0.99044  0.35155  1.0000
  H   H11       1.0  0.65232  0.07416  0.34144  1.0000
  C   C28       1.0  0.50786  0.05956  0.34475  1.0000
  C   C29       1.0  0.50372  0.09446  0.34885  1.0000
  C   C30       1.0  0.46471  0.09024  0.35158  1.0000
  C   C31       1.0  0.43055  0.05165  0.34326  1.0000
  C   C32       1.0  0.43401  0.01689  0.33605  1.0000
  C   C33       1.0  0.47277  0.02069  0.34115  1.0000
  C   C34       1.0  0.53910  0.13254  0.35153  1.0000
  H   H12       1.0  0.40250  0.04882  0.34143  1.0000
  C   C35       1.0  0.47762  0.98657  0.34478  1.0000
  H   H13       1.0  0.53788  0.15842  0.35634  1.0000
  H   H14       1.0  0.60156  0.16485  0.34616  1.0000
  H   H15       1.0  0.45327  0.95813  0.34620  1.0000
  H   H16       1.0  0.51695  0.96456  0.35639  1.0000
  C   C36       1.0  0.59687  0.00107  0.36759  1.0000
  C   C37       1.0  0.39978  0.98069  0.31588  1.0000
  C   C38       1.0  0.45795  0.12191  0.36756  1.0000
  C   C39       1.0  0.65505  0.14229  0.31588  1.0000
  H   H17       1.0  0.60861  0.00028  0.42624  1.0000
  H   H18       1.0  0.40038  0.96605  0.26156  1.0000
  H   H19       1.0  0.44625  0.12272  0.42624  1.0000
  H   H20       1.0  0.65445  0.15694  0.26159  1.0000
  C   C40       1.0  0.20544  0.48974  0.25855  1.0000
  C   C41       1.0  0.16951  0.49096  0.27060  1.0000
  H   H21       1.0  0.15111  0.48594  0.21685  1.0000
  C   C42       1.0  0.26760  0.49637  0.32819  1.0000
  C   C43       1.0  0.34331  0.49992  0.31545  1.0000
  C   C44       1.0  0.33794  0.53035  0.27481  1.0000
  C   C45       1.0  0.30020  0.52823  0.28272  1.0000
  H   H22       1.0  0.29636  0.55043  0.25467  1.0000
  N   N1        1.0  0.21420  0.48185  0.17550  1.0000
  H   H23       1.0  0.19636  0.47712  0.12510  1.0000
  H   H24       1.0  0.23753  0.47897  0.16424  1.0000
  N   N2        1.0  0.36793  0.56172  0.22938  1.0000
  H   H25       1.0  0.36372  0.58225  0.20165  1.0000
  H   H26       1.0  0.39413  0.56414  0.22096  1.0000
  N   N3        1.0  0.37918  0.50234  0.31088  1.0000
  C   C46       1.0  0.59920  0.81128  0.25853  1.0000
  C   C47       1.0  0.59801  0.77415  0.27057  1.0000
  H   H27       1.0  0.60302  0.76076  0.21682  1.0000
  C   C48       1.0  0.59257  0.86681  0.32817  1.0000
  C   C49       1.0  0.58898  0.93895  0.31548  1.0000
  C   C50       1.0  0.55856  0.90315  0.27482  1.0000
  C   C51       1.0  0.56070  0.86753  0.28269  1.0000
  H   H28       1.0  0.53852  0.84150  0.25461  1.0000
  N   N4        1.0  0.60712  0.82795  0.17548  1.0000
  H   H29       1.0  0.61185  0.81483  0.12508  1.0000
  H   H30       1.0  0.60999  0.85415  0.16422  1.0000
  N   N5        1.0  0.52720  0.90176  0.22937  1.0000
  H   H31       1.0  0.50662  0.87700  0.20180  1.0000
  H   H32       1.0  0.52470  0.92551  0.22116  1.0000
  N   N6        1.0  0.58653  0.97238  0.31097  1.0000
  C   C52       1.0  0.27763  0.88347  0.25854  1.0000
  C   C53       1.0  0.31477  0.91941  0.27059  1.0000
  H   H33       1.0  0.32815  0.93781  0.21684  1.0000
  C   C54       1.0  0.22211  0.82131  0.32819  1.0000
  C   C55       1.0  0.14994  0.74560  0.31543  1.0000
  C   C56       1.0  0.18575  0.75097  0.27478  1.0000
  C   C57       1.0  0.22137  0.78872  0.28269  1.0000
  H   H34       1.0  0.24740  0.79255  0.25461  1.0000
  N   N7        1.0  0.26097  0.87471  0.17550  1.0000
  H   H35       1.0  0.27408  0.89256  0.12510  1.0000
  H   H36       1.0  0.23476  0.85138  0.16424  1.0000
  N   N8        1.0  0.18712  0.72099  0.22931  1.0000
  H   H37       1.0  0.21188  0.72516  0.20174  1.0000
  H   H38       1.0  0.16335  0.69475  0.22108  1.0000
  N   N9        1.0  0.11650  0.70974  0.31085  1.0000
  C   C58       1.0  0.84942  0.63329  0.25856  1.0000
  C   C59       1.0  0.88535  0.63208  0.27062  1.0000
  H   H39       1.0  0.90375  0.63711  0.21688  1.0000
  C   C60       1.0  0.78725  0.62665  0.32817  1.0000
  C   C61       1.0  0.71152  0.62306  0.31544  1.0000
  C   C62       1.0  0.71691  0.59264  0.27479  1.0000
  C   C63       1.0  0.75466  0.59478  0.28268  1.0000
  H   H40       1.0  0.75851  0.57260  0.25461  1.0000
  N   N10       1.0  0.84068  0.64122  0.17552  1.0000
  H   H41       1.0  0.85850  0.64589  0.12509  1.0000
  H   H42       1.0  0.81731  0.64403  0.16420  1.0000
  N   N11       1.0  0.68693  0.56128  0.22932  1.0000
  H   H43       1.0  0.69112  0.54070  0.20176  1.0000
  H   H44       1.0  0.66068  0.55879  0.22110  1.0000
  N   N12       1.0  0.67564  0.62062  0.31089  1.0000
  C   C64       1.0  0.45564  0.31170  0.25856  1.0000
  C   C65       1.0  0.45686  0.34885  0.27062  1.0000
  H   H45       1.0  0.45183  0.36223  0.21688  1.0000
  C   C66       1.0  0.46227  0.25617  0.32817  1.0000
  C   C67       1.0  0.46585  0.18402  0.31545  1.0000
  C   C68       1.0  0.49627  0.21983  0.27481  1.0000
  C   C69       1.0  0.49414  0.25545  0.28271  1.0000
  H   H46       1.0  0.51634  0.28149  0.25466  1.0000
  N   N13       1.0  0.44774  0.29505  0.17550  1.0000
  H   H47       1.0  0.44302  0.30818  0.12511  1.0000
  H   H48       1.0  0.44487  0.26885  0.16423  1.0000
  N   N14       1.0  0.52765  0.22122  0.22940  1.0000
  H   H49       1.0  0.54817  0.24596  0.20166  1.0000
  H   H50       1.0  0.53008  0.19744  0.22099  1.0000
  N   N15       1.0  0.46829  0.15060  0.31093  1.0000
  C   C70       1.0  0.77720  0.23950  0.25853  1.0000
  C   C71       1.0  0.74007  0.20355  0.27059  1.0000
  H   H51       1.0  0.72668  0.18516  0.21684  1.0000
  C   C72       1.0  0.83272  0.30166  0.32817  1.0000
  C   C73       1.0  0.90487  0.37739  0.31543  1.0000
  C   C74       1.0  0.86907  0.37200  0.27477  1.0000
  C   C75       1.0  0.83345  0.33425  0.28266  1.0000
  H   H52       1.0  0.80742  0.33040  0.25458  1.0000
  N   N16       1.0  0.79387  0.24825  0.17548  1.0000
  H   H53       1.0  0.78075  0.23040  0.12509  1.0000
  H   H54       1.0  0.82007  0.27158  0.16422  1.0000
  N   N17       1.0  0.86768  0.40197  0.22929  1.0000
  H   H55       1.0  0.84292  0.39778  0.20172  1.0000
  H   H56       1.0  0.89144  0.42822  0.22106  1.0000
  N   N18       1.0  0.93830  0.41326  0.31087  1.0000
  C   C76       1.0  0.02549  0.57913  0.34482  1.0000
  C   C77       1.0  0.98661  0.57534  0.34123  1.0000
  C   C78       1.0  0.98281  0.61029  0.33612  1.0000
  C   C79       1.0  0.01757  0.64852  0.34330  1.0000
  C   C80       1.0  0.05616  0.65296  0.35157  1.0000
  C   C81       1.0  0.06039  0.61817  0.34890  1.0000
  C   C82       1.0  0.95250  0.53637  0.34490  1.0000
  C   C83       1.0  0.09847  0.62087  0.35155  1.0000
  H   H57       1.0  0.01474  0.67374  0.34139  1.0000
  C   C84       1.0  0.02935  0.54388  0.34480  1.0000
  C   C85       1.0  0.99445  0.50484  0.34885  1.0000
  C   C86       1.0  0.99867  0.47005  0.35144  1.0000
  C   C87       1.0  0.03727  0.47449  0.34324  1.0000
  C   C88       1.0  0.07204  0.51272  0.33609  1.0000
  C   C89       1.0  0.06823  0.54767  0.34122  1.0000
  C   C90       1.0  0.95637  0.50214  0.35152  1.0000
  H   H58       1.0  0.04010  0.44927  0.34133  1.0000
  C   C91       1.0  0.10234  0.58664  0.34490  1.0000
  H   H59       1.0  0.93049  0.47502  0.35622  1.0000
  H   H60       1.0  0.92406  0.53228  0.34613  1.0000
  H   H61       1.0  0.13078  0.59073  0.34621  1.0000
  H   H62       1.0  0.12435  0.64798  0.35638  1.0000
  C   C92       1.0  0.08783  0.69139  0.36752  1.0000
  C   C93       1.0  0.10823  0.51469  0.31592  1.0000
  C   C94       1.0  0.96701  0.43162  0.36747  1.0000
  C   C95       1.0  0.94661  0.60833  0.31593  1.0000
  H   H63       1.0  0.08871  0.70384  0.42633  1.0000
  H   H64       1.0  0.96621  0.41912  0.42616  1.0000
  H   H65       1.0  0.93200  0.59312  0.26157  1.0000
  C   C96       1.0  0.39752  0.49202  0.36753  1.0000
  H   H66       1.0  0.38505  0.48040  0.42630  1.0000
  C   C97       1.0  0.15774  0.49805  0.35501  1.0000
  C   C98       1.0  0.18207  0.50321  0.43024  1.0000
  C   C99       1.0  0.21828  0.50251  0.41879  1.0000
  C   C100      1.0  0.23039  0.49602  0.33418  1.0000
  C   C101      1.0  0.27276  0.46563  0.36712  1.0000
  C   C102      1.0  0.31049  0.46776  0.35997  1.0000
  H   H67       1.0  0.31382  0.44522  0.38753  1.0000
  H   H68       1.0  0.23608  0.50705  0.47350  1.0000
  N   N19       1.0  0.24002  0.43313  0.41125  1.0000
  N   N20       1.0  0.16993  0.50961  0.51501  1.0000
  O   O1        1.0  0.24799  0.43127  0.49188  1.0000
  O   O2        1.0  0.16507  0.48259  0.56929  1.0000
  O   O3        1.0  0.23049  0.40017  0.37435  1.0000
  O   O4        1.0  0.19528  0.54312  0.54683  1.0000
  N   N21       1.0  0.12353  0.49858  0.36597  1.0000
  C   C103      1.0  0.59089  0.75526  0.35498  1.0000
  C   C104      1.0  0.58573  0.77444  0.43020  1.0000
  C   C105      1.0  0.58643  0.81134  0.41876  1.0000
  C   C106      1.0  0.59292  0.82995  0.33414  1.0000
  C   C107      1.0  0.62330  0.90271  0.36713  1.0000
  C   C108      1.0  0.62115  0.93830  0.36000  1.0000
  H   H69       1.0  0.64367  0.96416  0.38760  1.0000
  H   H70       1.0  0.58188  0.82460  0.47346  1.0000
  N   N22       1.0  0.65579  0.90247  0.41127  1.0000
  N   N23       1.0  0.57930  0.75588  0.51496  1.0000
  O   O5        1.0  0.65764  0.91228  0.49191  1.0000
  O   O6        1.0  0.60631  0.77803  0.56927  1.0000
  O   O7        1.0  0.68875  0.92592  0.37440  1.0000
  O   O8        1.0  0.54578  0.74772  0.54676  1.0000
  N   N24       1.0  0.59036  0.72053  0.36592  1.0000
  C   C109      1.0  0.33365  0.93118  0.35499  1.0000
  C   C110      1.0  0.31447  0.90684  0.43022  1.0000
  C   C111      1.0  0.27758  0.87063  0.41877  1.0000
  C   C112      1.0  0.25897  0.85852  0.33416  1.0000
  C   C113      1.0  0.18621  0.81615  0.36713  1.0000
  C   C114      1.0  0.15061  0.77841  0.35998  1.0000
  H   H71       1.0  0.12475  0.77510  0.38755  1.0000
  H   H72       1.0  0.26432  0.85283  0.47348  1.0000
  N   N25       1.0  0.18646  0.84889  0.41128  1.0000
  N   N26       1.0  0.33303  0.91898  0.51498  1.0000
  O   O9        1.0  0.17664  0.84091  0.49192  1.0000
  O   O10       1.0  0.31087  0.92383  0.56927  1.0000
  O   O11       1.0  0.16303  0.85841  0.37440  1.0000
  O   O12       1.0  0.34119  0.89363  0.54679  1.0000
  N   N27       1.0  0.36838  0.96539  0.36594  1.0000
  C   C115      1.0  0.89710  0.62495  0.35502  1.0000
  C   C116      1.0  0.87275  0.61979  0.43024  1.0000
  C   C117      1.0  0.83656  0.62049  0.41878  1.0000
  C   C118      1.0  0.82446  0.62700  0.33416  1.0000
  C   C119      1.0  0.78207  0.65737  0.36712  1.0000
  C   C120      1.0  0.74433  0.65522  0.35998  1.0000
  H   H73       1.0  0.74100  0.67776  0.38756  1.0000
  H   H74       1.0  0.81875  0.61594  0.47348  1.0000
  N   N28       1.0  0.81481  0.68987  0.41127  1.0000
  N   N29       1.0  0.88489  0.61336  0.51501  1.0000
  O   O13       1.0  0.80683  0.69171  0.49192  1.0000
  O   O14       1.0  0.88974  0.64037  0.56931  1.0000
  O   O15       1.0  0.82432  0.72283  0.37440  1.0000
  O   O16       1.0  0.85952  0.57984  0.54680  1.0000
  N   N30       1.0  0.93130  0.62442  0.36600  1.0000
  C   C121      1.0  0.46395  0.36771  0.35504  1.0000
  C   C122      1.0  0.46911  0.34853  0.43025  1.0000
  C   C123      1.0  0.46841  0.31163  0.41879  1.0000
  C   C124      1.0  0.46192  0.29303  0.33417  1.0000
  C   C125      1.0  0.43153  0.22027  0.36710  1.0000
  C   C126      1.0  0.43368  0.18467  0.35996  1.0000
  H   H75       1.0  0.41114  0.15881  0.38753  1.0000
  H   H76       1.0  0.47295  0.29836  0.47349  1.0000
  N   N31       1.0  0.39903  0.22051  0.41123  1.0000
  N   N32       1.0  0.47552  0.36708  0.51503  1.0000
  O   O17       1.0  0.39718  0.21069  0.49187  1.0000
  O   O18       1.0  0.44850  0.34491  0.56931  1.0000
  O   O19       1.0  0.36608  0.19707  0.37433  1.0000
  O   O20       1.0  0.50904  0.37523  0.54684  1.0000
  N   N33       1.0  0.46449  0.40245  0.36602  1.0000
  C   C127      1.0  0.72119  0.19179  0.35499  1.0000
  C   C128      1.0  0.74036  0.21613  0.43021  1.0000
  C   C129      1.0  0.77726  0.25234  0.41877  1.0000
  C   C130      1.0  0.79587  0.26444  0.33415  1.0000
  C   C131      1.0  0.86863  0.30683  0.36712  1.0000
  C   C132      1.0  0.90422  0.34458  0.35997  1.0000
  H   H77       1.0  0.93008  0.34791  0.38757  1.0000
  H   H78       1.0  0.79052  0.27015  0.47346  1.0000
  N   N34       1.0  0.86839  0.27411  0.41129  1.0000
  N   N35       1.0  0.72181  0.20399  0.51497  1.0000
  O   O21       1.0  0.87821  0.28208  0.49192  1.0000
  O   O22       1.0  0.74396  0.19914  0.56927  1.0000
  O   O23       1.0  0.89184  0.26459  0.37442  1.0000
  O   O24       1.0  0.71365  0.22936  0.54677  1.0000
  N   N36       1.0  0.68646  0.15758  0.36594  1.0000
