data_image0
_chemical_formula_structural       C2NC2H2C3H2CH3C3HCHCHC2NC2NHC3NHC4NC2NHCH2C4NC2NHCH2CH2C2H2CH3CHCH3C2H2CH3C2H2CH3C2H2CH4C6H3C6H3C6H3C6H3C6H3CHC2H3C2H3C5NHC4NC2NHC2NC6NC2NHC4NC2NHC4NC2NH
_chemical_formula_sum              "C117 N18 H72"
_cell_length_a       30.6129
_cell_length_b       30.6129
_cell_length_c       14.7617
_cell_angle_alpha    90
_cell_angle_beta     90
_cell_angle_gamma    120

_space_group_name_H-M_alt    "P 1"
_space_group_IT_number       1

loop_
  _space_group_symop_operation_xyz
  'x, y, z'

loop_
  _atom_site_type_symbol
  _atom_site_label
  _atom_site_symmetry_multiplicity
  _atom_site_fract_x
  _atom_site_fract_y
  _atom_site_fract_z
  _atom_site_occupancy
  C   C1        1.0  0.03922  0.53998  0.24858  1.0000
  C   C2        1.0  0.06697  0.53092  0.31566  1.0000
  N   N1        1.0  0.06331  0.57369  0.18073  1.0000
  C   C3        1.0  0.03935  0.58370  0.11342  1.0000
  C   C4        1.0  0.06867  0.62064  0.04227  1.0000
  H   H1        1.0  0.10914  0.63694  0.05337  1.0000
  H   H2        1.0  0.05989  0.65108  0.04237  1.0000
  C   C5        1.0  0.14774  0.61262  0.32787  1.0000
  C   C6        1.0  0.12131  0.55899  0.32160  1.0000
  C   C7        1.0  0.14954  0.53369  0.32964  1.0000
  H   H3        1.0  0.12821  0.63163  0.32373  1.0000
  H   H4        1.0  0.13144  0.49519  0.32472  1.0000
  C   C8        1.0  0.03863  0.49380  0.38164  1.0000
  H   H5        1.0  0.05672  0.48662  0.43286  1.0000
  H   H6        1.0  0.05922  0.60224  0.64281  1.0000
  H   H7        1.0  0.21725  0.57966  0.00444  1.0000
  C   C9        1.0  0.20150  0.56001  0.35174  1.0000
  C   C10       1.0  0.19965  0.64015  0.35022  1.0000
  C   C11       1.0  0.24906  0.52347  0.28514  1.0000
  H   H8        1.0  0.23152  0.51987  0.22439  1.0000
  C   C12       1.0  0.25256  0.58005  0.01757  1.0000
  H   H9        1.0  0.24559  0.55154  0.06846  1.0000
  C   C13       1.0  0.24502  0.72485  0.28464  1.0000
  H   H10       1.0  0.22826  0.71087  0.22321  1.0000
  C   C14       1.0  0.22516  0.61283  0.36286  1.0000
  C   C15       1.0  0.23179  0.53726  0.36322  1.0000
  N   N2        1.0  0.24577  0.55849  0.52238  1.0000
  C   C16       1.0  0.22795  0.69332  0.36210  1.0000
  C   C17       1.0  0.25597  0.71275  0.44319  1.0000
  N   N3        1.0  0.24050  0.68596  0.52183  1.0000
  H   H11       1.0  0.25246  0.68019  0.65759  1.0000
  C   C18       1.0  0.95730  0.47631  0.31526  1.0000
  C   C19       1.0  0.98528  0.51321  0.24840  1.0000
  C   C20       1.0  0.98622  0.55735  0.11394  1.0000
  N   N4        1.0  0.96152  0.52333  0.18060  1.0000
  H   H12       1.0  0.96609  0.56310  0.06486  1.0000
  C   C21       1.0  0.54408  0.48530  0.31530  1.0000
  C   C22       1.0  0.50718  0.47639  0.24843  1.0000
  C   C23       1.0  0.48042  0.50356  0.24861  1.0000
  C   C24       1.0  0.48947  0.54037  0.31570  1.0000
  N   N5        1.0  0.44671  0.49395  0.18077  1.0000
  C   C25       1.0  0.43670  0.45998  0.11345  1.0000
  C   C26       1.0  0.46305  0.43319  0.11396  1.0000
  N   N6        1.0  0.49707  0.44251  0.18062  1.0000
  H   H13       1.0  0.45730  0.40733  0.06487  1.0000
  C   C27       1.0  0.39974  0.45234  0.04232  1.0000
  H   H14       1.0  0.38345  0.47653  0.05343  1.0000
  H   H15       1.0  0.36931  0.41313  0.04242  1.0000
  C   C28       1.0  0.53511  0.06294  0.31508  1.0000
  C   C29       1.0  0.54400  0.03488  0.24833  1.0000
  C   C30       1.0  0.51684  0.98095  0.24868  1.0000
  C   C31       1.0  0.48004  0.95327  0.31583  1.0000
  N   N7        1.0  0.52643  0.95678  0.18094  1.0000
  C   C32       1.0  0.56038  0.98067  0.11356  1.0000
  C   C33       1.0  0.58715  0.03380  0.11389  1.0000
  N   N8        1.0  0.57785  0.05857  0.18045  1.0000
  H   H16       1.0  0.61301  0.05388  0.06475  1.0000
  C   C34       1.0  0.56799  0.95129  0.04254  1.0000
  H   H17       1.0  0.54382  0.91082  0.05377  1.0000
  H   H18       1.0  0.60721  0.96007  0.04262  1.0000
  C   C35       1.0  0.29590  0.52463  0.28445  1.0000
  H   H19       1.0  0.31014  0.52220  0.22306  1.0000
  H   H20       1.0  0.28009  0.61707  0.04394  1.0000
  C   C36       1.0  0.49713  0.72996  0.28634  1.0000
  C   C37       1.0  0.49619  0.77575  0.28570  1.0000
  H   H21       1.0  0.49881  0.79254  0.22436  1.0000
  H   H22       1.0  0.50103  0.71611  0.22569  1.0000
  C   C38       1.0  0.43960  0.67632  0.01835  1.0000
  H   H23       1.0  0.44003  0.64143  0.00520  1.0000
  H   H24       1.0  0.40250  0.66679  0.04434  1.0000
  H   H25       1.0  0.46794  0.69776  0.06960  1.0000
  C   C39       1.0  0.29060  0.77177  0.28590  1.0000
  H   H26       1.0  0.30473  0.78959  0.22543  1.0000
  C   C40       1.0  0.34304  0.76642  0.01828  1.0000
  H   H27       1.0  0.37796  0.80180  0.00564  1.0000
  H   H28       1.0  0.35250  0.73877  0.04410  1.0000
  H   H29       1.0  0.32141  0.77312  0.06942  1.0000
  C   C41       1.0  0.77978  0.49228  0.28453  1.0000
  C   C42       1.0  0.73400  0.49327  0.28428  1.0000
  H   H30       1.0  0.72007  0.49651  0.22314  1.0000
  H   H31       1.0  0.79702  0.49531  0.22365  1.0000
  C   C43       1.0  0.77418  0.43362  0.01639  1.0000
  H   H32       1.0  0.80866  0.43244  0.00288  1.0000
  H   H33       1.0  0.74567  0.39699  0.04271  1.0000
  H   H34       1.0  0.78237  0.46235  0.06751  1.0000
  C   C44       1.0  0.52833  0.29213  0.28376  1.0000
  C   C45       1.0  0.52744  0.24542  0.28301  1.0000
  H   H35       1.0  0.52434  0.22850  0.22164  1.0000
  H   H36       1.0  0.52542  0.30657  0.22307  1.0000
  C   C46       1.0  0.58621  0.34367  0.01624  1.0000
  H   H37       1.0  0.58740  0.37936  0.00318  1.0000
  H   H38       1.0  0.62279  0.35168  0.04262  1.0000
  H   H39       1.0  0.55738  0.32291  0.06711  1.0000
  C   C47       1.0  0.72846  0.24085  0.28317  1.0000
  C   C48       1.0  0.77521  0.28663  0.28317  1.0000
  H   H40       1.0  0.79234  0.30075  0.22205  1.0000
  H   H41       1.0  0.71422  0.22376  0.22222  1.0000
  C   C49       1.0  0.67556  0.24524  0.01551  1.0000
  H   H42       1.0  0.63987  0.21084  0.00180  1.0000
  H   H43       1.0  0.66752  0.27369  0.04243  1.0000
  H   H44       1.0  0.69613  0.23683  0.06623  1.0000
  H   H45       1.0  0.26321  0.63255  0.37593  1.0000
  C   C50       1.0  0.46040  0.64576  0.35262  1.0000
  C   C51       1.0  0.40759  0.61657  0.36380  1.0000
  C   C52       1.0  0.38027  0.56379  0.35058  1.0000
  C   C53       1.0  0.40777  0.53945  0.32770  1.0000
  C   C54       1.0  0.46141  0.56664  0.32170  1.0000
  C   C55       1.0  0.48671  0.62016  0.33007  1.0000
  H   H46       1.0  0.38876  0.50091  0.32355  1.0000
  H   H47       1.0  0.52521  0.64056  0.32519  1.0000
  H   H48       1.0  0.38787  0.63485  0.37716  1.0000
  C   C56       1.0  0.37471  0.81887  0.35331  1.0000
  C   C57       1.0  0.40395  0.79534  0.36509  1.0000
  C   C58       1.0  0.45674  0.82078  0.35192  1.0000
  C   C59       1.0  0.48104  0.87255  0.32851  1.0000
  C   C60       1.0  0.45380  0.89894  0.32208  1.0000
  C   C61       1.0  0.40028  0.87070  0.33020  1.0000
  H   H49       1.0  0.51958  0.89210  0.32429  1.0000
  H   H50       1.0  0.37985  0.88874  0.32478  1.0000
  H   H51       1.0  0.38567  0.75732  0.37832  1.0000
  C   C62       1.0  0.82453  0.45245  0.35060  1.0000
  C   C63       1.0  0.79916  0.39959  0.36265  1.0000
  C   C64       1.0  0.82289  0.37057  0.35035  1.0000
  C   C65       1.0  0.87485  0.39642  0.32830  1.0000
  C   C66       1.0  0.90295  0.44997  0.32081  1.0000
  C   C67       1.0  0.87637  0.47700  0.32750  1.0000
  H   H52       1.0  0.89303  0.37611  0.32290  1.0000
  H   H53       1.0  0.89578  0.51556  0.32372  1.0000
  H   H54       1.0  0.76111  0.38112  0.37567  1.0000
  C   C68       1.0  0.56792  0.37636  0.35053  1.0000
  C   C69       1.0  0.62074  0.40386  0.36300  1.0000
  C   C70       1.0  0.64979  0.45662  0.35091  1.0000
  C   C71       1.0  0.62398  0.48275  0.32863  1.0000
  C   C72       1.0  0.57043  0.45729  0.32086  1.0000
  C   C73       1.0  0.54339  0.40367  0.32737  1.0000
  H   H55       1.0  0.64429  0.52123  0.32333  1.0000
  H   H56       1.0  0.50485  0.38453  0.32337  1.0000
  H   H57       1.0  0.63919  0.38426  0.37607  1.0000
  C   C74       1.0  0.64406  0.19585  0.34909  1.0000
  C   C75       1.0  0.61660  0.22126  0.36091  1.0000
  C   C76       1.0  0.56380  0.19745  0.34917  1.0000
  C   C77       1.0  0.53763  0.14539  0.32785  1.0000
  C   C78       1.0  0.56310  0.11731  0.32036  1.0000
  C   C79       1.0  0.61673  0.14391  0.32678  1.0000
  H   H58       1.0  0.49914  0.12718  0.32273  1.0000
  H   H59       1.0  0.63586  0.12448  0.32325  1.0000
  H   H60       1.0  0.63619  0.25933  0.37378  1.0000
  C   C80       1.0  0.98540  0.46727  0.38141  1.0000
  H   H61       1.0  0.96713  0.44196  0.43248  1.0000
  C   C81       1.0  0.52659  0.54914  0.38170  1.0000
  C   C82       1.0  0.55310  0.52243  0.38147  1.0000
  H   H62       1.0  0.57842  0.52948  0.43254  1.0000
  H   H63       1.0  0.53377  0.57439  0.43294  1.0000
  H   H64       1.0  0.41814  0.46131  0.64285  1.0000
  C   C83       1.0  0.47128  0.98168  0.38170  1.0000
  C   C84       1.0  0.49799  0.03490  0.38130  1.0000
  H   H65       1.0  0.49095  0.05323  0.43227  1.0000
  H   H66       1.0  0.44603  0.96365  0.43297  1.0000
  H   H67       1.0  0.55900  0.96065  0.64303  1.0000
  C   C85       1.0  0.32709  0.53893  0.36240  1.0000
  C   C86       1.0  0.30728  0.54729  0.44319  1.0000
  C   C87       1.0  0.26074  0.54695  0.44339  1.0000
  C   C88       1.0  0.27208  0.56922  0.60118  1.0000
  C   C89       1.0  0.31784  0.56879  0.60064  1.0000
  N   N9        1.0  0.33382  0.55856  0.52210  1.0000
  H   H68       1.0  0.33907  0.57609  0.65791  1.0000
  C   C90       1.0  0.48157  0.79241  0.36349  1.0000
  C   C91       1.0  0.47300  0.76419  0.44430  1.0000
  C   C92       1.0  0.47331  0.71796  0.44443  1.0000
  C   C93       1.0  0.48315  0.69879  0.36429  1.0000
  N   N10       1.0  0.46159  0.69135  0.52333  1.0000
  C   C94       1.0  0.45071  0.70683  0.60209  1.0000
  C   C95       1.0  0.45119  0.75305  0.60162  1.0000
  N   N11       1.0  0.46160  0.77936  0.52318  1.0000
  H   H69       1.0  0.44377  0.76690  0.65886  1.0000
  C   C96       1.0  0.30224  0.75923  0.44396  1.0000
  C   C97       1.0  0.32160  0.78842  0.36404  1.0000
  N   N12       1.0  0.32859  0.77387  0.52316  1.0000
  C   C98       1.0  0.31281  0.74729  0.60166  1.0000
  C   C99       1.0  0.26655  0.70161  0.60056  1.0000
  C   C100      1.0  0.70289  0.47961  0.36225  1.0000
  C   C101      1.0  0.72180  0.46988  0.44284  1.0000
  C   C102      1.0  0.76733  0.46823  0.44263  1.0000
  C   C103      1.0  0.79590  0.47701  0.36217  1.0000
  N   N13       1.0  0.78155  0.45567  0.52138  1.0000
  C   C104      1.0  0.75545  0.44567  0.60030  1.0000
  C   C105      1.0  0.71068  0.44800  0.60013  1.0000
  N   N14       1.0  0.69542  0.45931  0.52185  1.0000
  H   H70       1.0  0.68964  0.44130  0.65751  1.0000
  C   C106      1.0  0.54075  0.22746  0.36077  1.0000
  C   C107      1.0  0.55030  0.25588  0.44163  1.0000
  C   C108      1.0  0.55198  0.30307  0.44205  1.0000
  C   C109      1.0  0.54336  0.32315  0.36189  1.0000
  N   N15       1.0  0.56443  0.32959  0.52109  1.0000
  C   C110      1.0  0.57427  0.31318  0.59980  1.0000
  C   C111      1.0  0.57188  0.26605  0.59907  1.0000
  N   N16       1.0  0.56071  0.23978  0.52048  1.0000
  H   H71       1.0  0.57844  0.25149  0.65628  1.0000
  C   C112      1.0  0.79277  0.31746  0.36150  1.0000
  C   C113      1.0  0.76416  0.29832  0.44203  1.0000
  C   C114      1.0  0.71700  0.25278  0.44162  1.0000
  C   C115      1.0  0.69722  0.22442  0.36102  1.0000
  N   N17       1.0  0.69020  0.23833  0.52035  1.0000
  C   C116      1.0  0.70632  0.26424  0.59944  1.0000
  C   C117      1.0  0.75341  0.30902  0.59950  1.0000
  N   N18       1.0  0.77996  0.32450  0.52123  1.0000
  H   H72       1.0  0.76775  0.32990  0.65704  1.0000
