data_image0
_chemical_formula_structural       C3NC3NC5NC5NC20H18N4CNCNO2CHCNCNO2CHC8H8NC2HCHNC2HCH
_chemical_formula_sum              "C56 N14 H32 O4"
_cell_length_a       25.5706
_cell_length_b       25.5684
_cell_length_c       14.6527
_cell_angle_alpha    90
_cell_angle_beta     90
_cell_angle_gamma    89.97

_space_group_name_H-M_alt    "P 1"
_space_group_IT_number       1

loop_
  _space_group_symop_operation_xyz
  'x, y, z'

loop_
  _atom_site_type_symbol
  _atom_site_label
  _atom_site_symmetry_multiplicity
  _atom_site_fract_x
  _atom_site_fract_y
  _atom_site_fract_z
  _atom_site_occupancy
  C   C1        1.0  0.91325  0.14916  0.33384  1.0000
  C   C2        1.0  0.87497  0.11110  0.33439  1.0000
  C   C3        1.0  0.89931  0.06215  0.33470  1.0000
  N   N1        1.0  0.95138  0.07254  0.33532  1.0000
  C   C4        1.0  0.96206  0.12455  0.33494  1.0000
  C   C5        1.0  0.01113  0.15100  0.33495  1.0000
  C   C6        1.0  0.06059  0.12556  0.33641  1.0000
  N   N2        1.0  0.07061  0.07360  0.33790  1.0000
  C   C7        1.0  0.12250  0.06327  0.33960  1.0000
  C   C8        1.0  0.14741  0.11187  0.33882  1.0000
  C   C9        1.0  0.10935  0.15017  0.33746  1.0000
  C   C10       1.0  0.14764  0.01366  0.34111  1.0000
  C   C11       1.0  0.12097  0.96473  0.34076  1.0000
  N   N3        1.0  0.06892  0.95436  0.34022  1.0000
  C   C12       1.0  0.05827  0.90236  0.34086  1.0000
  C   C13       1.0  0.10707  0.87772  0.34112  1.0000
  C   C14       1.0  0.14533  0.91578  0.34174  1.0000
  C   C15       1.0  0.00920  0.87595  0.34082  1.0000
  C   C16       1.0  0.95974  0.90138  0.33903  1.0000
  N   N4        1.0  0.94968  0.95334  0.33780  1.0000
  C   C17       1.0  0.89777  0.96365  0.33636  1.0000
  C   C18       1.0  0.87292  0.91500  0.33621  1.0000
  C   C19       1.0  0.91100  0.87674  0.33863  1.0000
  C   C20       1.0  0.87257  0.01325  0.33487  1.0000
  C   C21       1.0  0.81659  0.01381  0.33422  1.0000
  C   C22       1.0  0.70474  0.01360  0.33287  1.0000
  C   C23       1.0  0.73346  0.02393  0.25252  1.0000
  C   C24       1.0  0.78858  0.02402  0.25297  1.0000
  C   C25       1.0  0.00952  0.82000  0.34176  1.0000
  C   C26       1.0  0.00961  0.70819  0.34319  1.0000
  C   C27       1.0  0.99958  0.73641  0.26179  1.0000
  C   C28       1.0  0.99981  0.79147  0.26097  1.0000
  C   C29       1.0  0.20357  0.01306  0.34204  1.0000
  C   C30       1.0  0.23194  0.00251  0.26139  1.0000
  C   C31       1.0  0.28700  0.00183  0.26206  1.0000
  C   C32       1.0  0.31536  0.01221  0.34314  1.0000
  C   C33       1.0  0.01087  0.20698  0.33420  1.0000
  C   C34       1.0  0.02145  0.23504  0.25316  1.0000
  C   C35       1.0  0.01064  0.31881  0.33315  1.0000
  C   C36       1.0  0.02133  0.29016  0.25285  1.0000
  H   H1        1.0  0.02918  0.30937  0.19306  1.0000
  H   H2        1.0  0.02937  0.21548  0.19376  1.0000
  H   H3        1.0  0.90585  0.18846  0.33290  1.0000
  H   H4        1.0  0.83571  0.11873  0.33425  1.0000
  H   H5        1.0  0.97792  0.04585  0.33555  1.0000
  H   H6        1.0  0.04238  0.98105  0.34024  1.0000
  H   H7        1.0  0.11674  0.18946  0.33723  1.0000
  H   H8        1.0  0.18674  0.11902  0.33936  1.0000
  H   H9        1.0  0.21264  0.99497  0.20157  1.0000
  H   H10       1.0  0.30601  0.99341  0.20251  1.0000
  H   H11       1.0  0.18458  0.90816  0.34278  1.0000
  H   H12       1.0  0.11446  0.83842  0.34137  1.0000
  H   H13       1.0  0.83361  0.90780  0.33493  1.0000
  H   H14       1.0  0.90362  0.83746  0.33949  1.0000
  H   H15       1.0  0.99242  0.81066  0.20097  1.0000
  H   H16       1.0  0.99165  0.71729  0.20216  1.0000
  H   H17       1.0  0.80820  0.03147  0.19345  1.0000
  H   H18       1.0  0.71431  0.03141  0.19252  1.0000
  N   N5        1.0  0.00974  0.65598  0.34941  1.0000
  N   N6        1.0  0.36758  0.01223  0.34916  1.0000
  N   N7        1.0  0.01066  0.37100  0.32692  1.0000
  N   N8        1.0  0.65255  0.01341  0.32646  1.0000
  C   C37       1.0  0.00943  0.56653  0.31116  1.0000
  N   N9        1.0  0.00980  0.47548  0.27327  1.0000
  C   C38       1.0  0.00987  0.52624  0.24441  1.0000
  N   N10       1.0  0.01030  0.53761  0.15020  1.0000
  O   O1        1.0  0.05032  0.51861  0.11319  1.0000
  O   O2        1.0  0.97071  0.51855  0.11202  1.0000
  C   C39       1.0  0.00929  0.61944  0.28887  1.0000
  H   H19       1.0  0.00928  0.62937  0.22339  1.0000
  C   C40       1.0  0.45698  0.01137  0.31076  1.0000
  N   N11       1.0  0.54802  0.01163  0.27276  1.0000
  C   C41       1.0  0.49725  0.01138  0.24397  1.0000
  N   N12       1.0  0.48583  0.01111  0.14977  1.0000
  O   O3        1.0  0.50471  0.05087  0.11182  1.0000
  O   O4        1.0  0.50496  0.97125  0.11246  1.0000
  C   C42       1.0  0.40407  0.01100  0.28856  1.0000
  H   H20       1.0  0.39410  0.01028  0.22312  1.0000
  C   C43       1.0  0.78804  0.00339  0.41478  1.0000
  C   C44       1.0  0.73296  0.00306  0.41401  1.0000
  C   C45       1.0  0.01916  0.79206  0.42329  1.0000
  C   C46       1.0  0.01920  0.73694  0.42378  1.0000
  C   C47       1.0  0.28677  0.02254  0.42364  1.0000
  C   C48       1.0  0.23166  0.02297  0.42331  1.0000
  C   C49       1.0  0.00005  0.23544  0.41468  1.0000
  C   C50       1.0  0.99970  0.29053  0.41405  1.0000
  H   H21       1.0  0.99105  0.30968  0.47339  1.0000
  H   H22       1.0  0.99205  0.21617  0.47435  1.0000
  H   H23       1.0  0.21211  0.03066  0.48283  1.0000
  H   H24       1.0  0.30601  0.03000  0.48355  1.0000
  H   H25       1.0  0.02618  0.81172  0.48293  1.0000
  H   H26       1.0  0.02634  0.71781  0.48393  1.0000
  H   H27       1.0  0.71378  0.99459  0.47339  1.0000
  H   H28       1.0  0.80725  0.99550  0.47456  1.0000
  N   N13       1.0  0.00891  0.55142  0.40031  1.0000
  C   C51       1.0  0.00885  0.50078  0.42817  1.0000
  C   C52       1.0  0.00935  0.46043  0.36231  1.0000
  H   H29       1.0  0.00841  0.49279  0.49655  1.0000
  C   C53       1.0  0.00907  0.40794  0.38662  1.0000
  H   H30       1.0  0.00794  0.39883  0.45254  1.0000
  N   N14       1.0  0.47212  0.01155  0.39990  1.0000
  C   C54       1.0  0.52277  0.01179  0.42769  1.0000
  C   C55       1.0  0.56310  0.01189  0.36180  1.0000
  H   H31       1.0  0.53078  0.01188  0.49610  1.0000
  C   C56       1.0  0.61558  0.01189  0.38612  1.0000
  H   H32       1.0  0.62467  0.01104  0.45205  1.0000
