data_image0
_chemical_formula_structural       H3CH3CH2C3HNO2NC3HNO2NC2HNO2C2HNO2C3HNO2NC3HNO2NC2HNO2C2HNO2C2HNO2C2HNO2C6HOC6OH5C4H2C6HOC6OH5C4H4C6HOC6OH5C4H4C6HOC6OH4C3H2C6HOC6OH4C3H2C3HNO2NC3HNO2NC4HNO2N2C4HNO2N2C3HNO2NC3HNO2NC4HNO2N2C4HNO2N2C4HNO2N2C4HNO2N2
_chemical_formula_sum              "H70 C140 N40 O50"
_cell_length_a       33.3257
_cell_length_b       41.7836
_cell_length_c       14.7753
_cell_angle_alpha    88.216
_cell_angle_beta     91.3991
_cell_angle_gamma    89.7004

_space_group_name_H-M_alt    "P 1"
_space_group_IT_number       1

loop_
  _space_group_symop_operation_xyz
  'x, y, z'

loop_
  _atom_site_type_symbol
  _atom_site_label
  _atom_site_symmetry_multiplicity
  _atom_site_fract_x
  _atom_site_fract_y
  _atom_site_fract_z
  _atom_site_occupancy
  H   H1        1.0  0.05174  0.09851  0.42179  1.0000
  H   H2        1.0  0.90004  0.92873  0.42122  1.0000
  H   H3        1.0  0.78785  0.36269  0.32910  1.0000
  C   C1        1.0  0.86307  0.34463  0.34571  1.0000
  H   H4        1.0  0.86001  0.36844  0.32878  1.0000
  H   H5        1.0  0.60092  0.30266  0.30455  1.0000
  H   H6        1.0  0.16177  0.66605  0.32933  1.0000
  C   C2        1.0  0.08682  0.68345  0.34589  1.0000
  H   H7        1.0  0.08966  0.65999  0.32926  1.0000
  H   H8        1.0  0.34796  0.72696  0.30405  1.0000
  C   C3        1.0  0.12524  0.12248  0.40012  1.0000
  C   C4        1.0  0.16068  0.13234  0.35617  1.0000
  C   C5        1.0  0.17404  0.16448  0.36284  1.0000
  H   H9        1.0  0.19793  0.17195  0.32574  1.0000
  N   N1        1.0  0.18029  0.11029  0.30118  1.0000
  O   O1        1.0  0.21597  0.10565  0.32798  1.0000
  O   O2        1.0  0.18029  0.11990  0.21973  1.0000
  N   N2        1.0  0.10960  0.09290  0.38530  1.0000
  C   C6        1.0  0.82603  0.90521  0.39997  1.0000
  C   C7        1.0  0.78933  0.89630  0.35658  1.0000
  C   C8        1.0  0.77625  0.86409  0.36317  1.0000
  H   H10       1.0  0.75141  0.85743  0.32650  1.0000
  N   N3        1.0  0.76582  0.91744  0.30034  1.0000
  O   O3        1.0  0.78496  0.92768  0.23327  1.0000
  O   O4        1.0  0.75369  0.94090  0.34350  1.0000
  N   N4        1.0  0.84133  0.93513  0.38540  1.0000
  C   C9        1.0  0.79274  0.15879  0.33472  1.0000
  C   C10       1.0  0.81148  0.12817  0.33695  1.0000
  H   H11       1.0  0.79782  0.11004  0.30324  1.0000
  N   N5        1.0  0.75600  0.16148  0.28500  1.0000
  O   O5        1.0  0.72760  0.16926  0.33434  1.0000
  O   O6        1.0  0.75825  0.18155  0.22024  1.0000
  C   C11       1.0  0.15754  0.87048  0.33629  1.0000
  C   C12       1.0  0.13887  0.90106  0.33837  1.0000
  H   H12       1.0  0.15214  0.92002  0.30583  1.0000
  N   N6        1.0  0.19366  0.86900  0.28822  1.0000
  O   O7        1.0  0.22266  0.85986  0.33866  1.0000
  O   O8        1.0  0.19054  0.85063  0.22271  1.0000
  C   C13       1.0  0.25681  0.48290  0.36220  1.0000
  C   C14       1.0  0.22078  0.50113  0.35122  1.0000
  C   C15       1.0  0.22137  0.53468  0.36344  1.0000
  H   H13       1.0  0.19537  0.54747  0.35128  1.0000
  N   N7        1.0  0.18357  0.48780  0.32443  1.0000
  O   O9        1.0  0.17221  0.46696  0.38122  1.0000
  O   O10       1.0  0.18533  0.47537  0.24825  1.0000
  N   N8        1.0  0.25736  0.45067  0.34744  1.0000
  C   C16       1.0  0.69356  0.54563  0.36221  1.0000
  C   C17       1.0  0.72935  0.52768  0.35093  1.0000
  C   C18       1.0  0.72908  0.49384  0.36307  1.0000
  H   H14       1.0  0.75480  0.48135  0.35058  1.0000
  N   N9        1.0  0.76592  0.54163  0.32387  1.0000
  O   O11       1.0  0.77857  0.56121  0.38060  1.0000
  O   O12       1.0  0.76237  0.55576  0.24774  1.0000
  N   N10       1.0  0.69261  0.57818  0.34745  1.0000
  C   C19       1.0  0.96629  0.36089  0.34595  1.0000
  C   C20       1.0  0.00894  0.35745  0.35232  1.0000
  H   H15       1.0  0.02656  0.37667  0.33636  1.0000
  N   N11       1.0  0.94729  0.39005  0.31921  1.0000
  O   O13       1.0  0.95623  0.41174  0.37300  1.0000
  O   O14       1.0  0.95717  0.39894  0.24092  1.0000
  C   C21       1.0  0.98336  0.66730  0.34632  1.0000
  C   C22       1.0  0.94087  0.67075  0.35263  1.0000
  H   H16       1.0  0.92280  0.65193  0.33682  1.0000
  N   N12       1.0  0.00163  0.63864  0.31979  1.0000
  O   O15       1.0  0.99374  0.61584  0.37373  1.0000
  O   O16       1.0  0.99000  0.63145  0.24155  1.0000
  C   C23       1.0  0.46754  0.33251  0.27861  1.0000
  C   C24       1.0  0.50942  0.32685  0.29283  1.0000
  H   H17       1.0  0.52782  0.32824  0.23845  1.0000
  N   N13       1.0  0.45085  0.33859  0.19069  1.0000
  O   O17       1.0  0.45724  0.31575  0.13949  1.0000
  O   O18       1.0  0.46497  0.36370  0.15526  1.0000
  C   C25       1.0  0.48079  0.69765  0.27850  1.0000
  C   C26       1.0  0.43922  0.70302  0.29267  1.0000
  H   H18       1.0  0.41963  0.70273  0.23833  1.0000
  N   N14       1.0  0.49556  0.69334  0.19066  1.0000
  O   O19       1.0  0.48808  0.71723  0.13914  1.0000
  O   O20       1.0  0.48064  0.66896  0.15556  1.0000
  C   C27       1.0  0.99720  0.01522  0.39283  1.0000
  C   C28       1.0  0.02416  0.98891  0.38141  1.0000
  C   C29       1.0  0.06637  0.99216  0.37242  1.0000
  C   C30       1.0  0.08264  0.02357  0.37482  1.0000
  C   C31       1.0  0.05797  0.05029  0.39266  1.0000
  C   C32       1.0  0.01626  0.04520  0.40240  1.0000
  H   H19       1.0  0.01291  0.96660  0.37215  1.0000
  O   O21       1.0  0.12293  0.02797  0.36581  1.0000
  C   C33       1.0  0.95391  0.01268  0.39283  1.0000
  C   C34       1.0  0.93506  0.98248  0.40225  1.0000
  C   C35       1.0  0.89313  0.97761  0.39250  1.0000
  C   C36       1.0  0.86809  0.00474  0.37460  1.0000
  C   C37       1.0  0.88432  0.03620  0.37235  1.0000
  C   C38       1.0  0.92671  0.03925  0.38161  1.0000
  O   O22       1.0  0.82761  0.00054  0.36529  1.0000
  H   H20       1.0  0.93777  0.06175  0.37225  1.0000
  H   H21       1.0  0.13507  0.02542  0.42701  1.0000
  H   H22       1.0  0.81672  0.00172  0.42641  1.0000
  H   H23       1.0  0.99925  0.06446  0.41865  1.0000
  H   H24       1.0  0.95242  0.96286  0.41841  1.0000
  C   C39       1.0  0.07235  0.08180  0.40381  1.0000
  C   C40       1.0  0.09200  0.96527  0.36097  1.0000
  C   C41       1.0  0.87901  0.94585  0.40353  1.0000
  C   C42       1.0  0.85850  0.06337  0.36070  1.0000
  H   H25       1.0  0.82889  0.05978  0.34480  1.0000
  H   H26       1.0  0.12133  0.96921  0.34568  1.0000
  C   C43       1.0  0.21767  0.32650  0.37517  1.0000
  C   C44       1.0  0.21854  0.29239  0.37390  1.0000
  C   C45       1.0  0.18421  0.27274  0.38038  1.0000
  C   C46       1.0  0.14611  0.28811  0.38205  1.0000
  C   C47       1.0  0.14200  0.32202  0.37821  1.0000
  C   C48       1.0  0.17812  0.34011  0.37597  1.0000
  H   H27       1.0  0.24516  0.28077  0.36664  1.0000
  O   O23       1.0  0.11272  0.26973  0.37604  1.0000
  C   C49       1.0  0.25433  0.34503  0.37150  1.0000
  C   C50       1.0  0.29343  0.33107  0.38617  1.0000
  C   C51       1.0  0.33000  0.34726  0.36930  1.0000
  C   C52       1.0  0.32754  0.38027  0.34445  1.0000
  C   C53       1.0  0.29009  0.39691  0.34356  1.0000
  C   C54       1.0  0.25454  0.37883  0.35432  1.0000
  O   O24       1.0  0.36237  0.39696  0.33308  1.0000
  H   H28       1.0  0.22817  0.39119  0.34773  1.0000
  H   H29       1.0  0.10831  0.26576  0.31120  1.0000
  H   H30       1.0  0.37184  0.40302  0.39379  1.0000
  H   H31       1.0  0.17485  0.36435  0.37650  1.0000
  H   H32       1.0  0.29611  0.30784  0.40871  1.0000
  C   C55       1.0  0.10377  0.33783  0.37373  1.0000
  C   C56       1.0  0.18888  0.23890  0.38025  1.0000
  C   C57       1.0  0.36773  0.33182  0.38657  1.0000
  C   C58       1.0  0.28961  0.43088  0.33923  1.0000
  H   H33       1.0  0.31669  0.44185  0.33316  1.0000
  H   H34       1.0  0.10272  0.36219  0.36457  1.0000
  H   H35       1.0  0.21576  0.22906  0.36342  1.0000
  H   H36       1.0  0.36891  0.31204  0.42924  1.0000
  C   C59       1.0  0.73283  0.70173  0.37515  1.0000
  C   C60       1.0  0.73200  0.73587  0.37390  1.0000
  C   C61       1.0  0.76651  0.75534  0.38025  1.0000
  C   C62       1.0  0.80462  0.73989  0.38187  1.0000
  C   C63       1.0  0.80858  0.70605  0.37813  1.0000
  C   C64       1.0  0.77237  0.68806  0.37595  1.0000
  H   H37       1.0  0.70523  0.74768  0.36678  1.0000
  O   O25       1.0  0.83795  0.75834  0.37599  1.0000
  C   C65       1.0  0.69608  0.68329  0.37148  1.0000
  C   C66       1.0  0.65730  0.69694  0.38603  1.0000
  C   C67       1.0  0.62037  0.68110  0.36928  1.0000
  C   C68       1.0  0.62229  0.64863  0.34461  1.0000
  C   C69       1.0  0.65972  0.63200  0.34370  1.0000
  C   C70       1.0  0.69549  0.64986  0.35440  1.0000
  O   O26       1.0  0.58723  0.63216  0.33326  1.0000
  H   H38       1.0  0.72172  0.63765  0.34778  1.0000
  H   H39       1.0  0.84096  0.76378  0.31117  1.0000
  H   H40       1.0  0.57905  0.62481  0.39400  1.0000
  H   H41       1.0  0.77562  0.66380  0.37660  1.0000
  H   H42       1.0  0.65510  0.71969  0.40838  1.0000
  C   C71       1.0  0.84665  0.69026  0.37372  1.0000
  C   C72       1.0  0.76191  0.78920  0.38017  1.0000
  C   C73       1.0  0.58300  0.69619  0.38624  1.0000
  C   C74       1.0  0.66013  0.59812  0.33949  1.0000
  H   H43       1.0  0.63293  0.58726  0.33363  1.0000
  H   H44       1.0  0.84742  0.66609  0.36472  1.0000
  H   H45       1.0  0.73464  0.79943  0.36366  1.0000
  H   H46       1.0  0.58274  0.71502  0.42892  1.0000
  C   C75       1.0  0.75273  0.32161  0.35923  1.0000
  C   C76       1.0  0.75754  0.28776  0.37534  1.0000
  C   C77       1.0  0.79578  0.27276  0.38736  1.0000
  C   C78       1.0  0.83055  0.29188  0.37677  1.0000
  C   C79       1.0  0.82826  0.32519  0.35553  1.0000
  C   C80       1.0  0.78924  0.33891  0.34676  1.0000
  H   H47       1.0  0.73316  0.27417  0.39107  1.0000
  O   O27       1.0  0.86709  0.27688  0.38239  1.0000
  C   C81       1.0  0.71419  0.33775  0.36300  1.0000
  C   C82       1.0  0.67667  0.32157  0.35290  1.0000
  C   C83       1.0  0.63878  0.33570  0.37066  1.0000
  C   C84       1.0  0.63851  0.36805  0.39732  1.0000
  C   C85       1.0  0.67407  0.38680  0.39680  1.0000
  C   C86       1.0  0.71086  0.37121  0.38000  1.0000
  O   O28       1.0  0.60241  0.38272  0.41145  1.0000
  H   H48       1.0  0.73601  0.38471  0.38781  1.0000
  H   H49       1.0  0.87182  0.26835  0.32217  1.0000
  H   H50       1.0  0.59241  0.39111  0.35202  1.0000
  H   H51       1.0  0.67661  0.29839  0.33291  1.0000
  C   C87       1.0  0.80170  0.24118  0.42390  1.0000
  C   C88       1.0  0.60180  0.31995  0.35204  1.0000
  C   C89       1.0  0.67079  0.42029  0.40948  1.0000
  H   H52       1.0  0.64333  0.42796  0.42629  1.0000
  H   H53       1.0  0.82552  0.23873  0.46821  1.0000
  C   C90       1.0  0.19731  0.70666  0.35886  1.0000
  C   C91       1.0  0.19262  0.74017  0.37448  1.0000
  C   C92       1.0  0.15456  0.75477  0.38642  1.0000
  C   C93       1.0  0.11969  0.73569  0.37616  1.0000
  C   C94       1.0  0.12172  0.70282  0.35548  1.0000
  C   C95       1.0  0.16063  0.68945  0.34681  1.0000
  H   H54       1.0  0.21728  0.75362  0.38936  1.0000
  O   O29       1.0  0.08315  0.75043  0.38087  1.0000
  C   C96       1.0  0.23601  0.69055  0.36285  1.0000
  C   C97       1.0  0.27327  0.70701  0.35273  1.0000
  C   C98       1.0  0.31158  0.69258  0.37079  1.0000
  C   C99       1.0  0.31251  0.65970  0.39804  1.0000
  C   C100      1.0  0.27700  0.64089  0.39766  1.0000
  C   C101      1.0  0.23982  0.65674  0.38021  1.0000
  O   O30       1.0  0.34893  0.64475  0.41234  1.0000
  H   H55       1.0  0.21491  0.64303  0.38840  1.0000
  H   H56       1.0  0.07717  0.76004  0.32032  1.0000
  H   H57       1.0  0.35761  0.63754  0.35302  1.0000
  H   H58       1.0  0.27282  0.73062  0.33244  1.0000
  C   C102      1.0  0.14896  0.78574  0.42137  1.0000
  C   C103      1.0  0.34814  0.70874  0.35191  1.0000
  C   C104      1.0  0.28061  0.60715  0.41098  1.0000
  H   H59       1.0  0.30832  0.59918  0.42924  1.0000
  H   H60       1.0  0.12577  0.78727  0.46487  1.0000
  C   C105      1.0  0.15272  0.18692  0.41308  1.0000
  C   C106      1.0  0.11978  0.17606  0.46433  1.0000
  C   C107      1.0  0.10650  0.14438  0.45695  1.0000
  H   H61       1.0  0.08258  0.13738  0.49457  1.0000
  N   N15       1.0  0.09803  0.19492  0.52390  1.0000
  O   O31       1.0  0.12029  0.20722  0.58304  1.0000
  O   O32       1.0  0.07920  0.21646  0.48053  1.0000
  N   N16       1.0  0.16019  0.21881  0.41092  1.0000
  C   C108      1.0  0.79887  0.84047  0.41269  1.0000
  C   C109      1.0  0.83311  0.85014  0.46343  1.0000
  C   C110      1.0  0.84618  0.88199  0.45623  1.0000
  H   H62       1.0  0.87105  0.88810  0.49349  1.0000
  N   N17       1.0  0.85646  0.82987  0.52213  1.0000
  O   O33       1.0  0.83580  0.81597  0.58134  1.0000
  O   O34       1.0  0.87432  0.80955  0.47783  1.0000
  N   N18       1.0  0.79134  0.80862  0.41044  1.0000
  C   C111      1.0  0.84931  0.12242  0.38034  1.0000
  C   C112      1.0  0.86793  0.14828  0.42412  1.0000
  C   C113      1.0  0.84824  0.17842  0.42565  1.0000
  C   C114      1.0  0.81057  0.18467  0.38131  1.0000
  H   H63       1.0  0.86322  0.19632  0.45707  1.0000
  N   N19       1.0  0.90581  0.14315  0.46807  1.0000
  O   O35       1.0  0.90417  0.14763  0.55163  1.0000
  O   O36       1.0  0.93211  0.16122  0.43520  1.0000
  N   N20       1.0  0.86889  0.09353  0.38336  1.0000
  N   N21       1.0  0.79248  0.21442  0.37746  1.0000
  C   C115      1.0  0.10156  0.90577  0.38009  1.0000
  C   C116      1.0  0.08344  0.87885  0.42234  1.0000
  C   C117      1.0  0.10307  0.84863  0.42382  1.0000
  C   C118      1.0  0.14020  0.84343  0.38116  1.0000
  H   H64       1.0  0.08837  0.82999  0.45396  1.0000
  N   N22       1.0  0.04613  0.88292  0.46470  1.0000
  O   O37       1.0  0.04883  0.87631  0.54821  1.0000
  O   O38       1.0  0.01935  0.86575  0.43013  1.0000
  N   N23       1.0  0.08200  0.93457  0.38288  1.0000
  N   N24       1.0  0.15810  0.81372  0.37696  1.0000
  C   C119      1.0  0.25651  0.55125  0.38998  1.0000
  C   C120      1.0  0.29188  0.53245  0.40760  1.0000
  C   C121      1.0  0.29144  0.49921  0.39235  1.0000
  H   H65       1.0  0.31718  0.48662  0.40754  1.0000
  N   N25       1.0  0.32813  0.54561  0.44101  1.0000
  O   O39       1.0  0.33831  0.53423  0.51802  1.0000
  O   O40       1.0  0.35666  0.54250  0.38773  1.0000
  N   N26       1.0  0.25334  0.58404  0.39180  1.0000
  C   C122      1.0  0.69457  0.47665  0.38976  1.0000
  C   C123      1.0  0.65964  0.49505  0.40799  1.0000
  C   C124      1.0  0.65968  0.52863  0.39274  1.0000
  H   H66       1.0  0.63432  0.54087  0.40835  1.0000
  N   N27       1.0  0.62432  0.48115  0.44250  1.0000
  O   O41       1.0  0.61623  0.49088  0.51970  1.0000
  O   O42       1.0  0.59435  0.48540  0.38999  1.0000
  N   N28       1.0  0.69778  0.44382  0.39123  1.0000
  C   C125      1.0  0.02755  0.32783  0.37765  1.0000
  C   C126      1.0  0.00213  0.30164  0.39959  1.0000
  C   C127      1.0  0.96014  0.30518  0.39419  1.0000
  C   C128      1.0  0.94158  0.33424  0.36627  1.0000
  H   H67       1.0  0.94280  0.28577  0.41035  1.0000
  N   N29       1.0  0.01535  0.27091  0.42866  1.0000
  O   O43       1.0  0.03156  0.25676  0.36535  1.0000
  O   O44       1.0  0.03800  0.27211  0.49766  1.0000
  N   N30       1.0  0.06803  0.32251  0.38194  1.0000
  N   N31       1.0  0.90085  0.33319  0.36086  1.0000
  C   C129      1.0  0.92298  0.69992  0.37765  1.0000
  C   C130      1.0  0.94900  0.72556  0.39935  1.0000
  C   C131      1.0  0.99086  0.72196  0.39411  1.0000
  C   C132      1.0  0.00866  0.69342  0.36644  1.0000
  H   H68       1.0  0.00863  0.74097  0.41013  1.0000
  N   N32       1.0  0.93656  0.75576  0.42782  1.0000
  O   O45       1.0  0.91907  0.77120  0.36415  1.0000
  O   O46       1.0  0.91537  0.75328  0.49679  1.0000
  N   N33       1.0  0.88262  0.70531  0.38185  1.0000
  N   N34       1.0  0.04927  0.69441  0.36085  1.0000
  C   C133      1.0  0.44132  0.33155  0.35293  1.0000
  C   C134      1.0  0.52676  0.32457  0.38104  1.0000
  C   C135      1.0  0.50078  0.32551  0.45559  1.0000
  C   C136      1.0  0.45847  0.32666  0.44076  1.0000
  H   H69       1.0  0.44037  0.32769  0.49553  1.0000
  N   N35       1.0  0.51798  0.32499  0.54420  1.0000
  O   O47       1.0  0.50662  0.30108  0.59023  1.0000
  O   O48       1.0  0.50906  0.34989  0.58510  1.0000
  N   N36       1.0  0.40143  0.33845  0.33922  1.0000
  N   N37       1.0  0.56727  0.32643  0.39579  1.0000
  C   C137      1.0  0.50865  0.69712  0.35280  1.0000
  C   C138      1.0  0.42382  0.70355  0.38087  1.0000
  C   C139      1.0  0.45144  0.70113  0.45543  1.0000
  C   C140      1.0  0.49343  0.70026  0.44058  1.0000
  H   H70       1.0  0.51274  0.69814  0.49535  1.0000
  N   N38       1.0  0.43619  0.69989  0.54406  1.0000
  O   O49       1.0  0.44856  0.72290  0.58965  1.0000
  O   O50       1.0  0.44600  0.67418  0.58541  1.0000
  N   N39       1.0  0.54824  0.69052  0.33913  1.0000
  N   N40       1.0  0.38364  0.70139  0.39570  1.0000
