data_image0
_chemical_formula_structural       C2NHCH2C3HC4H4C3NHC6N2H4C6N2H4C3H2CH2C5H3CH3C5H3CH3C5H3CH3C5H3CH3C5H3CH3C3H3C3H2C3H2C3H2C3H2C3HC4H2CH3C3HC4H2CH3C3HC2HCH2C3HC4H2CH3C3HC4H2CH3C3HC4H2CH3
_chemical_formula_sum              "C120 N6 H96"
_cell_length_a       31.5515
_cell_length_b       31.5515
_cell_length_c       14.859
_cell_angle_alpha    90
_cell_angle_beta     90
_cell_angle_gamma    120

_space_group_name_H-M_alt    "P 1"
_space_group_IT_number       1

loop_
  _space_group_symop_operation_xyz
  'x, y, z'

loop_
  _atom_site_type_symbol
  _atom_site_label
  _atom_site_symmetry_multiplicity
  _atom_site_fract_x
  _atom_site_fract_y
  _atom_site_fract_z
  _atom_site_occupancy
  C   C1        1.0  0.03393  0.51964  0.33610  1.0000
  C   C2        1.0  0.06080  0.57079  0.31198  1.0000
  N   N1        1.0  0.03923  0.59285  0.26729  1.0000
  H   H1        1.0  0.05787  0.62660  0.24695  1.0000
  C   C3        1.0  0.06178  0.49809  0.36693  1.0000
  H   H2        1.0  0.04436  0.46215  0.38608  1.0000
  H   H3        1.0  0.11110  0.45290  0.27207  1.0000
  C   C4        1.0  0.11230  0.59886  0.32849  1.0000
  C   C5        1.0  0.14276  0.50117  0.38160  1.0000
  C   C6        1.0  0.13947  0.46662  0.31709  1.0000
  H   H4        1.0  0.13719  0.40300  0.20110  1.0000
  C   C7        1.0  0.13745  0.57460  0.35556  1.0000
  C   C8        1.0  0.11343  0.52392  0.37140  1.0000
  C   C9        1.0  0.14211  0.65098  0.32122  1.0000
  C   C10       1.0  0.14309  0.68054  0.39361  1.0000
  H   H5        1.0  0.11642  0.66520  0.44188  1.0000
  H   H6        1.0  0.14841  0.73904  0.52353  1.0000
  H   H7        1.0  0.00714  0.43599  0.24011  1.0000
  H   H8        1.0  0.00706  0.57367  0.24045  1.0000
  C   C11       1.0  0.98035  0.48985  0.33612  1.0000
  C   C12       1.0  0.90199  0.41062  0.32852  1.0000
  C   C13       1.0  0.95349  0.43870  0.31198  1.0000
  N   N2        1.0  0.97514  0.41664  0.26747  1.0000
  H   H9        1.0  0.95627  0.38302  0.24654  1.0000
  C   C14       1.0  0.52202  0.49286  0.33614  1.0000
  C   C15       1.0  0.60121  0.49367  0.32837  1.0000
  C   C16       1.0  0.57315  0.51712  0.31188  1.0000
  C   C17       1.0  0.49222  0.51666  0.33610  1.0000
  C   C18       1.0  0.44108  0.49237  0.31192  1.0000
  C   C19       1.0  0.41301  0.51580  0.32840  1.0000
  N   N3        1.0  0.59520  0.56082  0.26736  1.0000
  N   N4        1.0  0.41903  0.44872  0.26728  1.0000
  H   H10       1.0  0.57587  0.57349  0.24004  1.0000
  H   H11       1.0  0.62882  0.57556  0.24637  1.0000
  H   H12       1.0  0.38528  0.43361  0.24693  1.0000
  H   H13       1.0  0.43821  0.43572  0.24047  1.0000
  C   C20       1.0  0.51902  0.03155  0.33604  1.0000
  C   C21       1.0  0.51815  0.10991  0.32841  1.0000
  C   C22       1.0  0.49474  0.05841  0.31188  1.0000
  C   C23       1.0  0.49523  0.97796  0.33609  1.0000
  C   C24       1.0  0.51953  0.95111  0.31196  1.0000
  C   C25       1.0  0.49609  0.89960  0.32845  1.0000
  N   N5        1.0  0.45106  0.03681  0.26732  1.0000
  N   N6        1.0  0.56324  0.97274  0.26747  1.0000
  H   H14       1.0  0.43832  0.00475  0.24013  1.0000
  H   H15       1.0  0.43608  0.05551  0.24663  1.0000
  H   H16       1.0  0.57801  0.95390  0.24649  1.0000
  H   H17       1.0  0.57583  0.00471  0.24005  1.0000
  C   C26       1.0  0.17732  0.45509  0.30594  1.0000
  C   C27       1.0  0.29252  0.50349  0.27006  1.0000
  C   C28       1.0  0.34022  0.51157  0.25828  1.0000
  H   H18       1.0  0.28061  0.52077  0.22721  1.0000
  H   H19       1.0  0.36149  0.53491  0.20841  1.0000
  C   C29       1.0  0.17271  0.41989  0.23469  1.0000
  H   H20       1.0  0.17703  0.39063  0.26446  1.0000
  H   H21       1.0  0.20085  0.43845  0.18351  1.0000
  C   C30       1.0  0.51068  0.64395  0.38150  1.0000
  C   C31       1.0  0.54523  0.67523  0.31700  1.0000
  C   C32       1.0  0.55677  0.72461  0.30581  1.0000
  C   C33       1.0  0.50842  0.79151  0.27000  1.0000
  C   C34       1.0  0.50034  0.83112  0.25829  1.0000
  H   H22       1.0  0.49116  0.76235  0.22708  1.0000
  H   H23       1.0  0.47702  0.82910  0.20842  1.0000
  H   H24       1.0  0.55899  0.66060  0.27202  1.0000
  C   C35       1.0  0.59200  0.75521  0.23458  1.0000
  H   H25       1.0  0.60890  0.73657  0.20103  1.0000
  H   H26       1.0  0.62125  0.78877  0.26438  1.0000
  H   H27       1.0  0.57345  0.76478  0.18338  1.0000
  C   C36       1.0  0.36791  0.86915  0.38123  1.0000
  C   C37       1.0  0.33659  0.87239  0.31680  1.0000
  C   C38       1.0  0.28720  0.83456  0.30572  1.0000
  C   C39       1.0  0.22044  0.71930  0.27008  1.0000
  C   C40       1.0  0.18083  0.67160  0.25831  1.0000
  H   H28       1.0  0.24957  0.73128  0.22707  1.0000
  H   H29       1.0  0.18286  0.65036  0.20832  1.0000
  H   H30       1.0  0.35121  0.90081  0.27190  1.0000
  C   C41       1.0  0.25657  0.83917  0.23454  1.0000
  H   H31       1.0  0.27520  0.87468  0.20090  1.0000
  H   H32       1.0  0.22303  0.83488  0.26439  1.0000
  H   H33       1.0  0.24694  0.81100  0.18339  1.0000
  C   C42       1.0  0.87151  0.50830  0.38144  1.0000
  C   C43       1.0  0.87471  0.54280  0.31691  1.0000
  C   C44       1.0  0.83689  0.55439  0.30585  1.0000
  C   C45       1.0  0.72167  0.50591  0.27006  1.0000
  C   C46       1.0  0.67397  0.49780  0.25829  1.0000
  H   H34       1.0  0.73367  0.48881  0.22699  1.0000
  H   H35       1.0  0.65276  0.47465  0.20815  1.0000
  H   H36       1.0  0.90317  0.55668  0.27208  1.0000
  C   C47       1.0  0.84151  0.58963  0.23468  1.0000
  H   H37       1.0  0.87702  0.60651  0.20105  1.0000
  H   H38       1.0  0.83723  0.61889  0.26454  1.0000
  H   H39       1.0  0.81336  0.57110  0.18352  1.0000
  C   C48       1.0  0.50352  0.36557  0.38167  1.0000
  C   C49       1.0  0.46899  0.33429  0.31714  1.0000
  C   C50       1.0  0.45746  0.28491  0.30597  1.0000
  C   C51       1.0  0.50584  0.21809  0.27008  1.0000
  C   C52       1.0  0.51391  0.17847  0.25829  1.0000
  H   H40       1.0  0.52311  0.24727  0.22721  1.0000
  H   H41       1.0  0.53724  0.18052  0.20841  1.0000
  H   H42       1.0  0.45526  0.34892  0.27212  1.0000
  C   C53       1.0  0.42225  0.25431  0.23471  1.0000
  H   H43       1.0  0.40536  0.27295  0.20113  1.0000
  H   H44       1.0  0.39300  0.22074  0.26448  1.0000
  H   H45       1.0  0.44082  0.24475  0.18353  1.0000
  C   C54       1.0  0.64632  0.14040  0.38139  1.0000
  C   C55       1.0  0.67759  0.13710  0.31691  1.0000
  C   C56       1.0  0.72698  0.17495  0.30575  1.0000
  C   C57       1.0  0.79388  0.29020  0.27005  1.0000
  C   C58       1.0  0.83350  0.33791  0.25841  1.0000
  H   H46       1.0  0.76472  0.27834  0.22713  1.0000
  H   H47       1.0  0.83149  0.35923  0.20857  1.0000
  H   H48       1.0  0.66296  0.10872  0.27193  1.0000
  C   C59       1.0  0.75758  0.17032  0.23453  1.0000
  H   H49       1.0  0.73894  0.13479  0.20094  1.0000
  H   H50       1.0  0.79113  0.17463  0.26434  1.0000
  H   H51       1.0  0.76717  0.19846  0.18335  1.0000
  C   C60       1.0  0.95250  0.51140  0.36689  1.0000
  C   C61       1.0  0.90085  0.48555  0.37148  1.0000
  C   C62       1.0  0.87684  0.43487  0.35567  1.0000
  H   H52       1.0  0.96991  0.54734  0.38602  1.0000
  H   H53       1.0  0.83941  0.41513  0.36094  1.0000
  H   H54       1.0  0.17488  0.59433  0.36090  1.0000
  C   C63       1.0  0.50045  0.44346  0.36695  1.0000
  C   C64       1.0  0.52627  0.41764  0.37138  1.0000
  C   C65       1.0  0.57693  0.44426  0.35543  1.0000
  H   H55       1.0  0.46453  0.42497  0.38620  1.0000
  H   H56       1.0  0.59666  0.42655  0.36076  1.0000
  C   C66       1.0  0.43727  0.56522  0.35543  1.0000
  C   C67       1.0  0.48795  0.59188  0.37121  1.0000
  C   C68       1.0  0.51379  0.56607  0.36683  1.0000
  H   H57       1.0  0.41753  0.58290  0.36078  1.0000
  H   H58       1.0  0.54972  0.58458  0.38601  1.0000
  C   C69       1.0  0.56843  0.05941  0.36681  1.0000
  C   C70       1.0  0.59424  0.11106  0.37118  1.0000
  C   C71       1.0  0.56757  0.13507  0.35545  1.0000
  H   H59       1.0  0.58696  0.04201  0.38596  1.0000
  H   H60       1.0  0.58526  0.17250  0.36074  1.0000
  C   C72       1.0  0.44666  0.87444  0.35545  1.0000
  C   C73       1.0  0.42000  0.89846  0.37116  1.0000
  C   C74       1.0  0.44581  0.95011  0.36676  1.0000
  H   H61       1.0  0.42897  0.83701  0.36072  1.0000
  H   H62       1.0  0.42728  0.96752  0.38590  1.0000
  C   C75       1.0  0.21973  0.47852  0.36159  1.0000
  C   C76       1.0  0.22168  0.51101  0.42920  1.0000
  C   C77       1.0  0.18371  0.52164  0.43977  1.0000
  H   H63       1.0  0.18848  0.54810  0.48509  1.0000
  C   C78       1.0  0.26358  0.47676  0.34465  1.0000
  C   C79       1.0  0.36091  0.49349  0.32112  1.0000
  C   C80       1.0  0.33127  0.46481  0.39340  1.0000
  C   C81       1.0  0.28298  0.45618  0.40630  1.0000
  H   H64       1.0  0.34665  0.45358  0.44176  1.0000
  H   H65       1.0  0.25244  0.52990  0.46788  1.0000
  C   C82       1.0  0.25425  0.42736  0.48567  1.0000
  H   H66       1.0  0.21905  0.39721  0.46342  1.0000
  H   H67       1.0  0.24783  0.45055  0.53156  1.0000
  H   H68       1.0  0.27284  0.41171  0.52345  1.0000
  C   C83       1.0  0.53328  0.74358  0.36136  1.0000
  C   C84       1.0  0.50082  0.71306  0.42901  1.0000
  C   C85       1.0  0.49015  0.66445  0.43951  1.0000
  H   H69       1.0  0.46379  0.64277  0.48499  1.0000
  C   C86       1.0  0.53520  0.78927  0.34450  1.0000
  C   C87       1.0  0.51842  0.86980  0.32131  1.0000
  C   C88       1.0  0.54706  0.86884  0.39361  1.0000
  C   C89       1.0  0.55571  0.82918  0.40632  1.0000
  H   H70       1.0  0.55830  0.89545  0.44195  1.0000
  H   H71       1.0  0.48196  0.72494  0.46776  1.0000
  C   C90       1.0  0.58452  0.82921  0.48565  1.0000
  H   H72       1.0  0.61469  0.82421  0.46334  1.0000
  H   H73       1.0  0.56134  0.79955  0.53145  1.0000
  H   H74       1.0  0.60014  0.86341  0.52355  1.0000
  C   C91       1.0  0.26826  0.79215  0.36138  1.0000
  C   C92       1.0  0.29879  0.79022  0.42902  1.0000
  C   C93       1.0  0.34743  0.82814  0.43931  1.0000
  H   H75       1.0  0.36913  0.82347  0.48477  1.0000
  C   C94       1.0  0.22261  0.74832  0.34452  1.0000
  C   C95       1.0  0.18270  0.72888  0.40632  1.0000
  H   H76       1.0  0.28698  0.75946  0.46765  1.0000
  C   C96       1.0  0.18260  0.75765  0.48563  1.0000
  H   H77       1.0  0.18754  0.79280  0.46328  1.0000
  H   H78       1.0  0.21228  0.76419  0.53143  1.0000
  C   C97       1.0  0.79449  0.53095  0.36152  1.0000
  C   C98       1.0  0.79256  0.49846  0.42912  1.0000
  C   C99       1.0  0.83049  0.48775  0.43946  1.0000
  H   H79       1.0  0.82583  0.46144  0.48504  1.0000
  C   C100      1.0  0.75062  0.53268  0.34460  1.0000
  C   C101      1.0  0.65331  0.51595  0.32105  1.0000
  C   C102      1.0  0.68290  0.54458  0.39342  1.0000
  C   C103      1.0  0.73120  0.55322  0.40631  1.0000
  H   H80       1.0  0.66752  0.55581  0.44176  1.0000
  H   H81       1.0  0.76182  0.47955  0.46783  1.0000
  C   C104      1.0  0.75991  0.58203  0.48569  1.0000
  H   H82       1.0  0.79511  0.61220  0.46346  1.0000
  H   H83       1.0  0.76636  0.55884  0.53155  1.0000
  H   H84       1.0  0.74131  0.59765  0.52350  1.0000
  C   C105      1.0  0.48088  0.26592  0.36162  1.0000
  C   C106      1.0  0.51338  0.29647  0.42923  1.0000
  C   C107      1.0  0.52400  0.34506  0.43978  1.0000
  H   H85       1.0  0.55046  0.36676  0.48509  1.0000
  C   C108      1.0  0.47913  0.22031  0.34468  1.0000
  C   C109      1.0  0.49584  0.13971  0.32114  1.0000
  C   C110      1.0  0.46718  0.14067  0.39345  1.0000
  C   C111      1.0  0.45856  0.18034  0.40635  1.0000
  H   H86       1.0  0.45596  0.11407  0.44182  1.0000
  H   H87       1.0  0.53228  0.28461  0.46789  1.0000
  C   C112      1.0  0.42975  0.18025  0.48574  1.0000
  H   H88       1.0  0.39960  0.18530  0.46351  1.0000
  H   H89       1.0  0.45295  0.20987  0.53161  1.0000
  H   H90       1.0  0.41411  0.14602  0.52353  1.0000
  C   C113      1.0  0.74593  0.21739  0.36133  1.0000
  C   C114      1.0  0.71542  0.21933  0.42898  1.0000
  C   C115      1.0  0.66680  0.18140  0.43946  1.0000
  H   H91       1.0  0.64512  0.18607  0.48495  1.0000
  C   C116      1.0  0.79163  0.26116  0.34450  1.0000
  C   C117      1.0  0.87221  0.35850  0.32141  1.0000
  C   C118      1.0  0.87121  0.32883  0.39361  1.0000
  C   C119      1.0  0.83154  0.28052  0.40630  1.0000
  H   H92       1.0  0.89783  0.34418  0.44197  1.0000
  H   H93       1.0  0.72730  0.25006  0.46776  1.0000
  C   C120      1.0  0.83157  0.25171  0.48559  1.0000
  H   H94       1.0  0.82656  0.21654  0.46323  1.0000
  H   H95       1.0  0.80191  0.24523  0.53140  1.0000
  H   H96       1.0  0.86577  0.27027  0.52349  1.0000
