data_image0
_chemical_formula_structural       C2OCHC2OCH3C4HC3HC3N2C3OH4C6O2H4C6O2H4CHCNHCNCNHCNHCNHC3HO2C3HOC3OHC3HOC3OHCNCHC2NCHC2NHC2NCHC2NCHC2NCHC3OH4C6O2H4C6O2H4CHCNHCNCNHCNHCNHC3HO2C3HOC3OHC3HOC3OHCNCHC2NCHC2NHC2NCHC2NCHC2NCHC6O2H3C6O2H4C6O2H4CNHCNHCNHCNHCNHCNHC3HOC3OHC3HOC3OHC3HOC3OHC2NCHC2NCHC2NCHC2NCHC2NCHC2NCHC6O2H3C6O2H4C6O2H4CNHCNHCNHCNHCNHCNHC3HOC3OHC3HOC3OHC3HOC3OHC2NCHC2NCHC2NCHC2NCHC2NCHC2NCH
_chemical_formula_sum              "C240 O48 H120 N48"
_cell_length_a       46.0691
_cell_length_b       46.069
_cell_length_c       14.9341
_cell_angle_alpha    90
_cell_angle_beta     90
_cell_angle_gamma    120

_space_group_name_H-M_alt    "P 1"
_space_group_IT_number       1

loop_
  _space_group_symop_operation_xyz
  'x, y, z'

loop_
  _atom_site_type_symbol
  _atom_site_label
  _atom_site_symmetry_multiplicity
  _atom_site_fract_x
  _atom_site_fract_y
  _atom_site_fract_z
  _atom_site_occupancy
  C   C1        1.0  0.02145  0.26129  0.31692  1.0000
  C   C2        1.0  0.04162  0.29723  0.30912  1.0000
  O   O1        1.0  0.02959  0.31675  0.27616  1.0000
  C   C3        1.0  0.03990  0.24443  0.33374  1.0000
  H   H1        1.0  0.02801  0.21933  0.34496  1.0000
  C   C4        1.0  0.02145  0.76129  0.31692  1.0000
  C   C5        1.0  0.04162  0.79723  0.30912  1.0000
  O   O2        1.0  0.02959  0.81675  0.27616  1.0000
  C   C6        1.0  0.03990  0.74443  0.33374  1.0000
  H   H2        1.0  0.02801  0.71933  0.34496  1.0000
  H   H3        1.0  0.02530  0.31140  0.21206  1.0000
  H   H4        1.0  0.02530  0.81140  0.21206  1.0000
  C   C7        1.0  0.07588  0.31497  0.33488  1.0000
  C   C8        1.0  0.07485  0.26108  0.34715  1.0000
  C   C9        1.0  0.07588  0.81497  0.33488  1.0000
  C   C10       1.0  0.07485  0.76108  0.34715  1.0000
  H   H5        1.0  0.09805  0.36389  0.20737  1.0000
  C   C11       1.0  0.09228  0.29643  0.35071  1.0000
  C   C12       1.0  0.09291  0.24378  0.35533  1.0000
  C   C13       1.0  0.09510  0.35030  0.34456  1.0000
  H   H6        1.0  0.09805  0.86389  0.20737  1.0000
  C   C14       1.0  0.09228  0.79643  0.35071  1.0000
  C   C15       1.0  0.09291  0.74378  0.35533  1.0000
  C   C16       1.0  0.09510  0.85031  0.34456  1.0000
  N   N1        1.0  0.10482  0.23807  0.27757  1.0000
  N   N2        1.0  0.10481  0.73807  0.27757  1.0000
  C   C17       1.0  0.48511  0.24306  0.31707  1.0000
  C   C18       1.0  0.43067  0.18939  0.33533  1.0000
  C   C19       1.0  0.46492  0.20711  0.30936  1.0000
  O   O3        1.0  0.47692  0.18758  0.27631  1.0000
  H   H7        1.0  0.98116  0.19291  0.21220  1.0000
  H   H8        1.0  0.52530  0.31140  0.21206  1.0000
  H   H9        1.0  0.37192  0.18829  0.29616  1.0000
  H   H10       1.0  0.13462  0.31609  0.29530  1.0000
  C   C20       1.0  0.26242  0.24316  0.31710  1.0000
  C   C21       1.0  0.31606  0.24235  0.33502  1.0000
  C   C22       1.0  0.29835  0.25890  0.30916  1.0000
  C   C23       1.0  0.24422  0.26130  0.31709  1.0000
  C   C24       1.0  0.20829  0.24558  0.30918  1.0000
  C   C25       1.0  0.19059  0.26213  0.33506  1.0000
  O   O4        1.0  0.31788  0.29043  0.27608  1.0000
  O   O5        1.0  0.18875  0.21404  0.27617  1.0000
  H   H11       1.0  0.31250  0.28934  0.21200  1.0000
  H   H12       1.0  0.19412  0.21510  0.21209  1.0000
  H   H13       1.0  0.31716  0.18474  0.29559  1.0000
  H   H14       1.0  0.18946  0.31972  0.29572  1.0000
  C   C26       1.0  0.26240  0.02037  0.31696  1.0000
  C   C27       1.0  0.26320  0.07481  0.33510  1.0000
  C   C28       1.0  0.24666  0.04057  0.30913  1.0000
  C   C29       1.0  0.24426  0.48403  0.31714  1.0000
  C   C30       1.0  0.26000  0.46383  0.30946  1.0000
  C   C31       1.0  0.24347  0.42961  0.33562  1.0000
  O   O6        1.0  0.21514  0.02858  0.27605  1.0000
  O   O7        1.0  0.29152  0.47580  0.27638  1.0000
  H   H15       1.0  0.21622  0.52429  0.21196  1.0000
  H   H16       1.0  0.29043  0.98006  0.21227  1.0000
  H   H17       1.0  0.32079  0.13357  0.29610  1.0000
  H   H18       1.0  0.18582  0.37082  0.29698  1.0000
  C   C32       1.0  0.13348  0.23642  0.27023  1.0000
  H   H19       1.0  0.14170  0.23514  0.20760  1.0000
  C   C33       1.0  0.26903  0.39823  0.27053  1.0000
  N   N3        1.0  0.26735  0.36790  0.27789  1.0000
  H   H20       1.0  0.27013  0.40766  0.20791  1.0000
  C   C34       1.0  0.10742  0.37208  0.27010  1.0000
  N   N4        1.0  0.13775  0.40070  0.27789  1.0000
  C   C35       1.0  0.37316  0.26797  0.27022  1.0000
  N   N5        1.0  0.40178  0.26625  0.27791  1.0000
  H   H21       1.0  0.36496  0.26917  0.20750  1.0000
  C   C36       1.0  0.23756  0.10626  0.27027  1.0000
  N   N6        1.0  0.23923  0.13658  0.27778  1.0000
  H   H22       1.0  0.23637  0.09684  0.20758  1.0000
  C   C37       1.0  0.39918  0.13232  0.27025  1.0000
  N   N7        1.0  0.36887  0.10365  0.27770  1.0000
  H   H23       1.0  0.40862  0.14057  0.20760  1.0000
  C   C38       1.0  0.46667  0.25993  0.33409  1.0000
  C   C39       1.0  0.43173  0.24329  0.34761  1.0000
  C   C40       1.0  0.41430  0.20794  0.35131  1.0000
  H   H24       1.0  0.47857  0.28503  0.34505  1.0000
  O   O8        1.0  0.38016  0.19133  0.35815  1.0000
  O   O9        1.0  0.12642  0.31305  0.35733  1.0000
  C   C41       1.0  0.24552  0.20785  0.33405  1.0000
  C   C42       1.0  0.26215  0.18952  0.34728  1.0000
  C   C43       1.0  0.29750  0.20742  0.35092  1.0000
  H   H25       1.0  0.22042  0.19466  0.34505  1.0000
  O   O10       1.0  0.31411  0.18989  0.35761  1.0000
  C   C44       1.0  0.20917  0.29706  0.35098  1.0000
  C   C45       1.0  0.24451  0.31495  0.34729  1.0000
  C   C46       1.0  0.26112  0.29661  0.33411  1.0000
  O   O11       1.0  0.19259  0.31462  0.35774  1.0000
  H   H26       1.0  0.28623  0.30979  0.34514  1.0000
  C   C47       1.0  0.29772  0.03880  0.33383  1.0000
  C   C48       1.0  0.31603  0.07375  0.34740  1.0000
  C   C49       1.0  0.29811  0.09117  0.35117  1.0000
  H   H27       1.0  0.31091  0.02689  0.34501  1.0000
  O   O12       1.0  0.31565  0.12531  0.35808  1.0000
  C   C50       1.0  0.20856  0.41326  0.35181  1.0000
  C   C51       1.0  0.19063  0.43067  0.34778  1.0000
  C   C52       1.0  0.20894  0.46560  0.33407  1.0000
  O   O13       1.0  0.19105  0.37913  0.35891  1.0000
  H   H28       1.0  0.19572  0.47751  0.34473  1.0000
  C   C53       1.0  0.11313  0.24969  0.43198  1.0000
  N   N8        1.0  0.14369  0.25267  0.42160  1.0000
  C   C54       1.0  0.15527  0.24606  0.34474  1.0000
  H   H29       1.0  0.10852  0.25849  0.48996  1.0000
  C   C55       1.0  0.26184  0.35029  0.35565  1.0000
  C   C56       1.0  0.25612  0.36471  0.43238  1.0000
  N   N9        1.0  0.25313  0.39230  0.42235  1.0000
  C   C57       1.0  0.25954  0.41034  0.34538  1.0000
  H   H30       1.0  0.24746  0.35134  0.49047  1.0000
  C   C58       1.0  0.15528  0.41262  0.35583  1.0000
  C   C59       1.0  0.14075  0.39232  0.43224  1.0000
  N   N10       1.0  0.11312  0.36178  0.42168  1.0000
  H   H31       1.0  0.15403  0.39687  0.49041  1.0000
  C   C60       1.0  0.41370  0.26059  0.35579  1.0000
  C   C61       1.0  0.39340  0.25479  0.43223  1.0000
  N   N11       1.0  0.36287  0.25188  0.42174  1.0000
  C   C62       1.0  0.35139  0.25846  0.34469  1.0000
  H   H32       1.0  0.39796  0.24602  0.49035  1.0000
  C   C63       1.0  0.24484  0.15418  0.35559  1.0000
  C   C64       1.0  0.25065  0.13975  0.43211  1.0000
  N   N12       1.0  0.25362  0.11215  0.42172  1.0000
  C   C65       1.0  0.24710  0.09403  0.34479  1.0000
  H   H33       1.0  0.25940  0.15310  0.49018  1.0000
  C   C66       1.0  0.35140  0.09178  0.35569  1.0000
  C   C67       1.0  0.36574  0.11195  0.43235  1.0000
  N   N13       1.0  0.39335  0.14252  0.42189  1.0000
  C   C68       1.0  0.41142  0.15405  0.34485  1.0000
  H   H34       1.0  0.35237  0.10734  0.49039  1.0000
  C   C69       1.0  0.48511  0.74306  0.31707  1.0000
  C   C70       1.0  0.43067  0.68939  0.33533  1.0000
  C   C71       1.0  0.46492  0.70711  0.30936  1.0000
  O   O14       1.0  0.47692  0.68758  0.27631  1.0000
  H   H35       1.0  0.98116  0.69291  0.21220  1.0000
  H   H36       1.0  0.52530  0.81140  0.21206  1.0000
  H   H37       1.0  0.37192  0.68829  0.29616  1.0000
  H   H38       1.0  0.13462  0.81610  0.29530  1.0000
  C   C72       1.0  0.26242  0.74316  0.31710  1.0000
  C   C73       1.0  0.31606  0.74235  0.33502  1.0000
  C   C74       1.0  0.29835  0.75890  0.30916  1.0000
  C   C75       1.0  0.24422  0.76130  0.31709  1.0000
  C   C76       1.0  0.20829  0.74558  0.30918  1.0000
  C   C77       1.0  0.19059  0.76213  0.33506  1.0000
  O   O15       1.0  0.31788  0.79043  0.27608  1.0000
  O   O16       1.0  0.18875  0.71404  0.27617  1.0000
  H   H39       1.0  0.31250  0.78934  0.21200  1.0000
  H   H40       1.0  0.19412  0.71510  0.21209  1.0000
  H   H41       1.0  0.31716  0.68474  0.29559  1.0000
  H   H42       1.0  0.18946  0.81973  0.29572  1.0000
  C   C78       1.0  0.26240  0.52037  0.31696  1.0000
  C   C79       1.0  0.26320  0.57481  0.33510  1.0000
  C   C80       1.0  0.24666  0.54057  0.30913  1.0000
  C   C81       1.0  0.24426  0.98403  0.31714  1.0000
  C   C82       1.0  0.26000  0.96383  0.30946  1.0000
  C   C83       1.0  0.24347  0.92961  0.33562  1.0000
  O   O17       1.0  0.21514  0.52858  0.27605  1.0000
  O   O18       1.0  0.29152  0.97580  0.27638  1.0000
  H   H43       1.0  0.21622  0.02429  0.21196  1.0000
  H   H44       1.0  0.29043  0.48006  0.21227  1.0000
  H   H45       1.0  0.32079  0.63357  0.29610  1.0000
  H   H46       1.0  0.18582  0.87082  0.29698  1.0000
  C   C84       1.0  0.13348  0.73642  0.27023  1.0000
  H   H47       1.0  0.14170  0.73514  0.20760  1.0000
  C   C85       1.0  0.26903  0.89823  0.27053  1.0000
  N   N14       1.0  0.26735  0.86791  0.27789  1.0000
  H   H48       1.0  0.27013  0.90766  0.20791  1.0000
  C   C86       1.0  0.10742  0.87208  0.27010  1.0000
  N   N15       1.0  0.13775  0.90070  0.27789  1.0000
  C   C87       1.0  0.37316  0.76797  0.27022  1.0000
  N   N16       1.0  0.40178  0.76625  0.27791  1.0000
  H   H49       1.0  0.36496  0.76917  0.20750  1.0000
  C   C88       1.0  0.23756  0.60626  0.27027  1.0000
  N   N17       1.0  0.23923  0.63658  0.27778  1.0000
  H   H50       1.0  0.23637  0.59684  0.20758  1.0000
  C   C89       1.0  0.39918  0.63232  0.27025  1.0000
  N   N18       1.0  0.36887  0.60365  0.27770  1.0000
  H   H51       1.0  0.40862  0.64057  0.20760  1.0000
  C   C90       1.0  0.46667  0.75992  0.33409  1.0000
  C   C91       1.0  0.43173  0.74329  0.34761  1.0000
  C   C92       1.0  0.41429  0.70794  0.35131  1.0000
  H   H52       1.0  0.47857  0.78504  0.34505  1.0000
  O   O19       1.0  0.38016  0.69133  0.35815  1.0000
  O   O20       1.0  0.12642  0.81306  0.35733  1.0000
  C   C93       1.0  0.24552  0.70785  0.33405  1.0000
  C   C94       1.0  0.26215  0.68952  0.34728  1.0000
  C   C95       1.0  0.29750  0.70742  0.35092  1.0000
  H   H53       1.0  0.22041  0.69466  0.34505  1.0000
  O   O21       1.0  0.31411  0.68989  0.35761  1.0000
  C   C96       1.0  0.20917  0.79706  0.35098  1.0000
  C   C97       1.0  0.24451  0.81495  0.34729  1.0000
  C   C98       1.0  0.26112  0.79661  0.33411  1.0000
  O   O22       1.0  0.19259  0.81462  0.35774  1.0000
  H   H54       1.0  0.28623  0.80979  0.34514  1.0000
  C   C99       1.0  0.29772  0.53880  0.33383  1.0000
  C   C100      1.0  0.31603  0.57375  0.34740  1.0000
  C   C101      1.0  0.29812  0.59118  0.35117  1.0000
  H   H55       1.0  0.31091  0.52690  0.34501  1.0000
  O   O23       1.0  0.31565  0.62531  0.35808  1.0000
  C   C102      1.0  0.20856  0.91326  0.35181  1.0000
  C   C103      1.0  0.19064  0.93067  0.34778  1.0000
  C   C104      1.0  0.20894  0.96561  0.33407  1.0000
  O   O24       1.0  0.19105  0.87913  0.35891  1.0000
  H   H56       1.0  0.19572  0.97751  0.34473  1.0000
  C   C105      1.0  0.11312  0.74969  0.43198  1.0000
  N   N19       1.0  0.14369  0.75267  0.42160  1.0000
  C   C106      1.0  0.15527  0.74606  0.34474  1.0000
  H   H57       1.0  0.10852  0.75849  0.48996  1.0000
  C   C107      1.0  0.26184  0.85029  0.35565  1.0000
  C   C108      1.0  0.25612  0.86470  0.43238  1.0000
  N   N20       1.0  0.25313  0.89230  0.42235  1.0000
  C   C109      1.0  0.25954  0.91034  0.34538  1.0000
  H   H58       1.0  0.24746  0.85134  0.49047  1.0000
  C   C110      1.0  0.15528  0.91262  0.35583  1.0000
  C   C111      1.0  0.14074  0.89231  0.43224  1.0000
  N   N21       1.0  0.11312  0.86178  0.42168  1.0000
  H   H59       1.0  0.15403  0.89687  0.49041  1.0000
  C   C112      1.0  0.41370  0.76059  0.35579  1.0000
  C   C113      1.0  0.39340  0.75479  0.43223  1.0000
  N   N22       1.0  0.36287  0.75188  0.42174  1.0000
  C   C114      1.0  0.35139  0.75846  0.34469  1.0000
  H   H60       1.0  0.39796  0.74603  0.49035  1.0000
  C   C115      1.0  0.24484  0.65419  0.35559  1.0000
  C   C116      1.0  0.25065  0.63975  0.43211  1.0000
  N   N23       1.0  0.25362  0.61215  0.42172  1.0000
  C   C117      1.0  0.24710  0.59404  0.34479  1.0000
  H   H61       1.0  0.25940  0.65310  0.49018  1.0000
  C   C118      1.0  0.35140  0.59179  0.35569  1.0000
  C   C119      1.0  0.36574  0.61196  0.43235  1.0000
  N   N24       1.0  0.39335  0.64251  0.42189  1.0000
  C   C120      1.0  0.41142  0.65405  0.34485  1.0000
  H   H62       1.0  0.35237  0.60735  0.49039  1.0000
  C   C121      1.0  0.98511  0.24306  0.31707  1.0000
  C   C122      1.0  0.93067  0.18939  0.33533  1.0000
  C   C123      1.0  0.96492  0.20711  0.30936  1.0000
  C   C124      1.0  0.52145  0.26129  0.31692  1.0000
  C   C125      1.0  0.54162  0.29723  0.30912  1.0000
  C   C126      1.0  0.57588  0.31497  0.33488  1.0000
  O   O25       1.0  0.97692  0.18758  0.27631  1.0000
  O   O26       1.0  0.52959  0.31675  0.27616  1.0000
  H   H63       1.0  0.48116  0.19291  0.21220  1.0000
  H   H64       1.0  0.87192  0.18829  0.29616  1.0000
  H   H65       1.0  0.63462  0.31609  0.29530  1.0000
  C   C127      1.0  0.76242  0.24316  0.31710  1.0000
  C   C128      1.0  0.81606  0.24235  0.33502  1.0000
  C   C129      1.0  0.79835  0.25890  0.30916  1.0000
  C   C130      1.0  0.74422  0.26130  0.31709  1.0000
  C   C131      1.0  0.70829  0.24558  0.30918  1.0000
  C   C132      1.0  0.69059  0.26213  0.33506  1.0000
  O   O27       1.0  0.81788  0.29043  0.27608  1.0000
  O   O28       1.0  0.68875  0.21404  0.27617  1.0000
  H   H66       1.0  0.81250  0.28934  0.21200  1.0000
  H   H67       1.0  0.69412  0.21510  0.21209  1.0000
  H   H68       1.0  0.81716  0.18474  0.29559  1.0000
  H   H69       1.0  0.68946  0.31972  0.29572  1.0000
  C   C133      1.0  0.76240  0.02037  0.31696  1.0000
  C   C134      1.0  0.76319  0.07481  0.33510  1.0000
  C   C135      1.0  0.74666  0.04057  0.30913  1.0000
  C   C136      1.0  0.74426  0.48403  0.31714  1.0000
  C   C137      1.0  0.75999  0.46383  0.30946  1.0000
  C   C138      1.0  0.74347  0.42961  0.33562  1.0000
  O   O29       1.0  0.71514  0.02858  0.27605  1.0000
  O   O30       1.0  0.79152  0.47580  0.27638  1.0000
  H   H70       1.0  0.71622  0.52429  0.21196  1.0000
  H   H71       1.0  0.79043  0.98006  0.21227  1.0000
  H   H72       1.0  0.82079  0.13357  0.29610  1.0000
  H   H73       1.0  0.68582  0.37082  0.29698  1.0000
  C   C139      1.0  0.63348  0.23642  0.27023  1.0000
  N   N25       1.0  0.60481  0.23807  0.27757  1.0000
  H   H74       1.0  0.64170  0.23514  0.20760  1.0000
  C   C140      1.0  0.76903  0.39823  0.27053  1.0000
  N   N26       1.0  0.76735  0.36790  0.27789  1.0000
  H   H75       1.0  0.77013  0.40766  0.20791  1.0000
  C   C141      1.0  0.60742  0.37208  0.27010  1.0000
  N   N27       1.0  0.63775  0.40070  0.27789  1.0000
  H   H76       1.0  0.59805  0.36389  0.20737  1.0000
  C   C142      1.0  0.87316  0.26797  0.27022  1.0000
  N   N28       1.0  0.90178  0.26625  0.27791  1.0000
  H   H77       1.0  0.86496  0.26917  0.20750  1.0000
  C   C143      1.0  0.73756  0.10626  0.27027  1.0000
  N   N29       1.0  0.73923  0.13658  0.27778  1.0000
  H   H78       1.0  0.73637  0.09684  0.20758  1.0000
  C   C144      1.0  0.89918  0.13232  0.27025  1.0000
  N   N30       1.0  0.86887  0.10365  0.27770  1.0000
  H   H79       1.0  0.90862  0.14057  0.20760  1.0000
  C   C145      1.0  0.96667  0.25993  0.33409  1.0000
  C   C146      1.0  0.93173  0.24329  0.34761  1.0000
  C   C147      1.0  0.91429  0.20794  0.35131  1.0000
  H   H80       1.0  0.97857  0.28503  0.34505  1.0000
  O   O31       1.0  0.88016  0.19133  0.35815  1.0000
  C   C148      1.0  0.59228  0.29643  0.35071  1.0000
  C   C149      1.0  0.57485  0.26108  0.34715  1.0000
  C   C150      1.0  0.53990  0.24443  0.33374  1.0000
  O   O32       1.0  0.62642  0.31305  0.35733  1.0000
  H   H81       1.0  0.52801  0.21933  0.34496  1.0000
  C   C151      1.0  0.74552  0.20785  0.33405  1.0000
  C   C152      1.0  0.76215  0.18952  0.34728  1.0000
  C   C153      1.0  0.79749  0.20742  0.35092  1.0000
  H   H82       1.0  0.72042  0.19466  0.34505  1.0000
  O   O33       1.0  0.81410  0.18989  0.35761  1.0000
  C   C154      1.0  0.70917  0.29706  0.35098  1.0000
  C   C155      1.0  0.74451  0.31495  0.34729  1.0000
  C   C156      1.0  0.76112  0.29661  0.33411  1.0000
  O   O34       1.0  0.69259  0.31462  0.35774  1.0000
  H   H83       1.0  0.78623  0.30979  0.34514  1.0000
  C   C157      1.0  0.79772  0.03880  0.33383  1.0000
  C   C158      1.0  0.81603  0.07375  0.34740  1.0000
  C   C159      1.0  0.79812  0.09117  0.35117  1.0000
  H   H84       1.0  0.81091  0.02689  0.34501  1.0000
  O   O35       1.0  0.81565  0.12531  0.35808  1.0000
  C   C160      1.0  0.70856  0.41326  0.35181  1.0000
  C   C161      1.0  0.69063  0.43067  0.34778  1.0000
  C   C162      1.0  0.70894  0.46560  0.33407  1.0000
  O   O36       1.0  0.69105  0.37913  0.35891  1.0000
  H   H85       1.0  0.69572  0.47751  0.34473  1.0000
  C   C163      1.0  0.59291  0.24378  0.35533  1.0000
  C   C164      1.0  0.61312  0.24969  0.43198  1.0000
  N   N31       1.0  0.64369  0.25267  0.42160  1.0000
  C   C165      1.0  0.65527  0.24606  0.34474  1.0000
  H   H86       1.0  0.60852  0.25849  0.48996  1.0000
  C   C166      1.0  0.76184  0.35029  0.35565  1.0000
  C   C167      1.0  0.75612  0.36471  0.43238  1.0000
  N   N32       1.0  0.75313  0.39230  0.42235  1.0000
  C   C168      1.0  0.75954  0.41034  0.34538  1.0000
  H   H87       1.0  0.74746  0.35134  0.49047  1.0000
  C   C169      1.0  0.65528  0.41262  0.35583  1.0000
  C   C170      1.0  0.64074  0.39232  0.43224  1.0000
  N   N33       1.0  0.61312  0.36178  0.42168  1.0000
  C   C171      1.0  0.59510  0.35030  0.34456  1.0000
  H   H88       1.0  0.65403  0.39687  0.49041  1.0000
  C   C172      1.0  0.91370  0.26059  0.35579  1.0000
  C   C173      1.0  0.89340  0.25479  0.43223  1.0000
  N   N34       1.0  0.86287  0.25188  0.42174  1.0000
  C   C174      1.0  0.85139  0.25846  0.34469  1.0000
  H   H89       1.0  0.89796  0.24602  0.49035  1.0000
  C   C175      1.0  0.74484  0.15418  0.35559  1.0000
  C   C176      1.0  0.75065  0.13975  0.43211  1.0000
  N   N35       1.0  0.75362  0.11215  0.42172  1.0000
  C   C177      1.0  0.74710  0.09403  0.34479  1.0000
  H   H90       1.0  0.75941  0.15310  0.49018  1.0000
  C   C178      1.0  0.85140  0.09178  0.35569  1.0000
  C   C179      1.0  0.86574  0.11195  0.43235  1.0000
  N   N36       1.0  0.89335  0.14252  0.42189  1.0000
  C   C180      1.0  0.91142  0.15405  0.34485  1.0000
  H   H91       1.0  0.85237  0.10734  0.49039  1.0000
  C   C181      1.0  0.98511  0.74306  0.31707  1.0000
  C   C182      1.0  0.93067  0.68939  0.33533  1.0000
  C   C183      1.0  0.96492  0.70711  0.30936  1.0000
  C   C184      1.0  0.52145  0.76129  0.31692  1.0000
  C   C185      1.0  0.54162  0.79723  0.30912  1.0000
  C   C186      1.0  0.57588  0.81497  0.33488  1.0000
  O   O37       1.0  0.97692  0.68758  0.27631  1.0000
  O   O38       1.0  0.52959  0.81675  0.27616  1.0000
  H   H92       1.0  0.48116  0.69291  0.21220  1.0000
  H   H93       1.0  0.87192  0.68829  0.29616  1.0000
  H   H94       1.0  0.63462  0.81610  0.29530  1.0000
  C   C187      1.0  0.76242  0.74316  0.31710  1.0000
  C   C188      1.0  0.81606  0.74235  0.33502  1.0000
  C   C189      1.0  0.79835  0.75890  0.30916  1.0000
  C   C190      1.0  0.74422  0.76130  0.31709  1.0000
  C   C191      1.0  0.70829  0.74558  0.30918  1.0000
  C   C192      1.0  0.69059  0.76213  0.33506  1.0000
  O   O39       1.0  0.81788  0.79043  0.27608  1.0000
  O   O40       1.0  0.68875  0.71404  0.27617  1.0000
  H   H95       1.0  0.81250  0.78934  0.21200  1.0000
  H   H96       1.0  0.69412  0.71510  0.21209  1.0000
  H   H97       1.0  0.81716  0.68474  0.29559  1.0000
  H   H98       1.0  0.68946  0.81973  0.29572  1.0000
  C   C193      1.0  0.76240  0.52037  0.31696  1.0000
  C   C194      1.0  0.76319  0.57481  0.33510  1.0000
  C   C195      1.0  0.74666  0.54057  0.30913  1.0000
  C   C196      1.0  0.74426  0.98403  0.31714  1.0000
  C   C197      1.0  0.76000  0.96383  0.30946  1.0000
  C   C198      1.0  0.74347  0.92961  0.33562  1.0000
  O   O41       1.0  0.71514  0.52858  0.27605  1.0000
  O   O42       1.0  0.79152  0.97580  0.27638  1.0000
  H   H99       1.0  0.71622  0.02429  0.21196  1.0000
  H   H100      1.0  0.79043  0.48006  0.21227  1.0000
  H   H101      1.0  0.82079  0.63357  0.29610  1.0000
  H   H102      1.0  0.68582  0.87082  0.29698  1.0000
  C   C199      1.0  0.63348  0.73642  0.27023  1.0000
  N   N37       1.0  0.60481  0.73807  0.27757  1.0000
  H   H103      1.0  0.64170  0.73514  0.20760  1.0000
  C   C200      1.0  0.76903  0.89823  0.27053  1.0000
  N   N38       1.0  0.76735  0.86791  0.27789  1.0000
  H   H104      1.0  0.77013  0.90766  0.20791  1.0000
  C   C201      1.0  0.60742  0.87208  0.27010  1.0000
  N   N39       1.0  0.63775  0.90070  0.27789  1.0000
  H   H105      1.0  0.59805  0.86389  0.20737  1.0000
  C   C202      1.0  0.87316  0.76797  0.27022  1.0000
  N   N40       1.0  0.90178  0.76625  0.27791  1.0000
  H   H106      1.0  0.86496  0.76917  0.20750  1.0000
  C   C203      1.0  0.73756  0.60626  0.27027  1.0000
  N   N41       1.0  0.73923  0.63658  0.27778  1.0000
  H   H107      1.0  0.73637  0.59684  0.20758  1.0000
  C   C204      1.0  0.89918  0.63232  0.27025  1.0000
  N   N42       1.0  0.86887  0.60365  0.27770  1.0000
  H   H108      1.0  0.90862  0.64057  0.20760  1.0000
  C   C205      1.0  0.96667  0.75992  0.33409  1.0000
  C   C206      1.0  0.93173  0.74329  0.34761  1.0000
  C   C207      1.0  0.91429  0.70794  0.35131  1.0000
  H   H109      1.0  0.97857  0.78504  0.34505  1.0000
  O   O43       1.0  0.88016  0.69133  0.35815  1.0000
  C   C208      1.0  0.59228  0.79643  0.35071  1.0000
  C   C209      1.0  0.57485  0.76108  0.34715  1.0000
  C   C210      1.0  0.53990  0.74443  0.33374  1.0000
  O   O44       1.0  0.62642  0.81306  0.35733  1.0000
  H   H110      1.0  0.52801  0.71933  0.34496  1.0000
  C   C211      1.0  0.74552  0.70785  0.33405  1.0000
  C   C212      1.0  0.76215  0.68952  0.34728  1.0000
  C   C213      1.0  0.79749  0.70742  0.35092  1.0000
  H   H111      1.0  0.72041  0.69466  0.34505  1.0000
  O   O45       1.0  0.81410  0.68989  0.35761  1.0000
  C   C214      1.0  0.70917  0.79706  0.35098  1.0000
  C   C215      1.0  0.74451  0.81495  0.34729  1.0000
  C   C216      1.0  0.76112  0.79661  0.33411  1.0000
  O   O46       1.0  0.69259  0.81462  0.35774  1.0000
  H   H112      1.0  0.78623  0.80979  0.34514  1.0000
  C   C217      1.0  0.79772  0.53880  0.33383  1.0000
  C   C218      1.0  0.81603  0.57375  0.34740  1.0000
  C   C219      1.0  0.79812  0.59118  0.35117  1.0000
  H   H113      1.0  0.81091  0.52690  0.34501  1.0000
  O   O47       1.0  0.81565  0.62531  0.35808  1.0000
  C   C220      1.0  0.70856  0.91326  0.35181  1.0000
  C   C221      1.0  0.69063  0.93067  0.34778  1.0000
  C   C222      1.0  0.70894  0.96561  0.33407  1.0000
  O   O48       1.0  0.69105  0.87913  0.35891  1.0000
  H   H114      1.0  0.69572  0.97751  0.34473  1.0000
  C   C223      1.0  0.59291  0.74378  0.35533  1.0000
  C   C224      1.0  0.61313  0.74969  0.43198  1.0000
  N   N43       1.0  0.64369  0.75267  0.42160  1.0000
  C   C225      1.0  0.65526  0.74606  0.34474  1.0000
  H   H115      1.0  0.60852  0.75849  0.48996  1.0000
  C   C226      1.0  0.76184  0.85029  0.35565  1.0000
  C   C227      1.0  0.75612  0.86470  0.43238  1.0000
  N   N44       1.0  0.75313  0.89230  0.42235  1.0000
  C   C228      1.0  0.75954  0.91034  0.34538  1.0000
  H   H116      1.0  0.74746  0.85134  0.49047  1.0000
  C   C229      1.0  0.65528  0.91262  0.35583  1.0000
  C   C230      1.0  0.64074  0.89231  0.43224  1.0000
  N   N45       1.0  0.61312  0.86178  0.42168  1.0000
  C   C231      1.0  0.59510  0.85031  0.34456  1.0000
  H   H117      1.0  0.65403  0.89687  0.49041  1.0000
  C   C232      1.0  0.91369  0.76059  0.35579  1.0000
  C   C233      1.0  0.89340  0.75479  0.43223  1.0000
  N   N46       1.0  0.86287  0.75188  0.42174  1.0000
  C   C234      1.0  0.85139  0.75846  0.34469  1.0000
  H   H118      1.0  0.89796  0.74603  0.49035  1.0000
  C   C235      1.0  0.74484  0.65419  0.35559  1.0000
  C   C236      1.0  0.75065  0.63975  0.43211  1.0000
  N   N47       1.0  0.75362  0.61215  0.42172  1.0000
  C   C237      1.0  0.74710  0.59404  0.34479  1.0000
  H   H119      1.0  0.75940  0.65310  0.49018  1.0000
  C   C238      1.0  0.85140  0.59179  0.35569  1.0000
  C   C239      1.0  0.86574  0.61196  0.43235  1.0000
  N   N48       1.0  0.89334  0.64251  0.42189  1.0000
  C   C240      1.0  0.91142  0.65405  0.34485  1.0000
  H   H120      1.0  0.85237  0.60735  0.49039  1.0000
