data_image0
_chemical_formula_structural       C3NC3NC5NC5NC36H26C4H4C7H4NC7H4NC16H16CN3CN3
_chemical_formula_sum              "C88 N12 H54"
_cell_length_a       34.2759
_cell_length_b       34.2757
_cell_length_c       14.6521
_cell_angle_alpha    90
_cell_angle_beta     90
_cell_angle_gamma    90.1689

_space_group_name_H-M_alt    "P 1"
_space_group_IT_number       1

loop_
  _space_group_symop_operation_xyz
  'x, y, z'

loop_
  _atom_site_type_symbol
  _atom_site_label
  _atom_site_symmetry_multiplicity
  _atom_site_fract_x
  _atom_site_fract_y
  _atom_site_fract_z
  _atom_site_occupancy
  C   C1        1.0  0.11360  0.08594  0.33921  1.0000
  C   C2        1.0  0.08498  0.11424  0.33840  1.0000
  C   C3        1.0  0.04858  0.09577  0.33928  1.0000
  N   N1        1.0  0.05666  0.05697  0.34013  1.0000
  C   C4        1.0  0.09556  0.04931  0.33962  1.0000
  C   C5        1.0  0.11566  0.01290  0.33960  1.0000
  C   C6        1.0  0.09682  0.97583  0.33973  1.0000
  N   N2        1.0  0.05808  0.96791  0.34029  1.0000
  C   C7        1.0  0.05056  0.92909  0.33928  1.0000
  C   C8        1.0  0.08698  0.91092  0.33834  1.0000
  C   C9        1.0  0.11537  0.93960  0.33818  1.0000
  C   C10       1.0  0.01368  0.90985  0.33928  1.0000
  C   C11       1.0  0.97705  0.92950  0.33956  1.0000
  N   N3        1.0  0.96897  0.96830  0.33932  1.0000
  C   C12       1.0  0.93007  0.97593  0.33867  1.0000
  C   C13       1.0  0.91204  0.93929  0.33926  1.0000
  C   C14       1.0  0.94067  0.91100  0.33934  1.0000
  C   C15       1.0  0.90997  0.01233  0.33792  1.0000
  C   C16       1.0  0.92881  0.04940  0.33813  1.0000
  N   N4        1.0  0.96756  0.05735  0.33892  1.0000
  C   C17       1.0  0.97507  0.09617  0.33812  1.0000
  C   C18       1.0  0.93863  0.11431  0.33720  1.0000
  C   C19       1.0  0.91024  0.08562  0.33660  1.0000
  C   C20       1.0  0.01195  0.11545  0.33835  1.0000
  C   C21       1.0  0.01205  0.15733  0.33585  1.0000
  C   C22       1.0  0.00471  0.17746  0.25350  1.0000
  C   C23       1.0  0.00333  0.21855  0.25142  1.0000
  C   C24       1.0  0.00939  0.24124  0.33121  1.0000
  C   C25       1.0  0.00596  0.28312  0.32950  1.0000
  C   C26       1.0  0.99745  0.36703  0.32635  1.0000
  C   C27       1.0  0.97152  0.34223  0.27813  1.0000
  C   C28       1.0  0.97570  0.30137  0.27956  1.0000
  C   C29       1.0  0.86809  0.01167  0.33531  1.0000
  C   C30       1.0  0.84810  0.00368  0.25304  1.0000
  C   C31       1.0  0.80702  0.00197  0.25067  1.0000
  C   C32       1.0  0.78419  0.00837  0.33004  1.0000
  C   C33       1.0  0.74230  0.00483  0.32800  1.0000
  C   C34       1.0  0.72401  0.97430  0.27869  1.0000
  C   C35       1.0  0.68313  0.97006  0.27692  1.0000
  C   C36       1.0  0.65836  0.99619  0.32419  1.0000
  C   C37       1.0  0.01357  0.86799  0.33701  1.0000
  C   C38       1.0  0.01588  0.78407  0.33224  1.0000
  C   C39       1.0  0.01998  0.80674  0.25171  1.0000
  C   C40       1.0  0.01882  0.84783  0.25386  1.0000
  C   C41       1.0  0.01909  0.74215  0.33014  1.0000
  C   C42       1.0  0.04745  0.72369  0.27475  1.0000
  C   C43       1.0  0.05146  0.68282  0.27290  1.0000
  C   C44       1.0  0.02728  0.65819  0.32626  1.0000
  C   C45       1.0  0.15754  0.01351  0.33735  1.0000
  C   C46       1.0  0.17767  0.02107  0.25506  1.0000
  C   C47       1.0  0.21876  0.02246  0.25291  1.0000
  C   C48       1.0  0.24146  0.01615  0.33252  1.0000
  C   C49       1.0  0.28338  0.01930  0.33056  1.0000
  C   C50       1.0  0.36741  0.02701  0.32619  1.0000
  C   C51       1.0  0.34286  0.05328  0.27865  1.0000
  C   C52       1.0  0.30195  0.04949  0.28068  1.0000
  H   H1        1.0  0.35459  0.07575  0.24150  1.0000
  H   H2        1.0  0.28575  0.06979  0.24643  1.0000
  H   H3        1.0  0.23204  0.02788  0.19166  1.0000
  H   H4        1.0  0.16246  0.02591  0.19603  1.0000
  H   H5        1.0  0.14286  0.09175  0.33889  1.0000
  H   H6        1.0  0.09044  0.14356  0.33716  1.0000
  H   H7        1.0  0.03694  0.03703  0.34050  1.0000
  H   H8        1.0  0.98868  0.98824  0.33873  1.0000
  H   H9        1.0  0.14470  0.93437  0.33687  1.0000
  H   H10       1.0  0.09250  0.88163  0.33747  1.0000
  H   H11       1.0  0.02220  0.86301  0.19420  1.0000
  H   H12       1.0  0.02368  0.79345  0.18982  1.0000
  H   H13       1.0  0.93525  0.88167  0.33925  1.0000
  H   H14       1.0  0.88279  0.93347  0.33942  1.0000
  H   H15       1.0  0.93306  0.14358  0.33667  1.0000
  H   H16       1.0  0.88091  0.09084  0.33533  1.0000
  H   H17       1.0  0.86341  0.99869  0.19422  1.0000
  H   H18       1.0  0.79384  0.99621  0.18947  1.0000
  H   H19       1.0  0.67161  0.94734  0.24027  1.0000
  H   H20       1.0  0.74040  0.95406  0.24470  1.0000
  H   H21       1.0  0.95559  0.28495  0.24492  1.0000
  H   H22       1.0  0.94898  0.35372  0.24100  1.0000
  H   H23       1.0  0.99795  0.23183  0.19019  1.0000
  H   H24       1.0  0.99987  0.16225  0.19443  1.0000
  H   H25       1.0  0.06635  0.73996  0.23625  1.0000
  H   H26       1.0  0.07260  0.67119  0.23173  1.0000
  C   C53       1.0  0.99205  0.40751  0.32234  1.0000
  C   C54       1.0  0.61786  0.99073  0.31998  1.0000
  C   C55       1.0  0.03260  0.61774  0.32211  1.0000
  C   C56       1.0  0.40796  0.03193  0.32126  1.0000
  H   H27       1.0  0.96697  0.41727  0.29662  1.0000
  H   H28       1.0  0.41806  0.05665  0.29405  1.0000
  H   H29       1.0  0.05737  0.60795  0.29481  1.0000
  H   H30       1.0  0.60800  0.96562  0.29434  1.0000
  C   C57       1.0  0.01528  0.47184  0.33599  1.0000
  C   C58       1.0  0.01372  0.49196  0.25121  1.0000
  C   C59       1.0  0.00987  0.53352  0.25154  1.0000
  C   C60       1.0  0.00661  0.55349  0.16717  1.0000
  C   C61       1.0  0.00829  0.53318  0.08400  1.0000
  C   C62       1.0  0.01335  0.49260  0.08364  1.0000
  C   C63       1.0  0.01599  0.47215  0.16646  1.0000
  H   H31       1.0  0.00285  0.58304  0.16492  1.0000
  H   H32       1.0  0.00608  0.54800  0.02365  1.0000
  H   H33       1.0  0.01486  0.47790  0.02301  1.0000
  H   H34       1.0  0.01973  0.44260  0.16367  1.0000
  N   N5        1.0  0.01812  0.43306  0.34437  1.0000
  C   C64       1.0  0.55363  0.01391  0.33377  1.0000
  C   C65       1.0  0.53339  0.01216  0.24916  1.0000
  C   C66       1.0  0.49179  0.00848  0.24986  1.0000
  C   C67       1.0  0.47166  0.00509  0.16571  1.0000
  C   C68       1.0  0.49185  0.00648  0.08236  1.0000
  C   C69       1.0  0.53249  0.01136  0.08160  1.0000
  C   C70       1.0  0.55309  0.01414  0.16422  1.0000
  H   H35       1.0  0.44206  0.00147  0.16377  1.0000
  H   H36       1.0  0.47692  0.00419  0.02216  1.0000
  H   H37       1.0  0.54712  0.01267  0.02084  1.0000
  H   H38       1.0  0.58266  0.01777  0.16114  1.0000
  N   N6        1.0  0.59242  0.01677  0.34197  1.0000
  C   C71       1.0  0.01757  0.22077  0.41309  1.0000
  C   C72       1.0  0.01867  0.17961  0.41558  1.0000
  C   C73       1.0  0.03184  0.30793  0.37810  1.0000
  C   C74       1.0  0.02784  0.34896  0.37625  1.0000
  C   C75       1.0  0.80453  0.01707  0.41187  1.0000
  C   C76       1.0  0.84567  0.01853  0.41466  1.0000
  C   C77       1.0  0.67648  0.02684  0.37347  1.0000
  C   C78       1.0  0.71752  0.03091  0.37565  1.0000
  C   C79       1.0  0.00890  0.84579  0.41758  1.0000
  C   C80       1.0  0.00989  0.80464  0.41505  1.0000
  C   C81       1.0  0.99877  0.67643  0.38161  1.0000
  C   C82       1.0  0.99494  0.71747  0.38375  1.0000
  C   C83       1.0  0.17982  0.00672  0.41695  1.0000
  C   C84       1.0  0.22098  0.00785  0.41438  1.0000
  C   C85       1.0  0.30791  0.99311  0.37859  1.0000
  C   C86       1.0  0.34900  0.99672  0.37613  1.0000
  H   H39       1.0  0.36539  0.97696  0.41161  1.0000
  H   H40       1.0  0.29603  0.97049  0.41479  1.0000
  H   H41       1.0  0.23587  0.00379  0.47412  1.0000
  H   H42       1.0  0.16615  0.00129  0.47775  1.0000
  H   H43       1.0  0.00528  0.85952  0.47902  1.0000
  H   H44       1.0  0.00758  0.78982  0.47542  1.0000
  H   H45       1.0  0.85924  0.02421  0.47547  1.0000
  H   H46       1.0  0.78955  0.02120  0.47145  1.0000
  H   H47       1.0  0.72919  0.05376  0.41144  1.0000
  H   H48       1.0  0.65991  0.04652  0.40878  1.0000
  H   H49       1.0  0.02380  0.16594  0.47649  1.0000
  H   H50       1.0  0.02136  0.23565  0.47296  1.0000
  H   H51       1.0  0.04735  0.36556  0.41225  1.0000
  H   H52       1.0  0.05448  0.29629  0.41443  1.0000
  H   H53       1.0  0.97366  0.72921  0.42418  1.0000
  H   H54       1.0  0.98061  0.65994  0.42154  1.0000
  C   C87       1.0  0.00934  0.55349  0.33658  1.0000
  N   N7        1.0  0.01137  0.53166  0.41378  1.0000
  N   N8        1.0  0.01417  0.49354  0.41350  1.0000
  N   N9        1.0  0.00666  0.59226  0.34542  1.0000
  C   C88       1.0  0.47193  0.00825  0.33505  1.0000
  N   N10       1.0  0.49388  0.01044  0.41206  1.0000
  N   N11       1.0  0.53202  0.01312  0.41145  1.0000
  N   N12       1.0  0.43315  0.00581  0.34424  1.0000
