data_image0
_chemical_formula_structural       C3NC3NC5NC5NC36H26N4C3NC3NC5NC5NC36H26N4C3NC3NC5NC5NC36H26N4C3O2H2CHC3O2H2CHC3O2H2CHC3O2H2CHC3O2H2CHC3O2H2CHC16H16C16H16C16H16C3OHOHCHC3OHOHCHC3OHOHCHC3OHOHCHC3OHOHCHC3OHOHCH
_chemical_formula_sum              "C252 N24 H162 O24"
_cell_length_a       67.6057
_cell_length_b       67.6058
_cell_length_c       14.8822
_cell_angle_alpha    89.8354
_cell_angle_beta     90.1646
_cell_angle_gamma    120

_space_group_name_H-M_alt    "P 1"
_space_group_IT_number       1

loop_
  _space_group_symop_operation_xyz
  'x, y, z'

loop_
  _atom_site_type_symbol
  _atom_site_label
  _atom_site_symmetry_multiplicity
  _atom_site_fract_x
  _atom_site_fract_y
  _atom_site_fract_z
  _atom_site_occupancy
  C   C1        1.0  0.04785  0.50703  0.31998  1.0000
  C   C2        1.0  0.02424  0.49511  0.32119  1.0000
  C   C3        1.0  0.01661  0.51088  0.32138  1.0000
  N   N1        1.0  0.03583  0.53170  0.32062  1.0000
  C   C4        1.0  0.05521  0.53038  0.31991  1.0000
  C   C5        1.0  0.07844  0.54822  0.31923  1.0000
  C   C6        1.0  0.08575  0.57193  0.31998  1.0000
  N   N2        1.0  0.07273  0.58194  0.32073  1.0000
  C   C7        1.0  0.08551  0.60499  0.32166  1.0000
  C   C8        1.0  0.10825  0.61009  0.32142  1.0000
  C   C9        1.0  0.10840  0.58976  0.32048  1.0000
  C   C10       1.0  0.07792  0.62117  0.32244  1.0000
  C   C11       1.0  0.05461  0.61550  0.32149  1.0000
  N   N3        1.0  0.03539  0.59468  0.32064  1.0000
  C   C12       1.0  0.01601  0.59600  0.31993  1.0000
  C   C13       1.0  0.02337  0.61934  0.32008  1.0000
  C   C14       1.0  0.04698  0.63127  0.32137  1.0000
  C   C15       1.0  0.99278  0.57816  0.31917  1.0000
  C   C16       1.0  0.98547  0.55446  0.31988  1.0000
  N   N4        1.0  0.99849  0.54444  0.32054  1.0000
  C   C17       1.0  0.98571  0.52139  0.32155  1.0000
  C   C18       1.0  0.96297  0.51629  0.32148  1.0000
  C   C19       1.0  0.96282  0.53662  0.32053  1.0000
  C   C20       1.0  0.99329  0.50521  0.32230  1.0000
  C   C21       1.0  0.97609  0.48164  0.32447  1.0000
  C   C22       1.0  0.93786  0.43611  0.32794  1.0000
  C   C23       1.0  0.94835  0.44690  0.24583  1.0000
  C   C24       1.0  0.96708  0.46934  0.24394  1.0000
  C   C25       1.0  0.91792  0.41379  0.32934  1.0000
  C   C26       1.0  0.91596  0.39607  0.27280  1.0000
  C   C27       1.0  0.89618  0.37430  0.27306  1.0000
  C   C28       1.0  0.87751  0.36945  0.32977  1.0000
  C   C29       1.0  0.97538  0.58427  0.31770  1.0000
  C   C30       1.0  0.93734  0.59190  0.31593  1.0000
  C   C31       1.0  0.94626  0.58842  0.23518  1.0000
  C   C32       1.0  0.96494  0.58463  0.23590  1.0000
  C   C33       1.0  0.91766  0.59472  0.31540  1.0000
  C   C34       1.0  0.87791  0.59978  0.31615  1.0000
  C   C35       1.0  0.87917  0.58375  0.25956  1.0000
  C   C36       1.0  0.89863  0.58122  0.25931  1.0000
  C   C37       1.0  0.09511  0.64474  0.32464  1.0000
  C   C38       1.0  0.10375  0.65724  0.24419  1.0000
  C   C39       1.0  0.12233  0.67977  0.24605  1.0000
  C   C40       1.0  0.13302  0.69045  0.32804  1.0000
  C   C41       1.0  0.15274  0.71291  0.32938  1.0000
  C   C42       1.0  0.19268  0.75760  0.32990  1.0000
  C   C43       1.0  0.17375  0.75258  0.27414  1.0000
  C   C44       1.0  0.15420  0.73065  0.27382  1.0000
  C   C45       1.0  0.09585  0.54213  0.31773  1.0000
  C   C46       1.0  0.10615  0.54174  0.23584  1.0000
  C   C47       1.0  0.13420  0.53499  0.31589  1.0000
  C   C48       1.0  0.12497  0.53819  0.23509  1.0000
  C   C49       1.0  0.15409  0.53252  0.31532  1.0000
  C   C50       1.0  0.17292  0.54614  0.25866  1.0000
  C   C51       1.0  0.19260  0.54399  0.25894  1.0000
  C   C52       1.0  0.19430  0.52824  0.31617  1.0000
  H   H1        1.0  0.20587  0.55426  0.21732  1.0000
  H   H2        1.0  0.17274  0.55822  0.21763  1.0000
  H   H3        1.0  0.13197  0.53808  0.17438  1.0000
  H   H4        1.0  0.10034  0.54458  0.17633  1.0000
  H   H5        1.0  0.05781  0.49960  0.31962  1.0000
  H   H6        1.0  0.01445  0.47770  0.32161  1.0000
  H   H7        1.0  0.03573  0.54584  0.32074  1.0000
  H   H8        1.0  0.03548  0.58054  0.32070  1.0000
  H   H9        1.0  0.12285  0.58851  0.32035  1.0000
  H   H10       1.0  0.12258  0.62588  0.32174  1.0000
  H   H11       1.0  0.09701  0.64979  0.18351  1.0000
  H   H12       1.0  0.12862  0.68794  0.18611  1.0000
  H   H13       1.0  0.05677  0.64868  0.32187  1.0000
  H   H14       1.0  0.01341  0.62678  0.31969  1.0000
  H   H15       1.0  0.94864  0.50050  0.32197  1.0000
  H   H16       1.0  0.94837  0.53788  0.32059  1.0000
  H   H17       1.0  0.97055  0.58165  0.17642  1.0000
  H   H18       1.0  0.93917  0.58854  0.17452  1.0000
  H   H19       1.0  0.89850  0.56896  0.21878  1.0000
  H   H20       1.0  0.86575  0.57357  0.21834  1.0000
  H   H21       1.0  0.97363  0.47691  0.18321  1.0000
  H   H22       1.0  0.94177  0.43891  0.18587  1.0000
  H   H23       1.0  0.89561  0.36208  0.23122  1.0000
  H   H24       1.0  0.92913  0.39875  0.23140  1.0000
  H   H25       1.0  0.14081  0.72786  0.23320  1.0000
  H   H26       1.0  0.17394  0.76481  0.23310  1.0000
  N   N5        1.0  0.85808  0.34940  0.33397  1.0000
  N   N6        1.0  0.21352  0.52723  0.31206  1.0000
  N   N7        1.0  0.21190  0.77783  0.33416  1.0000
  N   N8        1.0  0.85889  0.60118  0.31193  1.0000
  C   C53       1.0  0.59337  0.63478  0.32220  1.0000
  C   C54       1.0  0.60529  0.62309  0.32336  1.0000
  C   C55       1.0  0.58952  0.59969  0.32351  1.0000
  N   N9        1.0  0.56871  0.59810  0.32281  1.0000
  C   C56       1.0  0.57003  0.61880  0.32212  1.0000
  C   C57       1.0  0.55219  0.62419  0.32142  1.0000
  C   C58       1.0  0.52848  0.60779  0.32213  1.0000
  N   N10       1.0  0.51847  0.58476  0.32287  1.0000
  C   C59       1.0  0.49541  0.57449  0.32375  1.0000
  C   C60       1.0  0.49031  0.59213  0.32347  1.0000
  C   C61       1.0  0.51064  0.61260  0.32256  1.0000
  C   C62       1.0  0.47923  0.55072  0.32450  1.0000
  C   C63       1.0  0.48490  0.53308  0.32359  1.0000
  N   N11       1.0  0.50572  0.53467  0.32278  1.0000
  C   C64       1.0  0.50440  0.51398  0.32209  1.0000
  C   C65       1.0  0.48105  0.49800  0.32223  1.0000
  C   C66       1.0  0.46913  0.50968  0.32351  1.0000
  C   C67       1.0  0.52223  0.50858  0.32135  1.0000
  C   C68       1.0  0.54594  0.52498  0.32203  1.0000
  N   N12       1.0  0.55595  0.54801  0.32269  1.0000
  C   C69       1.0  0.57901  0.55828  0.32361  1.0000
  C   C70       1.0  0.58410  0.54063  0.32349  1.0000
  C   C71       1.0  0.56377  0.52016  0.32261  1.0000
  C   C72       1.0  0.59519  0.58205  0.32434  1.0000
  C   C73       1.0  0.61876  0.58840  0.32636  1.0000
  C   C74       1.0  0.66430  0.59571  0.32949  1.0000
  C   C75       1.0  0.65347  0.59551  0.24747  1.0000
  C   C76       1.0  0.63103  0.59182  0.24575  1.0000
  C   C77       1.0  0.68661  0.59810  0.33070  1.0000
  C   C78       1.0  0.70431  0.61394  0.27408  1.0000
  C   C79       1.0  0.72608  0.61592  0.27414  1.0000
  C   C80       1.0  0.73095  0.60201  0.33068  1.0000
  C   C81       1.0  0.51612  0.48507  0.31988  1.0000
  C   C82       1.0  0.50850  0.43941  0.31814  1.0000
  C   C83       1.0  0.51197  0.45191  0.23738  1.0000
  C   C84       1.0  0.51575  0.47437  0.23808  1.0000
  C   C85       1.0  0.50568  0.41691  0.31762  1.0000
  C   C86       1.0  0.50062  0.37209  0.31836  1.0000
  C   C87       1.0  0.51664  0.38946  0.26175  1.0000
  C   C88       1.0  0.51919  0.41145  0.26156  1.0000
  C   C89       1.0  0.45566  0.54434  0.32656  1.0000
  C   C90       1.0  0.44318  0.54056  0.24603  1.0000
  C   C91       1.0  0.42066  0.53663  0.24773  1.0000
  C   C92       1.0  0.40994  0.53652  0.32964  1.0000
  C   C93       1.0  0.38748  0.53377  0.33080  1.0000
  C   C94       1.0  0.34280  0.52904  0.33083  1.0000
  C   C95       1.0  0.34784  0.51517  0.27525  1.0000
  C   C96       1.0  0.36977  0.51755  0.27519  1.0000
  C   C97       1.0  0.55828  0.64769  0.31992  1.0000
  C   C98       1.0  0.55867  0.65848  0.23804  1.0000
  C   C99       1.0  0.56541  0.69318  0.31810  1.0000
  C   C100      1.0  0.56222  0.68086  0.23730  1.0000
  C   C101      1.0  0.56788  0.71554  0.31755  1.0000
  C   C102      1.0  0.55426  0.72082  0.26088  1.0000
  C   C103      1.0  0.55641  0.74265  0.26116  1.0000
  C   C104      1.0  0.57215  0.76003  0.31839  1.0000
  H   H27       1.0  0.54614  0.74570  0.21952  1.0000
  H   H28       1.0  0.54219  0.70861  0.21984  1.0000
  H   H29       1.0  0.56234  0.68805  0.17659  1.0000
  H   H30       1.0  0.55583  0.64991  0.17853  1.0000
  H   H31       1.0  0.60080  0.65217  0.32177  1.0000
  H   H32       1.0  0.62270  0.63071  0.32368  1.0000
  H   H33       1.0  0.55456  0.58386  0.32287  1.0000
  H   H34       1.0  0.51986  0.54891  0.32281  1.0000
  H   H35       1.0  0.51189  0.62831  0.32241  1.0000
  H   H36       1.0  0.47452  0.59067  0.32372  1.0000
  H   H37       1.0  0.45066  0.54134  0.18541  1.0000
  H   H38       1.0  0.41249  0.53477  0.18774  1.0000
  H   H39       1.0  0.45172  0.50206  0.32398  1.0000
  H   H40       1.0  0.47362  0.48060  0.32189  1.0000
  H   H41       1.0  0.59989  0.54209  0.32392  1.0000
  H   H42       1.0  0.56252  0.50445  0.32263  1.0000
  H   H43       1.0  0.51873  0.48304  0.17860  1.0000
  H   H44       1.0  0.51185  0.44477  0.17672  1.0000
  H   H45       1.0  0.53143  0.42363  0.22096  1.0000
  H   H46       1.0  0.52683  0.38628  0.22054  1.0000
  H   H47       1.0  0.62344  0.59089  0.18508  1.0000
  H   H48       1.0  0.66146  0.59705  0.18745  1.0000
  H   H49       1.0  0.73828  0.62762  0.23224  1.0000
  H   H50       1.0  0.70162  0.62450  0.23283  1.0000
  H   H51       1.0  0.37258  0.50701  0.23463  1.0000
  H   H52       1.0  0.33563  0.50320  0.23412  1.0000
  N   N13       1.0  0.75100  0.60263  0.33462  1.0000
  N   N14       1.0  0.57317  0.78027  0.31427  1.0000
  N   N15       1.0  0.32257  0.52803  0.33479  1.0000
  N   N16       1.0  0.49922  0.35169  0.31414  1.0000
  C   C105      1.0  0.46562  0.05254  0.32353  1.0000
  C   C106      1.0  0.47730  0.07615  0.32482  1.0000
  C   C107      1.0  0.50070  0.08378  0.32510  1.0000
  N   N17       1.0  0.50230  0.06456  0.32436  1.0000
  C   C108      1.0  0.48160  0.04518  0.32352  1.0000
  C   C109      1.0  0.47621  0.02195  0.32275  1.0000
  C   C110      1.0  0.49261  0.01465  0.32361  1.0000
  N   N18       1.0  0.51565  0.02767  0.32446  1.0000
  C   C111      1.0  0.52592  0.01489  0.32547  1.0000
  C   C112      1.0  0.50828  0.99215  0.32519  1.0000
  C   C113      1.0  0.48780  0.99200  0.32410  1.0000
  C   C114      1.0  0.54969  0.02248  0.32625  1.0000
  C   C115      1.0  0.56732  0.04579  0.32521  1.0000
  N   N19       1.0  0.56573  0.06501  0.32437  1.0000
  C   C116      1.0  0.58642  0.08439  0.32351  1.0000
  C   C117      1.0  0.60240  0.07703  0.32357  1.0000
  C   C118      1.0  0.59073  0.05343  0.32497  1.0000
  C   C119      1.0  0.59182  0.10763  0.32271  1.0000
  C   C120      1.0  0.57541  0.11493  0.32353  1.0000
  N   N20       1.0  0.55238  0.10190  0.32427  1.0000
  C   C121      1.0  0.54211  0.11469  0.32529  1.0000
  C   C122      1.0  0.55975  0.13743  0.32517  1.0000
  C   C123      1.0  0.58023  0.13758  0.32415  1.0000
  C   C124      1.0  0.51834  0.10710  0.32605  1.0000
  C   C125      1.0  0.51198  0.12430  0.32813  1.0000
  C   C126      1.0  0.50467  0.16252  0.33143  1.0000
  C   C127      1.0  0.50486  0.15201  0.24937  1.0000
  C   C128      1.0  0.50855  0.13327  0.24756  1.0000
  C   C129      1.0  0.50228  0.18245  0.33272  1.0000
  C   C130      1.0  0.48644  0.18439  0.27616  1.0000
  C   C131      1.0  0.48446  0.20417  0.27626  1.0000
  C   C132      1.0  0.49837  0.22288  0.33279  1.0000
  C   C133      1.0  0.61532  0.12502  0.32094  1.0000
  C   C134      1.0  0.66097  0.16305  0.31850  1.0000
  C   C135      1.0  0.64840  0.15409  0.23793  1.0000
  C   C136      1.0  0.62594  0.13541  0.23897  1.0000
  C   C137      1.0  0.68347  0.18273  0.31763  1.0000
  C   C138      1.0  0.72830  0.22249  0.31761  1.0000
  C   C139      1.0  0.71087  0.22119  0.26130  1.0000
  C   C140      1.0  0.68888  0.20174  0.26144  1.0000
  C   C141      1.0  0.55607  0.00529  0.32840  1.0000
  C   C142      1.0  0.55987  0.99669  0.24791  1.0000
  C   C143      1.0  0.56380  0.97810  0.24967  1.0000
  C   C144      1.0  0.56389  0.96739  0.33160  1.0000
  C   C145      1.0  0.56664  0.94767  0.33281  1.0000
  C   C146      1.0  0.57137  0.90772  0.33293  1.0000
  C   C147      1.0  0.58523  0.92668  0.27732  1.0000
  C   C148      1.0  0.58285  0.94624  0.27721  1.0000
  C   C149      1.0  0.45271  0.00454  0.32097  1.0000
  C   C150      1.0  0.44200  0.99429  0.23893  1.0000
  C   C151      1.0  0.40723  0.96619  0.31847  1.0000
  C   C152      1.0  0.41962  0.97546  0.23785  1.0000
  C   C153      1.0  0.38487  0.94630  0.31757  1.0000
  C   C154      1.0  0.37964  0.92750  0.26079  1.0000
  C   C155      1.0  0.35780  0.90782  0.26074  1.0000
  C   C156      1.0  0.34036  0.90609  0.31768  1.0000
  H   H53       1.0  0.35479  0.89458  0.21902  1.0000
  H   H54       1.0  0.39188  0.92770  0.21996  1.0000
  H   H55       1.0  0.41250  0.96849  0.17703  1.0000
  H   H56       1.0  0.45062  0.00012  0.17954  1.0000
  H   H57       1.0  0.44822  0.04258  0.32304  1.0000
  H   H58       1.0  0.46968  0.08594  0.32519  1.0000
  H   H59       1.0  0.51654  0.06466  0.32453  1.0000
  H   H60       1.0  0.55148  0.06491  0.32451  1.0000
  H   H61       1.0  0.47210  0.97754  0.32392  1.0000
  H   H62       1.0  0.50975  0.97782  0.32547  1.0000
  H   H63       1.0  0.55907  0.00344  0.18726  1.0000
  H   H64       1.0  0.56563  0.97184  0.18969  1.0000
  H   H65       1.0  0.59835  0.04364  0.32547  1.0000
  H   H66       1.0  0.61980  0.08699  0.32314  1.0000
  H   H67       1.0  0.55829  0.15176  0.32564  1.0000
  H   H68       1.0  0.59593  0.15203  0.32414  1.0000
  H   H69       1.0  0.61722  0.12977  0.17961  1.0000
  H   H70       1.0  0.65549  0.16115  0.17716  1.0000
  H   H71       1.0  0.67666  0.20184  0.22108  1.0000
  H   H72       1.0  0.71401  0.23459  0.22002  1.0000
  H   H73       1.0  0.50948  0.12669  0.18687  1.0000
  H   H74       1.0  0.50332  0.15854  0.18938  1.0000
  H   H75       1.0  0.47275  0.20472  0.23441  1.0000
  H   H76       1.0  0.47587  0.17120  0.23489  1.0000
  H   H77       1.0  0.59340  0.95964  0.23666  1.0000
  H   H78       1.0  0.59721  0.92651  0.23623  1.0000
  N   N21       1.0  0.49776  0.24231  0.33676  1.0000
  N   N22       1.0  0.32012  0.88688  0.31322  1.0000
  N   N23       1.0  0.57237  0.88849  0.33692  1.0000
  N   N24       1.0  0.74870  0.24150  0.31305  1.0000
  C   C157      1.0  0.28422  0.51808  0.31076  1.0000
  C   C158      1.0  0.26938  0.51574  0.23877  1.0000
  C   C159      1.0  0.24892  0.51611  0.25423  1.0000
  O   O1        1.0  0.27397  0.51216  0.15305  1.0000
  O   O2        1.0  0.23461  0.51226  0.18338  1.0000
  H   H79       1.0  0.28406  0.52737  0.12728  1.0000
  H   H80       1.0  0.24018  0.52710  0.15347  1.0000
  C   C160      1.0  0.30332  0.51583  0.29452  1.0000
  H   H81       1.0  0.30190  0.50440  0.24932  1.0000
  C   C161      1.0  0.58232  0.86012  0.31290  1.0000
  C   C162      1.0  0.58465  0.84770  0.24092  1.0000
  C   C163      1.0  0.58429  0.82686  0.25641  1.0000
  O   O3        1.0  0.58823  0.85597  0.15520  1.0000
  O   O4        1.0  0.58812  0.81647  0.18558  1.0000
  H   H82       1.0  0.57303  0.85089  0.12943  1.0000
  H   H83       1.0  0.57328  0.80724  0.15567  1.0000
  C   C164      1.0  0.58457  0.88149  0.29664  1.0000
  H   H84       1.0  0.59599  0.89155  0.25142  1.0000
  C   C165      1.0  0.24028  0.81619  0.31054  1.0000
  C   C166      1.0  0.25278  0.83107  0.23875  1.0000
  C   C167      1.0  0.27359  0.85153  0.25458  1.0000
  O   O5        1.0  0.24460  0.82653  0.15289  1.0000
  O   O6        1.0  0.28406  0.86587  0.18392  1.0000
  H   H85       1.0  0.24972  0.81646  0.12722  1.0000
  H   H86       1.0  0.29332  0.86031  0.15416  1.0000
  C   C168      1.0  0.21894  0.79709  0.29392  1.0000
  H   H87       1.0  0.20893  0.79851  0.24848  1.0000
  C   C169      1.0  0.78911  0.61186  0.31034  1.0000
  C   C170      1.0  0.80377  0.61393  0.23835  1.0000
  C   C171      1.0  0.82403  0.61315  0.25386  1.0000
  O   O7        1.0  0.79921  0.61765  0.15258  1.0000
  O   O8        1.0  0.83820  0.61676  0.18300  1.0000
  H   H88       1.0  0.78890  0.60250  0.12695  1.0000
  H   H89       1.0  0.83236  0.60189  0.15327  1.0000
  C   C172      1.0  0.77023  0.61451  0.29402  1.0000
  H   H90       1.0  0.77179  0.62599  0.24851  1.0000
  C   C173      1.0  0.48853  0.27122  0.31252  1.0000
  C   C174      1.0  0.48645  0.28390  0.24054  1.0000
  C   C175      1.0  0.48724  0.30493  0.25605  1.0000
  O   O9        1.0  0.48273  0.27573  0.15477  1.0000
  O   O10       1.0  0.48363  0.31557  0.18519  1.0000
  H   H91       1.0  0.49788  0.28061  0.12913  1.0000
  H   H92       1.0  0.49851  0.32465  0.15545  1.0000
  C   C176      1.0  0.48587  0.24970  0.29620  1.0000
  H   H93       1.0  0.47439  0.23985  0.25073  1.0000
  C   C177      1.0  0.82917  0.31127  0.31011  1.0000
  C   C178      1.0  0.81641  0.29657  0.23832  1.0000
  C   C179      1.0  0.79541  0.27632  0.25417  1.0000
  O   O11       1.0  0.82450  0.30108  0.15243  1.0000
  O   O12       1.0  0.78469  0.26211  0.18349  1.0000
  H   H94       1.0  0.81959  0.31137  0.12683  1.0000
  H   H95       1.0  0.77559  0.26794  0.15389  1.0000
  C   C180      1.0  0.85066  0.33016  0.29345  1.0000
  H   H96       1.0  0.86047  0.32858  0.24779  1.0000
  C   C181      1.0  0.96610  0.47091  0.40681  1.0000
  C   C182      1.0  0.94732  0.44851  0.40837  1.0000
  C   C183      1.0  0.87939  0.38701  0.38641  1.0000
  C   C184      1.0  0.89920  0.40875  0.38625  1.0000
  C   C185      1.0  0.96689  0.58804  0.39854  1.0000
  C   C186      1.0  0.94823  0.59186  0.39747  1.0000
  C   C187      1.0  0.91637  0.61093  0.37155  1.0000
  C   C188      1.0  0.89692  0.61348  0.37183  1.0000
  C   C189      1.0  0.12394  0.67783  0.40841  1.0000
  C   C190      1.0  0.10532  0.65534  0.40689  1.0000
  C   C191      1.0  0.17173  0.71811  0.38532  1.0000
  C   C192      1.0  0.19130  0.74002  0.38555  1.0000
  C   C193      1.0  0.10464  0.53862  0.39861  1.0000
  C   C194      1.0  0.12344  0.53502  0.39752  1.0000
  C   C195      1.0  0.17550  0.51443  0.37245  1.0000
  C   C196      1.0  0.15583  0.51660  0.37214  1.0000
  H   H97       1.0  0.17584  0.50253  0.41387  1.0000
  H   H98       1.0  0.14254  0.50606  0.41305  1.0000
  H   H99       1.0  0.12981  0.53338  0.45776  1.0000
  H   H100      1.0  0.09785  0.53936  0.45904  1.0000
  H   H101      1.0  0.09962  0.64655  0.46609  1.0000
  H   H102      1.0  0.13091  0.68487  0.46933  1.0000
  H   H103      1.0  0.97380  0.58734  0.45892  1.0000
  H   H104      1.0  0.94209  0.59371  0.45770  1.0000
  H   H105      1.0  0.89690  0.62558  0.41271  1.0000
  H   H106      1.0  0.92982  0.62140  0.41201  1.0000
  H   H107      1.0  0.89953  0.42109  0.42692  1.0000
  H   H108      1.0  0.86619  0.38415  0.42809  1.0000
  H   H109      1.0  0.94050  0.44139  0.46936  1.0000
  H   H110      1.0  0.97205  0.47957  0.46609  1.0000
  H   H111      1.0  0.17175  0.70579  0.42532  1.0000
  H   H112      1.0  0.20469  0.74301  0.42656  1.0000
  C   C197      1.0  0.62951  0.58903  0.40862  1.0000
  C   C198      1.0  0.65192  0.59265  0.41001  1.0000
  C   C199      1.0  0.71341  0.58626  0.38738  1.0000
  C   C200      1.0  0.69167  0.58432  0.38741  1.0000
  C   C201      1.0  0.51239  0.47273  0.40073  1.0000
  C   C202      1.0  0.50854  0.45024  0.39969  1.0000
  C   C203      1.0  0.48948  0.39934  0.37377  1.0000
  C   C204      1.0  0.48693  0.37734  0.37404  1.0000
  C   C205      1.0  0.42254  0.53998  0.41009  1.0000
  C   C206      1.0  0.44503  0.54385  0.40873  1.0000
  C   C207      1.0  0.38225  0.54749  0.38660  1.0000
  C   C208      1.0  0.36034  0.54516  0.38657  1.0000
  C   C209      1.0  0.56178  0.65988  0.40081  1.0000
  C   C210      1.0  0.56539  0.68229  0.39973  1.0000
  C   C211      1.0  0.58596  0.75497  0.37467  1.0000
  C   C212      1.0  0.58380  0.73313  0.37437  1.0000
  H   H113      1.0  0.59786  0.76715  0.41610  1.0000
  H   H114      1.0  0.59434  0.73033  0.41529  1.0000
  H   H115      1.0  0.56701  0.69022  0.45996  1.0000
  H   H116      1.0  0.56103  0.65227  0.46125  1.0000
  H   H117      1.0  0.45381  0.54688  0.46798  1.0000
  H   H118      1.0  0.41548  0.53984  0.47095  1.0000
  H   H119      1.0  0.51306  0.48025  0.46112  1.0000
  H   H120      1.0  0.50668  0.44216  0.45991  1.0000
  H   H121      1.0  0.47483  0.36517  0.41494  1.0000
  H   H122      1.0  0.47900  0.40227  0.41423  1.0000
  H   H123      1.0  0.67936  0.57227  0.42817  1.0000
  H   H124      1.0  0.71629  0.57586  0.42893  1.0000
  H   H125      1.0  0.65906  0.59287  0.47094  1.0000
  H   H126      1.0  0.62087  0.58622  0.46795  1.0000
  H   H127      1.0  0.39456  0.55980  0.42658  1.0000
  H   H128      1.0  0.35735  0.55553  0.42742  1.0000
  C   C213      1.0  0.51136  0.13431  0.41044  1.0000
  C   C214      1.0  0.50774  0.15309  0.41189  1.0000
  C   C215      1.0  0.51413  0.22102  0.38944  1.0000
  C   C216      1.0  0.51606  0.20121  0.38945  1.0000
  C   C217      1.0  0.62774  0.13356  0.40160  1.0000
  C   C218      1.0  0.65023  0.15220  0.40021  1.0000
  C   C219      1.0  0.70111  0.18406  0.37351  1.0000
  C   C220      1.0  0.72311  0.20351  0.37340  1.0000
  C   C221      1.0  0.56042  0.97643  0.41201  1.0000
  C   C222      1.0  0.55655  0.99505  0.41059  1.0000
  C   C223      1.0  0.55292  0.92866  0.38864  1.0000
  C   C224      1.0  0.55525  0.90908  0.38864  1.0000
  C   C225      1.0  0.44045  0.99570  0.40168  1.0000
  C   C226      1.0  0.41804  0.97691  0.40026  1.0000
  C   C227      1.0  0.34537  0.92486  0.37406  1.0000
  C   C228      1.0  0.36722  0.94453  0.37410  1.0000
  H   H129      1.0  0.33315  0.92451  0.41530  1.0000
  H   H130      1.0  0.36999  0.95780  0.41510  1.0000
  H   H131      1.0  0.41005  0.97050  0.46038  1.0000
  H   H132      1.0  0.44799  0.00246  0.46222  1.0000
  H   H133      1.0  0.55352  0.00072  0.46982  1.0000
  H   H134      1.0  0.56056  0.96944  0.47290  1.0000
  H   H135      1.0  0.62027  0.12667  0.46210  1.0000
  H   H136      1.0  0.65836  0.15839  0.46031  1.0000
  H   H137      1.0  0.73532  0.20355  0.41410  1.0000
  H   H138      1.0  0.69822  0.17063  0.41402  1.0000
  H   H139      1.0  0.52813  0.20090  0.43013  1.0000
  H   H140      1.0  0.52454  0.23424  0.43099  1.0000
  H   H141      1.0  0.50754  0.15994  0.47285  1.0000
  H   H142      1.0  0.51419  0.12842  0.46972  1.0000
  H   H143      1.0  0.54061  0.92861  0.42860  1.0000
  H   H144      1.0  0.54487  0.89566  0.42951  1.0000
  C   C229      1.0  0.24266  0.51874  0.34239  1.0000
  C   C230      1.0  0.25758  0.52128  0.41431  1.0000
  C   C231      1.0  0.27808  0.52101  0.39880  1.0000
  O   O13       1.0  0.29148  0.52319  0.47104  1.0000
  H   H145      1.0  0.28667  0.50759  0.49159  1.0000
  O   O14       1.0  0.25257  0.52430  0.50017  1.0000
  H   H146      1.0  0.24483  0.50907  0.52823  1.0000
  C   C232      1.0  0.22169  0.51715  0.36040  1.0000
  H   H147      1.0  0.21303  0.50819  0.41384  1.0000
  C   C233      1.0  0.58165  0.81786  0.34458  1.0000
  C   C234      1.0  0.57911  0.83015  0.41648  1.0000
  C   C235      1.0  0.57939  0.85094  0.40095  1.0000
  O   O15       1.0  0.57721  0.86207  0.47318  1.0000
  H   H148      1.0  0.59281  0.87283  0.49371  1.0000
  O   O16       1.0  0.57609  0.82201  0.50235  1.0000
  H   H149      1.0  0.59131  0.82947  0.53042  1.0000
  C   C236      1.0  0.58324  0.79845  0.36261  1.0000
  H   H150      1.0  0.59219  0.79868  0.41606  1.0000
  C   C237      1.0  0.28249  0.85774  0.34290  1.0000
  C   C238      1.0  0.27014  0.84277  0.41461  1.0000
  C   C239      1.0  0.24936  0.82228  0.39874  1.0000
  O   O17       1.0  0.23817  0.80884  0.47079  1.0000
  H   H151      1.0  0.22737  0.81363  0.49114  1.0000
  O   O18       1.0  0.27818  0.84774  0.50060  1.0000
  H   H152      1.0  0.27070  0.85546  0.52855  1.0000
  C   C240      1.0  0.30189  0.87870  0.36123  1.0000
  H   H153      1.0  0.30160  0.88733  0.41465  1.0000
  C   C241      1.0  0.83027  0.61037  0.34208  1.0000
  C   C242      1.0  0.81553  0.60808  0.41399  1.0000
  C   C243      1.0  0.79523  0.60877  0.39843  1.0000
  O   O19       1.0  0.78201  0.60682  0.47068  1.0000
  H   H154      1.0  0.78711  0.62248  0.49106  1.0000
  O   O20       1.0  0.82052  0.60491  0.49989  1.0000
  H   H155      1.0  0.82852  0.62013  0.52779  1.0000
  C   C244      1.0  0.85108  0.61154  0.36009  1.0000
  H   H156      1.0  0.85990  0.62042  0.41339  1.0000
  C   C245      1.0  0.49005  0.31385  0.34426  1.0000
  C   C246      1.0  0.49233  0.30130  0.41617  1.0000
  C   C247      1.0  0.49163  0.28032  0.40061  1.0000
  O   O21       1.0  0.49358  0.26896  0.47286  1.0000
  H   H157      1.0  0.47792  0.25838  0.49325  1.0000
  O   O22       1.0  0.49550  0.30935  0.50207  1.0000
  H   H158      1.0  0.48028  0.30210  0.52998  1.0000
  C   C248      1.0  0.48887  0.33346  0.36228  1.0000
  H   H159      1.0  0.47999  0.33333  0.41559  1.0000
  C   C249      1.0  0.78657  0.27014  0.34252  1.0000
  C   C250      1.0  0.79919  0.28491  0.41423  1.0000
  C   C251      1.0  0.82015  0.30521  0.39833  1.0000
  O   O23       1.0  0.83158  0.31847  0.47041  1.0000
  H   H160      1.0  0.84219  0.31338  0.49062  1.0000
  O   O24       1.0  0.79122  0.27997  0.50025  1.0000
  H   H161      1.0  0.79850  0.27199  0.52807  1.0000
  C   C252      1.0  0.76699  0.24934  0.36085  1.0000
  H   H162      1.0  0.76718  0.24054  0.41412  1.0000
