data_image0
_chemical_formula_structural       CNC2NC4NC18H14C2NC16H12C3NC2NC5NC4NC18H14CNC16H12C11H11CNCNC4NC16H13N2H2N2H2N2H2N2H2N2H2N2H2N2H2N2H2N2H2N2H2N2H2N2H2C7NC12H12C2NC3NC3NC18H14C12H12C3NC3NC3NC18H14C3NC3NC2NC5NC20H15C8NC14H13C8H2C8H2C8H2C8H2C8H2C8H2C8H2C8H2C8H2C8H2C8H2C8H2
_chemical_formula_sum              "C360 N48 H204"
_cell_length_a       56.912
_cell_length_b       56.912
_cell_length_c       14.9827
_cell_angle_alpha    90.0018
_cell_angle_beta     89.9654
_cell_angle_gamma    120

_space_group_name_H-M_alt    "P 1"
_space_group_IT_number       1

loop_
  _space_group_symop_operation_xyz
  'x, y, z'

loop_
  _atom_site_type_symbol
  _atom_site_label
  _atom_site_symmetry_multiplicity
  _atom_site_fract_x
  _atom_site_fract_y
  _atom_site_fract_z
  _atom_site_occupancy
  C   C1        1.0  0.28747  0.53075  0.32237  1.0000
  N   N1        1.0  0.27878  0.48884  0.31005  1.0000
  C   C2        1.0  0.30624  0.50408  0.31588  1.0000
  C   C3        1.0  0.32639  0.49614  0.31513  1.0000
  N   N2        1.0  0.29556  0.44575  0.31053  1.0000
  C   C4        1.0  0.29743  0.42294  0.31281  1.0000
  C   C5        1.0  0.32519  0.43198  0.31813  1.0000
  C   C6        1.0  0.33913  0.45986  0.31410  1.0000
  C   C7        1.0  0.27610  0.39535  0.31127  1.0000
  N   N3        1.0  0.23568  0.40246  0.30952  1.0000
  C   C8        1.0  0.20817  0.38719  0.31034  1.0000
  C   C9        1.0  0.22676  0.36041  0.30348  1.0000
  C   C10       1.0  0.21693  0.46837  0.31341  1.0000
  C   C11       1.0  0.23825  0.49580  0.31726  1.0000
  C   C12       1.0  0.23099  0.51629  0.33147  1.0000
  C   C13       1.0  0.21787  0.52317  0.26498  1.0000
  C   C14       1.0  0.21174  0.54399  0.27956  1.0000
  C   C15       1.0  0.21941  0.55945  0.35947  1.0000
  C   C16       1.0  0.14504  0.35566  0.26166  1.0000
  C   C17       1.0  0.11747  0.33646  0.27599  1.0000
  C   C18       1.0  0.28353  0.37467  0.31769  1.0000
  C   C19       1.0  0.30468  0.33866  0.34569  1.0000
  C   C20       1.0  0.31174  0.35563  0.26924  1.0000
  C   C21       1.0  0.30065  0.37251  0.25379  1.0000
  C   C22       1.0  0.35436  0.51710  0.32283  1.0000
  C   C23       1.0  0.36659  0.53810  0.25882  1.0000
  C   C24       1.0  0.39231  0.56089  0.27438  1.0000
  C   C25       1.0  0.40782  0.56282  0.35113  1.0000
  H   H1        1.0  0.39927  0.57649  0.22940  1.0000
  H   H2        1.0  0.35593  0.53799  0.20363  1.0000
  H   H3        1.0  0.28609  0.54793  0.32714  1.0000
  H   H4        1.0  0.26915  0.46948  0.30279  1.0000
  H   H5        1.0  0.24537  0.42187  0.31514  1.0000
  H   H6        1.0  0.35980  0.47142  0.31583  1.0000
  H   H7        1.0  0.33449  0.42067  0.32338  1.0000
  H   H8        1.0  0.30694  0.38489  0.19890  1.0000
  H   H9        1.0  0.32579  0.35655  0.22457  1.0000
  H   H10       1.0  0.22813  0.34320  0.29988  1.0000
  H   H11       1.0  0.15384  0.35553  0.20219  1.0000
  H   H12       1.0  0.10716  0.32283  0.22621  1.0000
  H   H13       1.0  0.20223  0.54830  0.22954  1.0000
  H   H14       1.0  0.21277  0.51311  0.20522  1.0000
  C   C26       1.0  0.53796  0.75701  0.32203  1.0000
  C   C27       1.0  0.56463  0.80244  0.31589  1.0000
  N   N4        1.0  0.62297  0.85010  0.31097  1.0000
  C   C28       1.0  0.64578  0.87478  0.31332  1.0000
  C   C29       1.0  0.63674  0.89351  0.31875  1.0000
  C   C30       1.0  0.60886  0.87956  0.31485  1.0000
  C   C31       1.0  0.67337  0.88105  0.31172  1.0000
  C   C32       1.0  0.68155  0.82129  0.31066  1.0000
  C   C33       1.0  0.70833  0.86667  0.30378  1.0000
  C   C34       1.0  0.60036  0.74886  0.31398  1.0000
  C   C35       1.0  0.54558  0.69499  0.26535  1.0000
  C   C36       1.0  0.52476  0.66804  0.27996  1.0000
  C   C37       1.0  0.71310  0.78970  0.26203  1.0000
  C   C38       1.0  0.73229  0.78132  0.27641  1.0000
  C   C39       1.0  0.69405  0.90917  0.31807  1.0000
  C   C40       1.0  0.71309  0.95640  0.26946  1.0000
  C   C41       1.0  0.69622  0.92843  0.25409  1.0000
  C   C42       1.0  0.53064  0.82878  0.25913  1.0000
  C   C43       1.0  0.50786  0.83174  0.27458  1.0000
  H   H15       1.0  0.49230  0.82315  0.22947  1.0000
  H   H16       1.0  0.53081  0.81830  0.20382  1.0000
  H   H17       1.0  0.52080  0.73846  0.32752  1.0000
  H   H18       1.0  0.59730  0.88867  0.31640  1.0000
  H   H19       1.0  0.64805  0.91412  0.32399  1.0000
  H   H20       1.0  0.68381  0.92231  0.19930  1.0000
  H   H21       1.0  0.71215  0.96951  0.22483  1.0000
  H   H22       1.0  0.72554  0.88525  0.30064  1.0000
  H   H23       1.0  0.71325  0.79862  0.20253  1.0000
  H   H24       1.0  0.74593  0.78463  0.22662  1.0000
  H   H25       1.0  0.52048  0.65422  0.22997  1.0000
  H   H26       1.0  0.55567  0.69995  0.20560  1.0000
  C   C44       1.0  0.28758  0.75711  0.32479  1.0000
  C   C45       1.0  0.31172  0.78126  0.32148  1.0000
  C   C46       1.0  0.30597  0.80236  0.31548  1.0000
  N   N5        1.0  0.27851  0.78996  0.30948  1.0000
  C   C47       1.0  0.26629  0.76250  0.31529  1.0000
  C   C48       1.0  0.23819  0.74235  0.31468  1.0000
  N   N6        1.0  0.21863  0.77318  0.31010  1.0000
  C   C49       1.0  0.19395  0.77131  0.31231  1.0000
  C   C50       1.0  0.17522  0.74355  0.31763  1.0000
  C   C51       1.0  0.18917  0.72960  0.31380  1.0000
  C   C52       1.0  0.18768  0.79264  0.31076  1.0000
  C   C53       1.0  0.20770  0.82075  0.30769  1.0000
  N   N7        1.0  0.23521  0.83306  0.30923  1.0000
  C   C54       1.0  0.24746  0.86057  0.31009  1.0000
  C   C55       1.0  0.22623  0.86621  0.30765  1.0000
  C   C56       1.0  0.20208  0.84199  0.30338  1.0000
  C   C57       1.0  0.27554  0.88049  0.31406  1.0000
  N   N8        1.0  0.29516  0.84978  0.31108  1.0000
  C   C58       1.0  0.31988  0.85181  0.31335  1.0000
  C   C59       1.0  0.32598  0.83048  0.31691  1.0000
  C   C60       1.0  0.35372  0.83772  0.33122  1.0000
  C   C61       1.0  0.37378  0.85090  0.26485  1.0000
  C   C62       1.0  0.40073  0.85706  0.27959  1.0000
  C   C63       1.0  0.40846  0.84935  0.35956  1.0000
  C   C64       1.0  0.28293  0.90831  0.32777  1.0000
  C   C65       1.0  0.27905  0.92372  0.26148  1.0000
  C   C66       1.0  0.28741  0.95127  0.27595  1.0000
  C   C67       1.0  0.30097  0.96483  0.35544  1.0000
  C   C68       1.0  0.15957  0.78520  0.31721  1.0000
  C   C69       1.0  0.10240  0.76402  0.34526  1.0000
  C   C70       1.0  0.11233  0.75702  0.26873  1.0000
  C   C71       1.0  0.14031  0.76811  0.25329  1.0000
  C   C72       1.0  0.23118  0.71438  0.32246  1.0000
  C   C73       1.0  0.23994  0.70215  0.25842  1.0000
  C   C74       1.0  0.23703  0.67644  0.27408  1.0000
  C   C75       1.0  0.22343  0.66091  0.35083  1.0000
  H   H27       1.0  0.24565  0.66947  0.22905  1.0000
  H   H28       1.0  0.25053  0.71284  0.20326  1.0000
  H   H29       1.0  0.33027  0.78264  0.32688  1.0000
  H   H30       1.0  0.26878  0.79959  0.30246  1.0000
  H   H31       1.0  0.24494  0.82336  0.31378  1.0000
  H   H32       1.0  0.18006  0.70893  0.31532  1.0000
  H   H33       1.0  0.15460  0.73423  0.32279  1.0000
  H   H34       1.0  0.14641  0.76184  0.19837  1.0000
  H   H35       1.0  0.09922  0.74297  0.22408  1.0000
  H   H36       1.0  0.18351  0.84063  0.30009  1.0000
  H   H37       1.0  0.27016  0.91496  0.20197  1.0000
  H   H38       1.0  0.28414  0.96162  0.22616  1.0000
  H   H39       1.0  0.41459  0.86663  0.22968  1.0000
  H   H40       1.0  0.36886  0.85604  0.20508  1.0000
  C   C76       1.0  0.78520  0.54195  0.31646  1.0000
  N   N9        1.0  0.79589  0.60029  0.31138  1.0000
  C   C77       1.0  0.79403  0.62311  0.31349  1.0000
  C   C78       1.0  0.76627  0.61408  0.31871  1.0000
  C   C79       1.0  0.75232  0.58619  0.31508  1.0000
  C   C80       1.0  0.81536  0.65070  0.31188  1.0000
  C   C81       1.0  0.88329  0.65884  0.31086  1.0000
  C   C82       1.0  0.86471  0.68565  0.30450  1.0000
  C   C83       1.0  0.87451  0.57764  0.31398  1.0000
  C   C84       1.0  0.87359  0.52285  0.26539  1.0000
  C   C85       1.0  0.87973  0.50205  0.27999  1.0000
  C   C86       1.0  0.94640  0.69039  0.26184  1.0000
  C   C87       1.0  0.97397  0.70960  0.27614  1.0000
  C   C88       1.0  0.80793  0.67138  0.31821  1.0000
  C   C89       1.0  0.77974  0.69040  0.26960  1.0000
  C   C90       1.0  0.79090  0.67359  0.25410  1.0000
  C   C91       1.0  0.72487  0.50797  0.25959  1.0000
  C   C92       1.0  0.69914  0.48518  0.27514  1.0000
  H   H41       1.0  0.69219  0.46959  0.23013  1.0000
  H   H42       1.0  0.73556  0.50808  0.20440  1.0000
  H   H43       1.0  0.80532  0.49809  0.32774  1.0000
  H   H44       1.0  0.73165  0.57463  0.31619  1.0000
  H   H45       1.0  0.75696  0.62539  0.32359  1.0000
  H   H46       1.0  0.78459  0.66116  0.19935  1.0000
  H   H47       1.0  0.76571  0.68947  0.22490  1.0000
  H   H48       1.0  0.86336  0.70286  0.30134  1.0000
  H   H49       1.0  0.93761  0.69053  0.20242  1.0000
  H   H50       1.0  0.98428  0.72324  0.22634  1.0000
  H   H51       1.0  0.88931  0.49779  0.23005  1.0000
  H   H52       1.0  0.87872  0.53293  0.20563  1.0000
  C   C93       1.0  0.44566  0.17124  0.31364  1.0000
  C   C94       1.0  0.45469  0.15251  0.31897  1.0000
  C   C95       1.0  0.48258  0.16645  0.31502  1.0000
  C   C96       1.0  0.54589  0.35104  0.26597  1.0000
  C   C97       1.0  0.56670  0.37799  0.28054  1.0000
  C   C98       1.0  0.37838  0.25634  0.26227  1.0000
  C   C99       1.0  0.35918  0.26470  0.27651  1.0000
  C   C100      1.0  0.37837  0.08965  0.26953  1.0000
  C   C101      1.0  0.39526  0.11763  0.25427  1.0000
  C   C102      1.0  0.56081  0.21725  0.25969  1.0000
  C   C103      1.0  0.58360  0.21432  0.27518  1.0000
  H   H53       1.0  0.59919  0.22296  0.23017  1.0000
  H   H54       1.0  0.56070  0.22782  0.20453  1.0000
  H   H55       1.0  0.57064  0.30755  0.32817  1.0000
  H   H56       1.0  0.49414  0.15735  0.31676  1.0000
  H   H57       1.0  0.40767  0.12377  0.19943  1.0000
  H   H58       1.0  0.37932  0.07656  0.22479  1.0000
  H   H59       1.0  0.36592  0.16080  0.30056  1.0000
  H   H60       1.0  0.37828  0.24742  0.20282  1.0000
  H   H61       1.0  0.34556  0.26138  0.22668  1.0000
  H   H62       1.0  0.57102  0.39181  0.23053  1.0000
  H   H63       1.0  0.53584  0.34609  0.20620  1.0000
  C   C104      1.0  0.77970  0.26475  0.32210  1.0000
  N   N10       1.0  0.81292  0.25607  0.31004  1.0000
  C   C105      1.0  0.82514  0.28352  0.31586  1.0000
  N   N11       1.0  0.87280  0.27285  0.31081  1.0000
  C   C106      1.0  0.89748  0.27472  0.31310  1.0000
  C   C107      1.0  0.91620  0.30248  0.31851  1.0000
  C   C108      1.0  0.90226  0.31643  0.31466  1.0000
  C   C109      1.0  0.90375  0.25340  0.31147  1.0000
  N   N12       1.0  0.85623  0.21297  0.30970  1.0000
  C   C110      1.0  0.84399  0.18546  0.31050  1.0000
  C   C111      1.0  0.88937  0.20406  0.30358  1.0000
  C   C112      1.0  0.77156  0.19421  0.31397  1.0000
  C   C113      1.0  0.76546  0.21554  0.31763  1.0000
  C   C114      1.0  0.71768  0.19513  0.26556  1.0000
  C   C115      1.0  0.69074  0.18899  0.28028  1.0000
  C   C116      1.0  0.68298  0.19669  0.36023  1.0000
  C   C117      1.0  0.81241  0.12233  0.26186  1.0000
  C   C118      1.0  0.80403  0.09476  0.27623  1.0000
  C   C119      1.0  0.93187  0.26084  0.31782  1.0000
  C   C120      1.0  0.98903  0.28201  0.34563  1.0000
  C   C121      1.0  0.97910  0.28904  0.26921  1.0000
  C   C122      1.0  0.95113  0.27794  0.25383  1.0000
  C   C123      1.0  0.86024  0.33165  0.32313  1.0000
  C   C124      1.0  0.85147  0.34387  0.25917  1.0000
  C   C125      1.0  0.85443  0.36962  0.27469  1.0000
  H   H64       1.0  0.84584  0.37660  0.22963  1.0000
  H   H65       1.0  0.84098  0.33323  0.20386  1.0000
  H   H66       1.0  0.76115  0.26336  0.32764  1.0000
  H   H67       1.0  0.82266  0.24644  0.30314  1.0000
  H   H68       1.0  0.91137  0.33709  0.31621  1.0000
  H   H69       1.0  0.93682  0.31179  0.32371  1.0000
  H   H70       1.0  0.94502  0.28424  0.19905  1.0000
  H   H71       1.0  0.99222  0.30311  0.22456  1.0000
  H   H72       1.0  0.90795  0.20543  0.30043  1.0000
  H   H73       1.0  0.82133  0.13111  0.20237  1.0000
  H   H74       1.0  0.80734  0.08443  0.22644  1.0000
  H   H75       1.0  0.67690  0.17946  0.23034  1.0000
  H   H76       1.0  0.72263  0.19001  0.20578  1.0000
  N   N13       1.0  0.22133  0.62110  0.29280  1.0000
  N   N14       1.0  0.21970  0.59749  0.29392  1.0000
  H   H77       1.0  0.21955  0.63039  0.00762  1.0000
  H   H78       1.0  0.20342  0.58209  0.00544  1.0000
  N   N15       1.0  0.44765  0.60053  0.29312  1.0000
  N   N16       1.0  0.47126  0.62252  0.29426  1.0000
  H   H79       1.0  0.43826  0.58947  0.00794  1.0000
  H   H80       1.0  0.48656  0.62166  0.00585  1.0000
  N   N17       1.0  0.46823  0.84746  0.29316  1.0000
  N   N18       1.0  0.44626  0.84913  0.29420  1.0000
  H   H81       1.0  0.47909  0.84906  0.00803  1.0000
  H   H82       1.0  0.44694  0.86522  0.00575  1.0000
  N   N19       1.0  0.87014  0.42495  0.29340  1.0000
  N   N20       1.0  0.87180  0.44858  0.29450  1.0000
  H   H83       1.0  0.87181  0.41563  0.00822  1.0000
  H   H84       1.0  0.88798  0.46394  0.00605  1.0000
  N   N21       1.0  0.64380  0.44552  0.29382  1.0000
  N   N22       1.0  0.62019  0.42353  0.29493  1.0000
  H   H85       1.0  0.65307  0.45657  0.00864  1.0000
  H   H86       1.0  0.60477  0.42439  0.00645  1.0000
  N   N23       1.0  0.62323  0.19860  0.29373  1.0000
  N   N24       1.0  0.64522  0.19697  0.29479  1.0000
  H   H87       1.0  0.61227  0.19693  0.00860  1.0000
  H   H88       1.0  0.64446  0.18082  0.00635  1.0000
  N   N25       1.0  0.06019  0.31446  0.28957  1.0000
  N   N26       1.0  0.03385  0.30258  0.28816  1.0000
  H   H89       1.0  0.06836  0.30507  0.00143  1.0000
  H   H90       1.0  0.02168  0.29513  0.00286  1.0000
  N   N27       1.0  0.75428  0.74604  0.29000  1.0000
  N   N28       1.0  0.76617  0.73160  0.28859  1.0000
  H   H91       1.0  0.76362  0.76357  0.00192  1.0000
  H   H92       1.0  0.77355  0.72682  0.00330  1.0000
  N   N29       1.0  0.32270  0.00856  0.28959  1.0000
  N   N30       1.0  0.33713  0.03489  0.28827  1.0000
  H   H93       1.0  0.30507  0.00026  0.00146  1.0000
  H   H94       1.0  0.34178  0.04695  0.00302  1.0000
  N   N31       1.0  0.03125  0.73159  0.28945  1.0000
  N   N32       1.0  0.05758  0.74347  0.28794  1.0000
  H   H95       1.0  0.02318  0.74096  0.00139  1.0000
  H   H96       1.0  0.06986  0.75089  0.00261  1.0000
  N   N33       1.0  0.33715  0.29996  0.28989  1.0000
  N   N34       1.0  0.32526  0.31440  0.28837  1.0000
  H   H97       1.0  0.32769  0.28244  0.00178  1.0000
  H   H98       1.0  0.31774  0.31918  0.00303  1.0000
  N   N35       1.0  0.76875  0.03749  0.28982  1.0000
  N   N36       1.0  0.75431  0.01115  0.28841  1.0000
  H   H99       1.0  0.78632  0.04565  0.00172  1.0000
  H   H100      1.0  0.74958  0.99897  0.00312  1.0000
  C   C126      1.0  0.31163  0.53077  0.32538  1.0000
  C   C127      1.0  0.26636  0.50389  0.31604  1.0000
  C   C128      1.0  0.32020  0.46862  0.31271  1.0000
  C   C129      1.0  0.24798  0.38726  0.30804  1.0000
  C   C130      1.0  0.20253  0.36032  0.30760  1.0000
  C   C131      1.0  0.18824  0.39535  0.31445  1.0000
  C   C132      1.0  0.19434  0.42285  0.31242  1.0000
  N   N37       1.0  0.21895  0.44567  0.31127  1.0000
  C   C133      1.0  0.18920  0.45951  0.31547  1.0000
  C   C134      1.0  0.17534  0.43158  0.31276  1.0000
  C   C135      1.0  0.23360  0.55302  0.42376  1.0000
  C   C136      1.0  0.23805  0.53107  0.41222  1.0000
  C   C137      1.0  0.16042  0.37492  0.32804  1.0000
  C   C138      1.0  0.10387  0.33645  0.35544  1.0000
  C   C139      1.0  0.11924  0.35682  0.41925  1.0000
  C   C140      1.0  0.14715  0.37477  0.40796  1.0000
  C   C141      1.0  0.27514  0.35669  0.39124  1.0000
  C   C142      1.0  0.28426  0.33798  0.40164  1.0000
  C   C143      1.0  0.37015  0.51828  0.39734  1.0000
  C   C144      1.0  0.39690  0.53979  0.40773  1.0000
  H   H101      1.0  0.40798  0.53861  0.45933  1.0000
  H   H102      1.0  0.36234  0.50327  0.44459  1.0000
  H   H103      1.0  0.32994  0.54798  0.33419  1.0000
  H   H104      1.0  0.26222  0.35704  0.43810  1.0000
  H   H105      1.0  0.27628  0.32440  0.45292  1.0000
  H   H106      1.0  0.18398  0.34306  0.30769  1.0000
  H   H107      1.0  0.18007  0.47103  0.31877  1.0000
  H   H108      1.0  0.15467  0.41990  0.31313  1.0000
  H   H109      1.0  0.15736  0.38899  0.45637  1.0000
  H   H110      1.0  0.11020  0.35954  0.47413  1.0000
  H   H111      1.0  0.24824  0.52715  0.46098  1.0000
  H   H112      1.0  0.24185  0.56483  0.47907  1.0000
  C   C145      1.0  0.53794  0.78114  0.32527  1.0000
  C   C146      1.0  0.56482  0.76276  0.31606  1.0000
  N   N38       1.0  0.57987  0.79023  0.31008  1.0000
  C   C147      1.0  0.57258  0.83054  0.31545  1.0000
  C   C148      1.0  0.60010  0.85187  0.31317  1.0000
  C   C149      1.0  0.68147  0.86103  0.30842  1.0000
  N   N39       1.0  0.66627  0.83352  0.30989  1.0000
  C   C150      1.0  0.70841  0.84251  0.30804  1.0000
  C   C151      1.0  0.67338  0.79320  0.31468  1.0000
  C   C152      1.0  0.64588  0.77180  0.31289  1.0000
  N   N40       1.0  0.62306  0.77358  0.31171  1.0000
  C   C153      1.0  0.60922  0.73000  0.31604  1.0000
  C   C154      1.0  0.63715  0.74407  0.31335  1.0000
  C   C155      1.0  0.57293  0.74276  0.31759  1.0000
  C   C156      1.0  0.55243  0.71501  0.33180  1.0000
  C   C157      1.0  0.50927  0.66027  0.35986  1.0000
  C   C158      1.0  0.51565  0.68092  0.42401  1.0000
  C   C159      1.0  0.53765  0.70730  0.41259  1.0000
  C   C160      1.0  0.69382  0.78582  0.32837  1.0000
  C   C161      1.0  0.73230  0.76776  0.35591  1.0000
  C   C162      1.0  0.71191  0.76279  0.41969  1.0000
  C   C163      1.0  0.69393  0.77270  0.40830  1.0000
  C   C164      1.0  0.71201  0.91878  0.39158  1.0000
  C   C165      1.0  0.73071  0.94660  0.40192  1.0000
  C   C166      1.0  0.73005  0.96633  0.34589  1.0000
  C   C167      1.0  0.55161  0.83755  0.32316  1.0000
  C   C168      1.0  0.55038  0.85212  0.39773  1.0000
  C   C169      1.0  0.50588  0.84530  0.35134  1.0000
  C   C170      1.0  0.52887  0.85737  0.40808  1.0000
  H   H113      1.0  0.53002  0.86962  0.45970  1.0000
  H   H114      1.0  0.56536  0.85931  0.44502  1.0000
  H   H115      1.0  0.52075  0.78225  0.33452  1.0000
  H   H116      1.0  0.59925  0.79997  0.30322  1.0000
  H   H117      1.0  0.64685  0.82381  0.31504  1.0000
  H   H118      1.0  0.71166  0.90552  0.43847  1.0000
  H   H119      1.0  0.74430  0.95222  0.45314  1.0000
  H   H120      1.0  0.72568  0.84124  0.30830  1.0000
  H   H121      1.0  0.59770  0.70935  0.31919  1.0000
  H   H122      1.0  0.64883  0.73507  0.31341  1.0000
  H   H123      1.0  0.67970  0.76870  0.45673  1.0000
  H   H124      1.0  0.70914  0.75100  0.47453  1.0000
  H   H125      1.0  0.54148  0.72143  0.46120  1.0000
  H   H126      1.0  0.50381  0.67736  0.47929  1.0000
  C   C171      1.0  0.21686  0.74854  0.31228  1.0000
  C   C172      1.0  0.29694  0.87439  0.31223  1.0000
  C   C173      1.0  0.33874  0.87953  0.31537  1.0000
  C   C174      1.0  0.32467  0.89339  0.31267  1.0000
  C   C175      1.0  0.38778  0.83508  0.42366  1.0000
  C   C176      1.0  0.36138  0.83063  0.41203  1.0000
  C   C177      1.0  0.30595  0.94942  0.41913  1.0000
  C   C178      1.0  0.29598  0.92151  0.40780  1.0000
  C   C179      1.0  0.14995  0.79353  0.39083  1.0000
  C   C180      1.0  0.12213  0.78442  0.40123  1.0000
  C   C181      1.0  0.21655  0.69858  0.39700  1.0000
  C   C182      1.0  0.21132  0.67183  0.40746  1.0000
  H   H127      1.0  0.19902  0.66073  0.45900  1.0000
  H   H128      1.0  0.20934  0.70638  0.44423  1.0000
  H   H129      1.0  0.28647  0.73879  0.33382  1.0000
  H   H130      1.0  0.16321  0.80642  0.43774  1.0000
  H   H131      1.0  0.11651  0.79236  0.45258  1.0000
  H   H132      1.0  0.22752  0.88476  0.30796  1.0000
  H   H133      1.0  0.35940  0.88866  0.31847  1.0000
  H   H134      1.0  0.33367  0.91406  0.31272  1.0000
  H   H135      1.0  0.30003  0.91129  0.45609  1.0000
  H   H136      1.0  0.31771  0.95843  0.47397  1.0000
  H   H137      1.0  0.34723  0.82039  0.46066  1.0000
  H   H138      1.0  0.39131  0.82683  0.47904  1.0000
  C   C183      1.0  0.77980  0.51526  0.32592  1.0000
  C   C184      1.0  0.80395  0.51527  0.32263  1.0000
  C   C185      1.0  0.82507  0.54212  0.31648  1.0000
  N   N41       1.0  0.81266  0.55718  0.31058  1.0000
  C   C186      1.0  0.76505  0.54990  0.31592  1.0000
  C   C187      1.0  0.77125  0.57742  0.31357  1.0000
  C   C188      1.0  0.84348  0.65879  0.30874  1.0000
  N   N42       1.0  0.85578  0.64358  0.31011  1.0000
  C   C189      1.0  0.88894  0.68571  0.30862  1.0000
  C   C190      1.0  0.90321  0.65067  0.31463  1.0000
  C   C191      1.0  0.89710  0.62317  0.31272  1.0000
  N   N43       1.0  0.87249  0.60034  0.31174  1.0000
  C   C192      1.0  0.90223  0.58650  0.31584  1.0000
  C   C193      1.0  0.91610  0.61443  0.31297  1.0000
  C   C194      1.0  0.85317  0.55022  0.31762  1.0000
  C   C195      1.0  0.86043  0.52972  0.33186  1.0000
  C   C196      1.0  0.87204  0.48659  0.35994  1.0000
  C   C197      1.0  0.85779  0.49298  0.42416  1.0000
  C   C198      1.0  0.85335  0.51494  0.41264  1.0000
  C   C199      1.0  0.93103  0.67109  0.32819  1.0000
  C   C200      1.0  0.98757  0.70959  0.35552  1.0000
  C   C201      1.0  0.97219  0.68920  0.41930  1.0000
  C   C202      1.0  0.94429  0.67123  0.40806  1.0000
  C   C203      1.0  0.81623  0.68931  0.39182  1.0000
  C   C204      1.0  0.80711  0.70802  0.40211  1.0000
  C   C205      1.0  0.78672  0.70734  0.34607  1.0000
  C   C206      1.0  0.73708  0.52895  0.32363  1.0000
  C   C207      1.0  0.72126  0.52776  0.39812  1.0000
  C   C208      1.0  0.68360  0.48322  0.35188  1.0000
  C   C209      1.0  0.69450  0.50624  0.40852  1.0000
  H   H139      1.0  0.68339  0.50742  0.46004  1.0000
  H   H140      1.0  0.72904  0.54276  0.44534  1.0000
  H   H141      1.0  0.76149  0.49806  0.33497  1.0000
  H   H142      1.0  0.82229  0.57655  0.30344  1.0000
  H   H143      1.0  0.84607  0.62415  0.31451  1.0000
  H   H144      1.0  0.82909  0.68894  0.43879  1.0000
  H   H145      1.0  0.81503  0.72158  0.45345  1.0000
  H   H146      1.0  0.90749  0.70298  0.30892  1.0000
  H   H147      1.0  0.91136  0.57498  0.31897  1.0000
  H   H148      1.0  0.93677  0.62610  0.31313  1.0000
  H   H149      1.0  0.93407  0.65698  0.45647  1.0000
  H   H150      1.0  0.98122  0.68646  0.47413  1.0000
  H   H151      1.0  0.84313  0.51884  0.46136  1.0000
  H   H152      1.0  0.84955  0.48119  0.47955  1.0000
  C   C210      1.0  0.55348  0.26487  0.32640  1.0000
  C   C211      1.0  0.55346  0.28900  0.32339  1.0000
  C   C212      1.0  0.52661  0.28325  0.31705  1.0000
  N   N44       1.0  0.51156  0.25579  0.31106  1.0000
  C   C213      1.0  0.52680  0.24357  0.31689  1.0000
  C   C214      1.0  0.51886  0.21548  0.31610  1.0000
  C   C215      1.0  0.49134  0.19415  0.31366  1.0000
  N   N45       1.0  0.46847  0.19592  0.31143  1.0000
  C   C216      1.0  0.41807  0.16498  0.31201  1.0000
  C   C217      1.0  0.40997  0.18500  0.30881  1.0000
  N   N46       1.0  0.42518  0.21251  0.31033  1.0000
  C   C218      1.0  0.40990  0.22475  0.31112  1.0000
  C   C219      1.0  0.38304  0.20352  0.30834  1.0000
  C   C220      1.0  0.38312  0.17937  0.30420  1.0000
  C   C221      1.0  0.41806  0.25283  0.31524  1.0000
  C   C222      1.0  0.44556  0.27423  0.31327  1.0000
  N   N47       1.0  0.46839  0.27245  0.31218  1.0000
  C   C223      1.0  0.49109  0.29717  0.31436  1.0000
  C   C224      1.0  0.48222  0.31603  0.31639  1.0000
  C   C225      1.0  0.45430  0.30196  0.31361  1.0000
  C   C226      1.0  0.51851  0.30327  0.31825  1.0000
  C   C227      1.0  0.53900  0.33102  0.33246  1.0000
  C   C228      1.0  0.58215  0.38575  0.36047  1.0000
  C   C229      1.0  0.57572  0.36512  0.42476  1.0000
  C   C230      1.0  0.55377  0.33872  0.41322  1.0000
  C   C231      1.0  0.39762  0.26022  0.32871  1.0000
  C   C232      1.0  0.35913  0.27828  0.35592  1.0000
  C   C233      1.0  0.37948  0.28326  0.41980  1.0000
  C   C234      1.0  0.39744  0.27332  0.40860  1.0000
  C   C235      1.0  0.39738  0.13686  0.31826  1.0000
  C   C236      1.0  0.37937  0.12721  0.39173  1.0000
  C   C237      1.0  0.36066  0.09939  0.40194  1.0000
  C   C238      1.0  0.36136  0.07969  0.34589  1.0000
  C   C239      1.0  0.53981  0.20846  0.32375  1.0000
  C   C240      1.0  0.54099  0.19383  0.39823  1.0000
  C   C241      1.0  0.58554  0.20072  0.35189  1.0000
  C   C242      1.0  0.56251  0.18859  0.40854  1.0000
  H   H153      1.0  0.56134  0.17632  0.46012  1.0000
  H   H154      1.0  0.52598  0.18661  0.44549  1.0000
  H   H155      1.0  0.57069  0.26375  0.33521  1.0000
  H   H156      1.0  0.49220  0.24606  0.30379  1.0000
  H   H157      1.0  0.44459  0.22222  0.31596  1.0000
  H   H158      1.0  0.44338  0.13190  0.32417  1.0000
  H   H159      1.0  0.37970  0.14045  0.43866  1.0000
  H   H160      1.0  0.34705  0.09374  0.45318  1.0000
  H   H161      1.0  0.36577  0.20480  0.30840  1.0000
  H   H162      1.0  0.49374  0.33668  0.31971  1.0000
  H   H163      1.0  0.44262  0.31096  0.31395  1.0000
  H   H164      1.0  0.41165  0.27733  0.45707  1.0000
  H   H165      1.0  0.38218  0.29502  0.47465  1.0000
  H   H166      1.0  0.54985  0.32461  0.46199  1.0000
  H   H167      1.0  0.58752  0.36867  0.48007  1.0000
  C   C243      1.0  0.80383  0.28891  0.32530  1.0000
  C   C244      1.0  0.78546  0.24365  0.31608  1.0000
  C   C245      1.0  0.85323  0.30368  0.31537  1.0000
  C   C246      1.0  0.87457  0.29749  0.31303  1.0000
  C   C247      1.0  0.88374  0.22528  0.30821  1.0000
  C   C248      1.0  0.86522  0.17983  0.30787  1.0000
  C   C249      1.0  0.81591  0.16553  0.31455  1.0000
  C   C250      1.0  0.79451  0.17163  0.31279  1.0000
  N   N48       1.0  0.79628  0.19624  0.31165  1.0000
  C   C251      1.0  0.75271  0.16649  0.31604  1.0000
  C   C252      1.0  0.76677  0.15263  0.31329  1.0000
  C   C253      1.0  0.73771  0.20828  0.33196  1.0000
  C   C254      1.0  0.70364  0.21096  0.42432  1.0000
  C   C255      1.0  0.73002  0.21534  0.41278  1.0000
  C   C256      1.0  0.80853  0.13771  0.32822  1.0000
  C   C257      1.0  0.79047  0.08117  0.35574  1.0000
  C   C258      1.0  0.78549  0.09657  0.41954  1.0000
  C   C259      1.0  0.79541  0.12446  0.40816  1.0000
  C   C260      1.0  0.94147  0.25247  0.39134  1.0000
  C   C261      1.0  0.96930  0.26161  0.40168  1.0000
  C   C262      1.0  0.87482  0.34743  0.39771  1.0000
  C   C263      1.0  0.86800  0.38512  0.35145  1.0000
  C   C264      1.0  0.88006  0.37418  0.40812  1.0000
  H   H168      1.0  0.89232  0.38526  0.45973  1.0000
  H   H169      1.0  0.88201  0.33962  0.44495  1.0000
  H   H170      1.0  0.80494  0.30721  0.33458  1.0000
  H   H171      1.0  0.84651  0.22267  0.31484  1.0000
  H   H172      1.0  0.92821  0.23956  0.43824  1.0000
  H   H173      1.0  0.97492  0.25363  0.45290  1.0000
  H   H174      1.0  0.86394  0.16128  0.30814  1.0000
  H   H175      1.0  0.73205  0.15736  0.31921  1.0000
  H   H176      1.0  0.75778  0.13196  0.31333  1.0000
  H   H177      1.0  0.79141  0.13468  0.45660  1.0000
  H   H178      1.0  0.77371  0.08754  0.47439  1.0000
  H   H179      1.0  0.74416  0.22563  0.46135  1.0000
  H   H180      1.0  0.70009  0.21923  0.47963  1.0000
  C   C265      1.0  0.21636  0.58291  0.36919  1.0000
  C   C266      1.0  0.21399  0.59453  0.45067  1.0000
  C   C267      1.0  0.21903  0.62189  0.45034  1.0000
  C   C268      1.0  0.22133  0.63496  0.36663  1.0000
  C   C269      1.0  0.22267  0.63495  0.53411  1.0000
  C   C270      1.0  0.21723  0.62062  0.61482  1.0000
  C   C271      1.0  0.20796  0.59274  0.61359  1.0000
  C   C272      1.0  0.20661  0.57991  0.53229  1.0000
  H   H181      1.0  0.23014  0.65535  0.53837  1.0000
  H   H182      1.0  0.20003  0.55960  0.53385  1.0000
  C   C273      1.0  0.48580  0.63377  0.36957  1.0000
  C   C274      1.0  0.47413  0.61979  0.45105  1.0000
  C   C275      1.0  0.44678  0.59748  0.45068  1.0000
  C   C276      1.0  0.43376  0.58669  0.36695  1.0000
  C   C277      1.0  0.43366  0.58806  0.53443  1.0000
  C   C278      1.0  0.44796  0.59693  0.61516  1.0000
  C   C279      1.0  0.47583  0.61559  0.61401  1.0000
  C   C280      1.0  0.48871  0.62706  0.53271  1.0000
  H   H183      1.0  0.41327  0.57509  0.53864  1.0000
  H   H184      1.0  0.50902  0.64078  0.53430  1.0000
  C   C281      1.0  0.43499  0.85248  0.36941  1.0000
  C   C282      1.0  0.44889  0.85471  0.45096  1.0000
  C   C283      1.0  0.47117  0.84964  0.45072  1.0000
  C   C284      1.0  0.48202  0.84740  0.36706  1.0000
  C   C285      1.0  0.48052  0.84591  0.53452  1.0000
  C   C286      1.0  0.47158  0.85132  0.61520  1.0000
  C   C287      1.0  0.45295  0.86056  0.61395  1.0000
  C   C288      1.0  0.44157  0.86202  0.53258  1.0000
  H   H185      1.0  0.49346  0.83846  0.53881  1.0000
  H   H186      1.0  0.42785  0.86862  0.53409  1.0000
  C   C289      1.0  0.87517  0.46318  0.36975  1.0000
  C   C290      1.0  0.87742  0.45150  0.45125  1.0000
  C   C291      1.0  0.87234  0.42413  0.45093  1.0000
  C   C292      1.0  0.87009  0.41108  0.36724  1.0000
  C   C293      1.0  0.86863  0.41104  0.53472  1.0000
  C   C294      1.0  0.87403  0.42536  0.61542  1.0000
  C   C295      1.0  0.88330  0.45324  0.61421  1.0000
  C   C296      1.0  0.88474  0.46610  0.53289  1.0000
  H   H187      1.0  0.86116  0.39064  0.53897  1.0000
  H   H188      1.0  0.89134  0.48641  0.53443  1.0000
  C   C297      1.0  0.60560  0.41226  0.37020  1.0000
  C   C298      1.0  0.61721  0.42625  0.45167  1.0000
  C   C299      1.0  0.64456  0.44856  0.45136  1.0000
  C   C300      1.0  0.65764  0.45936  0.36766  1.0000
  C   C301      1.0  0.65762  0.45797  0.53514  1.0000
  C   C302      1.0  0.64327  0.44906  0.61584  1.0000
  C   C303      1.0  0.61539  0.43045  0.61461  1.0000
  C   C304      1.0  0.60257  0.41898  0.53330  1.0000
  H   H189      1.0  0.67801  0.47090  0.53940  1.0000
  H   H190      1.0  0.58226  0.40524  0.53484  1.0000
  C   C305      1.0  0.65648  0.19367  0.37005  1.0000
  C   C306      1.0  0.64252  0.19135  0.45157  1.0000
  C   C307      1.0  0.62021  0.19639  0.45130  1.0000
  C   C308      1.0  0.60941  0.19864  0.36762  1.0000
  C   C309      1.0  0.61079  0.20006  0.53509  1.0000
  C   C310      1.0  0.61969  0.19463  0.61578  1.0000
  C   C311      1.0  0.63835  0.18543  0.61454  1.0000
  C   C312      1.0  0.64980  0.18402  0.53320  1.0000
  H   H191      1.0  0.59783  0.20749  0.53937  1.0000
  H   H192      1.0  0.66352  0.17744  0.53473  1.0000
  C   C313      1.0  0.01776  0.29451  0.36180  1.0000
  C   C314      1.0  0.03143  0.29949  0.44569  1.0000
  C   C315      1.0  0.06016  0.30974  0.44639  1.0000
  C   C316      1.0  0.07504  0.31916  0.36502  1.0000
  C   C317      1.0  0.07280  0.30996  0.52829  1.0000
  C   C318      1.0  0.05864  0.30403  0.60943  1.0000
  C   C319      1.0  0.03166  0.29820  0.61020  1.0000
  C   C320      1.0  0.01829  0.29601  0.52928  1.0000
  H   H193      1.0  0.09253  0.31436  0.53018  1.0000
  H   H194      1.0  0.99894  0.29256  0.53327  1.0000
  C   C321      1.0  0.77420  0.72356  0.36224  1.0000
  C   C322      1.0  0.76918  0.73224  0.44613  1.0000
  C   C323      1.0  0.75894  0.75073  0.44685  1.0000
  C   C324      1.0  0.74954  0.75617  0.36547  1.0000
  C   C325      1.0  0.75870  0.76314  0.52876  1.0000
  C   C326      1.0  0.76462  0.75492  0.60989  1.0000
  C   C327      1.0  0.77040  0.73374  0.61064  1.0000
  C   C328      1.0  0.77264  0.72258  0.52971  1.0000
  H   H195      1.0  0.75430  0.77848  0.53067  1.0000
  H   H196      1.0  0.77605  0.70666  0.53369  1.0000
  C   C329      1.0  0.34513  0.05094  0.36196  1.0000
  C   C330      1.0  0.33641  0.03722  0.44581  1.0000
  C   C331      1.0  0.31794  0.00849  0.44644  1.0000
  C   C332      1.0  0.31258  0.99366  0.36503  1.0000
  C   C333      1.0  0.30549  0.99581  0.52830  1.0000
  C   C334      1.0  0.31365  0.00992  0.60948  1.0000
  C   C335      1.0  0.33481  0.03689  0.61033  1.0000
  C   C336      1.0  0.34601  0.05032  0.52944  1.0000
  H   H197      1.0  0.29017  0.97606  0.53014  1.0000
  H   H198      1.0  0.36191  0.06967  0.53350  1.0000
  C   C337      1.0  0.07367  0.75152  0.36152  1.0000
  C   C338      1.0  0.05999  0.74652  0.44547  1.0000
  C   C339      1.0  0.03126  0.73628  0.44629  1.0000
  C   C340      1.0  0.01639  0.72689  0.36496  1.0000
  C   C341      1.0  0.01862  0.73605  0.52825  1.0000
  C   C342      1.0  0.03276  0.74193  0.60934  1.0000
  C   C343      1.0  0.05974  0.74777  0.60998  1.0000
  C   C344      1.0  0.07313  0.75000  0.52900  1.0000
  H   H199      1.0  0.99889  0.73165  0.53022  1.0000
  H   H200      1.0  0.09247  0.75341  0.53290  1.0000
  C   C345      1.0  0.31717  0.32243  0.36196  1.0000
  C   C346      1.0  0.32213  0.31373  0.44589  1.0000
  C   C347      1.0  0.33238  0.29525  0.44671  1.0000
  C   C348      1.0  0.34183  0.28980  0.36539  1.0000
  C   C349      1.0  0.33258  0.28284  0.52865  1.0000
  C   C350      1.0  0.32663  0.29106  0.60974  1.0000
  C   C351      1.0  0.32080  0.31221  0.61041  1.0000
  C   C352      1.0  0.31863  0.32339  0.52944  1.0000
  H   H201      1.0  0.33698  0.26750  0.53061  1.0000
  H   H202      1.0  0.31518  0.33929  0.53336  1.0000
  C   C353      1.0  0.74627  0.99507  0.36206  1.0000
  C   C354      1.0  0.75496  0.00875  0.44595  1.0000
  C   C355      1.0  0.77344  0.03747  0.44667  1.0000
  C   C356      1.0  0.77888  0.05234  0.36530  1.0000
  C   C357      1.0  0.78586  0.05011  0.52857  1.0000
  C   C358      1.0  0.77764  0.03596  0.60970  1.0000
  C   C359      1.0  0.75646  0.00899  0.61046  1.0000
  C   C360      1.0  0.74530  0.99560  0.52954  1.0000
  H   H203      1.0  0.80119  0.06985  0.53047  1.0000
  H   H204      1.0  0.72939  0.97626  0.53353  1.0000
