data_image0
_chemical_formula_structural       C3NOCHNHC3NOCHNHC3NOCHNHCNCNCNC18H12C3O3CNCNCNC18H12C3O3C3NOCHNHC3NOCHNHC3NOCHNH
_chemical_formula_sum              "C72 N18 O12 H36"
_cell_length_a       36.7972
_cell_length_b       36.7966
_cell_length_c       15.0694
_cell_angle_alpha    90
_cell_angle_beta     90
_cell_angle_gamma    120

_space_group_name_H-M_alt    "P 1"
_space_group_IT_number       1

loop_
  _space_group_symop_operation_xyz
  'x, y, z'

loop_
  _atom_site_type_symbol
  _atom_site_label
  _atom_site_symmetry_multiplicity
  _atom_site_fract_x
  _atom_site_fract_y
  _atom_site_fract_z
  _atom_site_occupancy
  C   C1        1.0  0.47014  0.51508  0.30759  1.0000
  C   C2        1.0  0.48788  0.50205  0.24035  1.0000
  C   C3        1.0  0.51286  0.48461  0.26135  1.0000
  N   N1        1.0  0.52225  0.47290  0.18517  1.0000
  O   O1        1.0  0.48187  0.50221  0.15122  1.0000
  C   C4        1.0  0.50400  0.48379  0.12157  1.0000
  H   H1        1.0  0.50574  0.47785  0.05600  1.0000
  N   N2        1.0  0.44782  0.53429  0.28670  1.0000
  H   H2        1.0  0.45913  0.55512  0.23929  1.0000
  C   C5        1.0  0.47916  0.95392  0.30756  1.0000
  C   C6        1.0  0.49230  0.98471  0.24035  1.0000
  C   C7        1.0  0.50975  0.02713  0.26138  1.0000
  N   N3        1.0  0.52135  0.04824  0.18520  1.0000
  O   O2        1.0  0.49201  0.97855  0.15119  1.0000
  C   C8        1.0  0.51044  0.01910  0.12158  1.0000
  H   H3        1.0  0.51622  0.02677  0.05597  1.0000
  N   N4        1.0  0.45993  0.91239  0.28666  1.0000
  H   H4        1.0  0.43912  0.90289  0.23923  1.0000
  C   C9        1.0  0.04031  0.52408  0.30755  1.0000
  C   C10       1.0  0.00954  0.50637  0.24034  1.0000
  C   C11       1.0  0.96711  0.48141  0.26138  1.0000
  N   N5        1.0  0.94600  0.47193  0.18520  1.0000
  O   O3        1.0  0.01568  0.51230  0.15119  1.0000
  C   C12       1.0  0.97513  0.49022  0.12158  1.0000
  H   H5        1.0  0.96746  0.48825  0.05597  1.0000
  N   N6        1.0  0.08184  0.54641  0.28666  1.0000
  H   H6        1.0  0.09135  0.53510  0.23924  1.0000
  C   C13       1.0  0.28717  0.64884  0.30693  1.0000
  N   N7        1.0  0.30348  0.62288  0.30712  1.0000
  C   C14       1.0  0.34539  0.63719  0.30698  1.0000
  N   N8        1.0  0.37135  0.67946  0.30712  1.0000
  C   C15       1.0  0.35704  0.70706  0.30693  1.0000
  N   N9        1.0  0.31477  0.69075  0.30708  1.0000
  C   C16       1.0  0.36148  0.60917  0.30870  1.0000
  C   C17       1.0  0.33454  0.56516  0.31494  1.0000
  C   C18       1.0  0.35076  0.53776  0.31961  1.0000
  C   C19       1.0  0.39448  0.55338  0.31653  1.0000
  C   C20       1.0  0.42144  0.59725  0.31007  1.0000
  C   C21       1.0  0.40526  0.62460  0.30619  1.0000
  C   C22       1.0  0.24306  0.63275  0.30861  1.0000
  C   C23       1.0  0.21471  0.58897  0.30609  1.0000
  C   C24       1.0  0.17118  0.57279  0.30991  1.0000
  C   C25       1.0  0.15427  0.59976  0.31640  1.0000
  C   C26       1.0  0.18238  0.64348  0.31949  1.0000
  C   C27       1.0  0.22599  0.65969  0.31484  1.0000
  C   C28       1.0  0.38506  0.75117  0.30863  1.0000
  C   C29       1.0  0.36963  0.77952  0.30610  1.0000
  C   C30       1.0  0.39697  0.82305  0.30991  1.0000
  C   C31       1.0  0.44085  0.83996  0.31642  1.0000
  C   C32       1.0  0.45646  0.81185  0.31953  1.0000
  C   C33       1.0  0.42907  0.76824  0.31485  1.0000
  H   H7        1.0  0.15209  0.54088  0.31108  1.0000
  H   H8        1.0  0.22531  0.56806  0.30267  1.0000
  H   H9        1.0  0.17138  0.66403  0.32481  1.0000
  H   H10       1.0  0.24512  0.69157  0.31754  1.0000
  H   H11       1.0  0.33812  0.76891  0.30260  1.0000
  H   H12       1.0  0.38416  0.84215  0.31101  1.0000
  H   H13       1.0  0.44182  0.74912  0.31760  1.0000
  H   H14       1.0  0.48802  0.82286  0.32485  1.0000
  H   H15       1.0  0.42617  0.65611  0.30274  1.0000
  H   H16       1.0  0.45336  0.61007  0.31116  1.0000
  H   H17       1.0  0.33021  0.50621  0.32490  1.0000
  H   H18       1.0  0.30267  0.55241  0.31762  1.0000
  C   C34       1.0  0.11037  0.58300  0.32599  1.0000
  C   C35       1.0  0.46801  0.88387  0.32598  1.0000
  C   C36       1.0  0.41124  0.52623  0.32608  1.0000
  O   O4        1.0  0.39009  0.49170  0.37773  1.0000
  O   O5        1.0  0.50253  0.89724  0.37765  1.0000
  O   O6        1.0  0.09699  0.60416  0.37763  1.0000
  C   C37       1.0  0.70592  0.34656  0.35042  1.0000
  N   N10       1.0  0.68960  0.37252  0.35027  1.0000
  C   C38       1.0  0.64769  0.35821  0.35045  1.0000
  N   N11       1.0  0.62173  0.31593  0.35031  1.0000
  C   C39       1.0  0.63603  0.28833  0.35046  1.0000
  N   N12       1.0  0.67831  0.30464  0.35029  1.0000
  C   C40       1.0  0.63161  0.38623  0.34876  1.0000
  C   C41       1.0  0.65855  0.43024  0.34250  1.0000
  C   C42       1.0  0.64234  0.45764  0.33785  1.0000
  C   C43       1.0  0.59862  0.44203  0.34099  1.0000
  C   C44       1.0  0.57165  0.39816  0.34753  1.0000
  C   C45       1.0  0.58783  0.37081  0.35130  1.0000
  C   C46       1.0  0.75002  0.36263  0.34872  1.0000
  C   C47       1.0  0.77838  0.40641  0.35121  1.0000
  C   C48       1.0  0.82190  0.42258  0.34738  1.0000
  C   C49       1.0  0.83880  0.39561  0.34098  1.0000
  C   C50       1.0  0.81069  0.35189  0.33792  1.0000
  C   C51       1.0  0.76708  0.33568  0.34253  1.0000
  C   C52       1.0  0.60802  0.24422  0.34879  1.0000
  C   C53       1.0  0.62344  0.21587  0.35134  1.0000
  C   C54       1.0  0.59610  0.17234  0.34756  1.0000
  C   C55       1.0  0.55222  0.15543  0.34110  1.0000
  C   C56       1.0  0.53661  0.18354  0.33798  1.0000
  C   C57       1.0  0.56401  0.22715  0.34258  1.0000
  H   H19       1.0  0.84101  0.45450  0.34632  1.0000
  H   H20       1.0  0.76778  0.42733  0.35466  1.0000
  H   H21       1.0  0.82169  0.33133  0.33268  1.0000
  H   H22       1.0  0.74795  0.30381  0.33988  1.0000
  H   H23       1.0  0.65496  0.22648  0.35475  1.0000
  H   H24       1.0  0.60892  0.15326  0.34640  1.0000
  H   H25       1.0  0.55126  0.24628  0.33989  1.0000
  H   H26       1.0  0.50505  0.17253  0.33269  1.0000
  H   H27       1.0  0.56692  0.33930  0.35474  1.0000
  H   H28       1.0  0.53974  0.38534  0.34633  1.0000
  H   H29       1.0  0.66289  0.48920  0.33251  1.0000
  H   H30       1.0  0.69042  0.44299  0.33979  1.0000
  C   C58       1.0  0.88271  0.41234  0.33150  1.0000
  C   C59       1.0  0.52508  0.11152  0.33152  1.0000
  C   C60       1.0  0.58187  0.46919  0.33138  1.0000
  O   O7        1.0  0.60302  0.50372  0.27973  1.0000
  O   O8        1.0  0.49054  0.09814  0.27990  1.0000
  O   O9        1.0  0.89608  0.39119  0.27984  1.0000
  C   C61       1.0  0.52299  0.48038  0.34989  1.0000
  C   C62       1.0  0.50527  0.49343  0.41712  1.0000
  C   C63       1.0  0.48032  0.51090  0.39613  1.0000
  N   N13       1.0  0.47085  0.52253  0.47232  1.0000
  O   O10       1.0  0.51123  0.49322  0.50627  1.0000
  C   C64       1.0  0.48910  0.51163  0.53592  1.0000
  H   H31       1.0  0.48726  0.51747  0.60151  1.0000
  N   N14       1.0  0.54529  0.46114  0.37075  1.0000
  H   H32       1.0  0.53397  0.44031  0.41816  1.0000
  C   C65       1.0  0.51395  0.04148  0.34993  1.0000
  C   C66       1.0  0.50087  0.01070  0.41715  1.0000
  C   C67       1.0  0.48336  0.96827  0.39611  1.0000
  N   N15       1.0  0.47170  0.94716  0.47229  1.0000
  O   O11       1.0  0.50109  0.01684  0.50630  1.0000
  C   C68       1.0  0.48255  0.97629  0.53590  1.0000
  H   H33       1.0  0.47690  0.96862  0.60152  1.0000
  N   N16       1.0  0.53316  0.08300  0.37085  1.0000
  H   H34       1.0  0.55398  0.09252  0.41826  1.0000
  C   C69       1.0  0.95276  0.47123  0.34991  1.0000
  C   C70       1.0  0.98354  0.48900  0.41713  1.0000
  C   C71       1.0  0.02596  0.51398  0.39611  1.0000
  N   N17       1.0  0.04707  0.52343  0.47228  1.0000
  O   O12       1.0  0.97739  0.48307  0.50628  1.0000
  C   C72       1.0  0.01794  0.50512  0.53589  1.0000
  H   H35       1.0  0.02561  0.50711  0.60151  1.0000
  N   N18       1.0  0.91123  0.44894  0.37080  1.0000
  H   H36       1.0  0.90172  0.46027  0.41819  1.0000
