data_image0
_chemical_formula_structural       CNC2O2HCNC2O2HCNC2O2HCNC2O2HCNC2O2HCNC2O2HNC3O2HNC3O2HNC3O2HNC3O2HNC3O2HNC3O2HNC3O2HNC3O2HNC3O2HNC3O2HNC3O2HNC3O2HC6H3C6H3C6H3C6H3C6H3C6H3C6H3C6H3C6H3C6H3C6H3C6H3NC3O2HNC3O2HNC3O2HNC3O2HNC3O2HNC3O2HCNC2O2HCNC2O2HCNC2O2HCNC2O2HCNC2O2HCNC2O2HCNC2O2HCNC2O2HCNC2O2HCNC2O2HCNC2O2HCNC2O2H
_chemical_formula_sum              "C180 N36 O72 H72"
_cell_length_a       37.2913
_cell_length_b       37.2913
_cell_length_c       14.8147
_cell_angle_alpha    90
_cell_angle_beta     90
_cell_angle_gamma    120

_space_group_name_H-M_alt    "P 1"
_space_group_IT_number       1

loop_
  _space_group_symop_operation_xyz
  'x, y, z'

loop_
  _atom_site_type_symbol
  _atom_site_label
  _atom_site_symmetry_multiplicity
  _atom_site_fract_x
  _atom_site_fract_y
  _atom_site_fract_z
  _atom_site_occupancy
  C   C1        1.0  0.18548  0.35407  0.36171  1.0000
  N   N1        1.0  0.23797  0.42052  0.31086  1.0000
  C   C2        1.0  0.22015  0.37862  0.30545  1.0000
  C   C3        1.0  0.23493  0.36265  0.23999  1.0000
  O   O1        1.0  0.27237  0.37874  0.22984  1.0000
  O   O2        1.0  0.21420  0.34441  0.17265  1.0000
  H   H1        1.0  0.18713  0.33410  0.16730  1.0000
  C   C4        1.0  0.65267  0.82584  0.36196  1.0000
  N   N2        1.0  0.58620  0.81182  0.31106  1.0000
  C   C5        1.0  0.62811  0.83600  0.30584  1.0000
  C   C6        1.0  0.64404  0.86675  0.24039  1.0000
  O   O3        1.0  0.62794  0.88810  0.23033  1.0000
  O   O4        1.0  0.66224  0.86425  0.17298  1.0000
  H   H2        1.0  0.67255  0.84749  0.16756  1.0000
  C   C7        1.0  0.18105  0.82137  0.36189  1.0000
  N   N3        1.0  0.19509  0.76890  0.31124  1.0000
  C   C8        1.0  0.17090  0.78660  0.30592  1.0000
  C   C9        1.0  0.14007  0.77165  0.24059  1.0000
  O   O5        1.0  0.11851  0.73416  0.23180  1.0000
  O   O6        1.0  0.14258  0.79229  0.17308  1.0000
  H   H3        1.0  0.15944  0.81932  0.16739  1.0000
  C   C10       1.0  0.82737  0.64674  0.36199  1.0000
  N   N4        1.0  0.77497  0.58019  0.31134  1.0000
  C   C11       1.0  0.79258  0.62208  0.30609  1.0000
  C   C12       1.0  0.77762  0.63801  0.24092  1.0000
  O   O7        1.0  0.74009  0.62169  0.23200  1.0000
  O   O8        1.0  0.79792  0.65578  0.17285  1.0000
  H   H4        1.0  0.82497  0.66613  0.16693  1.0000
  C   C13       1.0  0.36007  0.17499  0.36149  1.0000
  N   N5        1.0  0.42653  0.18891  0.31071  1.0000
  C   C14       1.0  0.38462  0.16487  0.30519  1.0000
  C   C15       1.0  0.36865  0.13414  0.23969  1.0000
  O   O9        1.0  0.38473  0.11279  0.22947  1.0000
  O   O10       1.0  0.35039  0.13664  0.17241  1.0000
  H   H5        1.0  0.34008  0.15340  0.16710  1.0000
  C   C16       1.0  0.83178  0.17964  0.36198  1.0000
  N   N6        1.0  0.81782  0.23209  0.31085  1.0000
  C   C17       1.0  0.84198  0.21435  0.30578  1.0000
  C   C18       1.0  0.87273  0.22910  0.24033  1.0000
  O   O11       1.0  0.89411  0.26654  0.23022  1.0000
  O   O12       1.0  0.87018  0.20838  0.17293  1.0000
  H   H6        1.0  0.85340  0.18132  0.16756  1.0000
  N   N7        1.0  0.23911  0.20686  0.31657  1.0000
  C   C19       1.0  0.22132  0.23096  0.30899  1.0000
  C   C20       1.0  0.18636  0.22123  0.36398  1.0000
  C   C21       1.0  0.23661  0.26163  0.24341  1.0000
  O   O13       1.0  0.27413  0.28287  0.23446  1.0000
  O   O14       1.0  0.21640  0.25906  0.17510  1.0000
  H   H7        1.0  0.18936  0.24237  0.16893  1.0000
  N   N8        1.0  0.79987  0.02675  0.31695  1.0000
  C   C22       1.0  0.77578  0.98485  0.30932  1.0000
  C   C23       1.0  0.78549  0.95961  0.36429  1.0000
  C   C24       1.0  0.74509  0.96949  0.24379  1.0000
  O   O15       1.0  0.72385  0.98577  0.23491  1.0000
  O   O16       1.0  0.74762  0.95183  0.17546  1.0000
  H   H8        1.0  0.76432  0.94149  0.16924  1.0000
  N   N9        1.0  0.98013  0.76767  0.31683  1.0000
  C   C25       1.0  0.02201  0.78541  0.30931  1.0000
  C   C26       1.0  0.04726  0.82040  0.36419  1.0000
  C   C27       1.0  0.03736  0.77005  0.24376  1.0000
  O   O17       1.0  0.02129  0.73250  0.23597  1.0000
  O   O18       1.0  0.05491  0.79026  0.17539  1.0000
  H   H9        1.0  0.06509  0.81726  0.16905  1.0000
  N   N10       1.0  0.77359  0.79393  0.31700  1.0000
  C   C28       1.0  0.79136  0.76981  0.30940  1.0000
  C   C29       1.0  0.82637  0.77956  0.36423  1.0000
  C   C30       1.0  0.77598  0.73908  0.24395  1.0000
  O   O19       1.0  0.73845  0.71786  0.23518  1.0000
  O   O20       1.0  0.79613  0.74154  0.17562  1.0000
  H   H10       1.0  0.82317  0.75821  0.16932  1.0000
  N   N11       1.0  0.21285  0.97413  0.31654  1.0000
  C   C31       1.0  0.23696  0.01602  0.30894  1.0000
  C   C32       1.0  0.22725  0.04127  0.36392  1.0000
  C   C33       1.0  0.26762  0.03137  0.24335  1.0000
  O   O21       1.0  0.28885  0.01508  0.23442  1.0000
  O   O22       1.0  0.26506  0.04902  0.17503  1.0000
  H   H11       1.0  0.24838  0.05937  0.16885  1.0000
  N   N12       1.0  0.03263  0.23316  0.31678  1.0000
  C   C34       1.0  0.99074  0.21540  0.30925  1.0000
  C   C35       1.0  0.96549  0.18046  0.36427  1.0000
  C   C36       1.0  0.97537  0.23074  0.24378  1.0000
  O   O23       1.0  0.99169  0.26827  0.23489  1.0000
  O   O24       1.0  0.95770  0.21057  0.17545  1.0000
  H   H12       1.0  0.94733  0.18352  0.16923  1.0000
  N   N13       1.0  0.24017  0.63694  0.23530  1.0000
  C   C37       1.0  0.23791  0.59989  0.22326  1.0000
  C   C38       1.0  0.22759  0.57341  0.29962  1.0000
  C   C39       1.0  0.25128  0.59275  0.14089  1.0000
  O   O25       1.0  0.27882  0.62168  0.09901  1.0000
  O   O26       1.0  0.23534  0.55863  0.10324  1.0000
  H   H13       1.0  0.21372  0.53579  0.12401  1.0000
  N   N14       1.0  0.37010  0.59709  0.23423  1.0000
  C   C40       1.0  0.40714  0.63186  0.22173  1.0000
  C   C41       1.0  0.43369  0.64831  0.29789  1.0000
  C   C42       1.0  0.41435  0.65238  0.13931  1.0000
  O   O27       1.0  0.38521  0.64888  0.09457  1.0000
  O   O28       1.0  0.44821  0.66893  0.10038  1.0000
  H   H14       1.0  0.47117  0.67080  0.12235  1.0000
  N   N15       1.0  0.40911  0.76677  0.23342  1.0000
  C   C43       1.0  0.37449  0.76936  0.22133  1.0000
  C   C44       1.0  0.35854  0.77986  0.29771  1.0000
  C   C45       1.0  0.35356  0.75586  0.13940  1.0000
  O   O29       1.0  0.35679  0.73006  0.09461  1.0000
  O   O30       1.0  0.33685  0.77309  0.10083  1.0000
  H   H15       1.0  0.33511  0.79425  0.12280  1.0000
  N   N16       1.0  0.77242  0.36410  0.23213  1.0000
  C   C46       1.0  0.77525  0.40142  0.22043  1.0000
  C   C47       1.0  0.78614  0.42784  0.29697  1.0000
  C   C48       1.0  0.76170  0.40905  0.13877  1.0000
  O   O31       1.0  0.73567  0.38015  0.09407  1.0000
  O   O32       1.0  0.77892  0.44306  0.10050  1.0000
  H   H16       1.0  0.80020  0.46588  0.12244  1.0000
  N   N17       1.0  0.64311  0.40292  0.23637  1.0000
  C   C49       1.0  0.60611  0.36806  0.22452  1.0000
  C   C50       1.0  0.57973  0.35205  0.30105  1.0000
  C   C51       1.0  0.59895  0.34745  0.14226  1.0000
  O   O33       1.0  0.62790  0.34892  0.10029  1.0000
  O   O34       1.0  0.56484  0.32931  0.10457  1.0000
  H   H17       1.0  0.54200  0.32808  0.12536  1.0000
  N   N18       1.0  0.60261  0.23278  0.23418  1.0000
  C   C52       1.0  0.63743  0.23067  0.22100  1.0000
  C   C53       1.0  0.65424  0.22086  0.29690  1.0000
  C   C54       1.0  0.65760  0.24382  0.13819  1.0000
  O   O35       1.0  0.65360  0.26909  0.09317  1.0000
  O   O36       1.0  0.67406  0.22647  0.09903  1.0000
  H   H18       1.0  0.67622  0.20558  0.12117  1.0000
  C   C55       1.0  0.09737  0.24285  0.37145  1.0000
  C   C56       1.0  0.12030  0.22192  0.36884  1.0000
  C   C57       1.0  0.16413  0.24340  0.36593  1.0000
  C   C58       1.0  0.18496  0.28721  0.36682  1.0000
  C   C59       1.0  0.16355  0.30965  0.36534  1.0000
  C   C60       1.0  0.11971  0.28675  0.36842  1.0000
  H   H19       1.0  0.21660  0.30320  0.37033  1.0000
  H   H20       1.0  0.10366  0.30243  0.36844  1.0000
  H   H21       1.0  0.10473  0.19025  0.36612  1.0000
  C   C61       1.0  0.76391  0.84900  0.37164  1.0000
  C   C62       1.0  0.78482  0.89286  0.36906  1.0000
  C   C63       1.0  0.76333  0.91520  0.36620  1.0000
  C   C64       1.0  0.71952  0.89221  0.36705  1.0000
  C   C65       1.0  0.69709  0.84835  0.36559  1.0000
  C   C66       1.0  0.72001  0.82743  0.36862  1.0000
  H   H22       1.0  0.70352  0.90784  0.37065  1.0000
  H   H23       1.0  0.70434  0.79570  0.36863  1.0000
  H   H24       1.0  0.81650  0.90898  0.36635  1.0000
  C   C67       1.0  0.15785  0.90941  0.37139  1.0000
  C   C68       1.0  0.11400  0.88646  0.36892  1.0000
  C   C69       1.0  0.09167  0.84264  0.36606  1.0000
  C   C70       1.0  0.11466  0.82182  0.36693  1.0000
  C   C71       1.0  0.15852  0.84325  0.36542  1.0000
  C   C72       1.0  0.17943  0.88710  0.36838  1.0000
  H   H25       1.0  0.09903  0.79019  0.37058  1.0000
  H   H26       1.0  0.21116  0.90316  0.36834  1.0000
  H   H27       1.0  0.09788  0.90202  0.36611  1.0000
  C   C73       1.0  0.91540  0.75800  0.37147  1.0000
  C   C74       1.0  0.89244  0.77890  0.36898  1.0000
  C   C75       1.0  0.84861  0.75740  0.36614  1.0000
  C   C76       1.0  0.82780  0.71359  0.36704  1.0000
  C   C77       1.0  0.84924  0.69117  0.36551  1.0000
  C   C78       1.0  0.89308  0.71410  0.36847  1.0000
  H   H28       1.0  0.79617  0.69758  0.37069  1.0000
  H   H29       1.0  0.90916  0.69845  0.36844  1.0000
  H   H30       1.0  0.90800  0.81058  0.36616  1.0000
  C   C79       1.0  0.24886  0.15187  0.37133  1.0000
  C   C80       1.0  0.22794  0.10801  0.36881  1.0000
  C   C81       1.0  0.24942  0.08567  0.36583  1.0000
  C   C82       1.0  0.29323  0.10864  0.36663  1.0000
  C   C83       1.0  0.31566  0.15250  0.36513  1.0000
  C   C84       1.0  0.29275  0.17344  0.36822  1.0000
  H   H31       1.0  0.30923  0.09301  0.37015  1.0000
  H   H32       1.0  0.30843  0.20516  0.36821  1.0000
  H   H33       1.0  0.19626  0.09190  0.36604  1.0000
  C   C85       1.0  0.85487  0.09150  0.37176  1.0000
  C   C86       1.0  0.89873  0.11443  0.36917  1.0000
  C   C87       1.0  0.92109  0.15825  0.36628  1.0000
  C   C88       1.0  0.89812  0.17910  0.36718  1.0000
  C   C89       1.0  0.85426  0.15769  0.36570  1.0000
  C   C90       1.0  0.83332  0.11384  0.36873  1.0000
  H   H34       1.0  0.91377  0.21073  0.37069  1.0000
  H   H35       1.0  0.80159  0.09780  0.36871  1.0000
  H   H36       1.0  0.91483  0.09885  0.36636  1.0000
  C   C91       1.0  0.31358  0.54953  0.32061  1.0000
  C   C92       1.0  0.29027  0.56903  0.30169  1.0000
  C   C93       1.0  0.24697  0.54947  0.31421  1.0000
  C   C94       1.0  0.22623  0.50799  0.34466  1.0000
  C   C95       1.0  0.24778  0.48588  0.35764  1.0000
  C   C96       1.0  0.29171  0.50788  0.34974  1.0000
  H   H37       1.0  0.19460  0.49275  0.34836  1.0000
  H   H38       1.0  0.30782  0.49256  0.35899  1.0000
  H   H39       1.0  0.30596  0.59994  0.28559  1.0000
  C   C97       1.0  0.45723  0.75807  0.31895  1.0000
  C   C98       1.0  0.43798  0.71534  0.29922  1.0000
  C   C99       1.0  0.45756  0.69165  0.31237  1.0000
  C   C100      1.0  0.49892  0.71244  0.34362  1.0000
  C   C101      1.0  0.52086  0.75607  0.35702  1.0000
  C   C102      1.0  0.49875  0.77788  0.34899  1.0000
  H   H40       1.0  0.51421  0.69610  0.34767  1.0000
  H   H41       1.0  0.51391  0.80925  0.35897  1.0000
  H   H42       1.0  0.40713  0.70004  0.28259  1.0000
  C   C103      1.0  0.24885  0.69364  0.32078  1.0000
  C   C104      1.0  0.29161  0.71704  0.30132  1.0000
  C   C105      1.0  0.31528  0.76038  0.31335  1.0000
  C   C106      1.0  0.29449  0.78107  0.34383  1.0000
  C   C107      1.0  0.25087  0.75940  0.35755  1.0000
  C   C108      1.0  0.22905  0.71545  0.35023  1.0000
  H   H43       1.0  0.31079  0.81272  0.34709  1.0000
  H   H44       1.0  0.19766  0.69929  0.35989  1.0000
  H   H45       1.0  0.30688  0.70144  0.28498  1.0000
  C   C109      1.0  0.69983  0.45113  0.32151  1.0000
  C   C110      1.0  0.72326  0.43183  0.30185  1.0000
  C   C111      1.0  0.76664  0.45158  0.31320  1.0000
  C   C112      1.0  0.78733  0.49305  0.34375  1.0000
  C   C113      1.0  0.76562  0.51495  0.35762  1.0000
  C   C114      1.0  0.72165  0.49277  0.35073  1.0000
  H   H46       1.0  0.81899  0.50850  0.34630  1.0000
  H   H47       1.0  0.70549  0.50799  0.36049  1.0000
  H   H48       1.0  0.70766  0.40092  0.28567  1.0000
  C   C115      1.0  0.55552  0.24203  0.32140  1.0000
  C   C116      1.0  0.57522  0.28491  0.30312  1.0000
  C   C117      1.0  0.55571  0.30871  0.31554  1.0000
  C   C118      1.0  0.51418  0.28802  0.34568  1.0000
  C   C119      1.0  0.49191  0.24431  0.35790  1.0000
  C   C120      1.0  0.51379  0.22227  0.34994  1.0000
  H   H49       1.0  0.49897  0.30446  0.34898  1.0000
  H   H50       1.0  0.49834  0.19081  0.35860  1.0000
  H   H51       1.0  0.60617  0.30008  0.28734  1.0000
  C   C121      1.0  0.76399  0.30720  0.31704  1.0000
  C   C122      1.0  0.72132  0.28359  0.29673  1.0000
  C   C123      1.0  0.69763  0.24037  0.31077  1.0000
  C   C124      1.0  0.71841  0.21995  0.34298  1.0000
  C   C125      1.0  0.76204  0.24170  0.35636  1.0000
  C   C126      1.0  0.78378  0.28560  0.34807  1.0000
  H   H52       1.0  0.70208  0.18833  0.34732  1.0000
  H   H53       1.0  0.81514  0.30189  0.35825  1.0000
  H   H54       1.0  0.70598  0.29905  0.27976  1.0000
  N   N19       1.0  0.17300  0.37512  0.41650  1.0000
  C   C127      1.0  0.19090  0.41717  0.42160  1.0000
  C   C128      1.0  0.22602  0.44167  0.36653  1.0000
  C   C129      1.0  0.17522  0.43369  0.48358  1.0000
  O   O37       1.0  0.13766  0.41681  0.49267  1.0000
  O   O38       1.0  0.19576  0.45432  0.54901  1.0000
  H   H55       1.0  0.22289  0.46531  0.55505  1.0000
  N   N20       1.0  0.63162  0.79220  0.41648  1.0000
  C   C130      1.0  0.58957  0.76800  0.42147  1.0000
  C   C131      1.0  0.56505  0.77867  0.36657  1.0000
  C   C132      1.0  0.57305  0.73566  0.48306  1.0000
  O   O39       1.0  0.59026  0.71535  0.49318  1.0000
  O   O40       1.0  0.55210  0.73515  0.54829  1.0000
  H   H56       1.0  0.54080  0.75102  0.55425  1.0000
  N   N21       1.0  0.21472  0.83405  0.41632  1.0000
  C   C133      1.0  0.23896  0.81625  0.42141  1.0000
  C   C134      1.0  0.22829  0.78102  0.36670  1.0000
  C   C135      1.0  0.27134  0.83216  0.48291  1.0000
  O   O41       1.0  0.29166  0.86970  0.49275  1.0000
  O   O42       1.0  0.27187  0.81183  0.54833  1.0000
  H   H57       1.0  0.25599  0.78467  0.55449  1.0000
  N   N22       1.0  0.84014  0.62579  0.41632  1.0000
  C   C136      1.0  0.82241  0.58375  0.42136  1.0000
  C   C137      1.0  0.78720  0.55916  0.36664  1.0000
  C   C138      1.0  0.83842  0.56732  0.48272  1.0000
  O   O43       1.0  0.87597  0.58460  0.49242  1.0000
  O   O44       1.0  0.81816  0.54645  0.54820  1.0000
  H   H58       1.0  0.79100  0.53512  0.55446  1.0000
  N   N23       1.0  0.38112  0.20847  0.41637  1.0000
  C   C139      1.0  0.42317  0.23258  0.42155  1.0000
  C   C140      1.0  0.44767  0.22197  0.36649  1.0000
  C   C141      1.0  0.43969  0.26473  0.48369  1.0000
  O   O45       1.0  0.42288  0.28548  0.49273  1.0000
  O   O46       1.0  0.46018  0.26467  0.54925  1.0000
  H   H59       1.0  0.47110  0.24847  0.55530  1.0000
  N   N24       1.0  0.79815  0.16711  0.41647  1.0000
  C   C142      1.0  0.77397  0.18499  0.42134  1.0000
  C   C143      1.0  0.78466  0.22014  0.36632  1.0000
  C   C144      1.0  0.74162  0.16922  0.48291  1.0000
  O   O47       1.0  0.72132  0.13171  0.49323  1.0000
  O   O48       1.0  0.74107  0.18973  0.54796  1.0000
  H   H60       1.0  0.75693  0.21691  0.55378  1.0000
  C   C145      1.0  0.22659  0.17401  0.37326  1.0000
  N   N25       1.0  0.17377  0.18832  0.42051  1.0000
  C   C146      1.0  0.19153  0.16420  0.42801  1.0000
  C   C147      1.0  0.17596  0.13329  0.49313  1.0000
  O   O49       1.0  0.13838  0.11217  0.50114  1.0000
  O   O50       1.0  0.19614  0.13552  0.56125  1.0000
  H   H61       1.0  0.22316  0.15223  0.56771  1.0000
  C   C148      1.0  0.83273  0.04707  0.37365  1.0000
  N   N26       1.0  0.81840  0.97992  0.42083  1.0000
  C   C149      1.0  0.84254  0.02182  0.42835  1.0000
  C   C150      1.0  0.87344  0.03721  0.49344  1.0000
  O   O51       1.0  0.89425  0.02042  0.50172  1.0000
  O   O52       1.0  0.87116  0.05482  0.56203  1.0000
  H   H62       1.0  0.85457  0.06527  0.56863  1.0000
  C   C151      1.0  0.95981  0.78026  0.37342  1.0000
  N   N27       1.0  0.02696  0.83306  0.42061  1.0000
  C   C152      1.0  0.98507  0.81533  0.42811  1.0000
  C   C153      1.0  0.96976  0.83098  0.49304  1.0000
  O   O53       1.0  0.98651  0.86854  0.50202  1.0000
  O   O54       1.0  0.95163  0.81089  0.56112  1.0000
  H   H63       1.0  0.94109  0.78384  0.56757  1.0000
  C   C154      1.0  0.78618  0.82684  0.37357  1.0000
  N   N28       1.0  0.83902  0.81253  0.42064  1.0000
  C   C155      1.0  0.82129  0.83669  0.42814  1.0000
  C   C156      1.0  0.83692  0.86762  0.49314  1.0000
  O   O55       1.0  0.87448  0.88845  0.50212  1.0000
  O   O56       1.0  0.81683  0.86562  0.56126  1.0000
  H   H64       1.0  0.78978  0.84908  0.56770  1.0000
  C   C157      1.0  0.17999  0.95383  0.37325  1.0000
  N   N29       1.0  0.19434  0.02097  0.42047  1.0000
  C   C158      1.0  0.17020  0.97908  0.42799  1.0000
  C   C159      1.0  0.13930  0.96377  0.49312  1.0000
  O   O57       1.0  0.11819  0.98023  0.50112  1.0000
  O   O58       1.0  0.14154  0.94584  0.56126  1.0000
  H   H65       1.0  0.15824  0.93552  0.56773  1.0000
  C   C160      1.0  0.05295  0.22059  0.37341  1.0000
  N   N30       1.0  0.98580  0.16783  0.42074  1.0000
  C   C161      1.0  0.02769  0.18554  0.42816  1.0000
  C   C162      1.0  0.04310  0.17001  0.49320  1.0000
  O   O59       1.0  0.02626  0.13241  0.50149  1.0000
  O   O60       1.0  0.06074  0.18991  0.56177  1.0000
  H   H66       1.0  0.07122  0.21695  0.56836  1.0000
  C   C163      1.0  0.22943  0.65003  0.31085  1.0000
  N   N31       1.0  0.21587  0.58581  0.37526  1.0000
  C   C164      1.0  0.21358  0.62119  0.38324  1.0000
  C   C165      1.0  0.20553  0.63167  0.46757  1.0000
  O   O61       1.0  0.22316  0.62758  0.53298  1.0000
  O   O62       1.0  0.17157  0.62836  0.48469  1.0000
  H   H67       1.0  0.15370  0.62724  0.44376  1.0000
  C   C166      1.0  0.35719  0.57361  0.31025  1.0000
  N   N32       1.0  0.42131  0.62452  0.37404  1.0000
  C   C167      1.0  0.38599  0.58683  0.38271  1.0000
  C   C168      1.0  0.37555  0.56886  0.46761  1.0000
  O   O63       1.0  0.38009  0.59104  0.53244  1.0000
  O   O64       1.0  0.37816  0.53789  0.48566  1.0000
  H   H68       1.0  0.37897  0.52079  0.44523  1.0000
  C   C169      1.0  0.43292  0.77737  0.30895  1.0000
  N   N33       1.0  0.38258  0.79137  0.37348  1.0000
  C   C170      1.0  0.42015  0.79342  0.38134  1.0000
  C   C171      1.0  0.43854  0.80126  0.46588  1.0000
  O   O65       1.0  0.41669  0.78265  0.53043  1.0000
  O   O66       1.0  0.46876  0.83543  0.48353  1.0000
  H   H69       1.0  0.48545  0.85356  0.44290  1.0000
  C   C172      1.0  0.78311  0.35083  0.30744  1.0000
  N   N34       1.0  0.79794  0.41532  0.37229  1.0000
  C   C173      1.0  0.79982  0.37968  0.37968  1.0000
  C   C174      1.0  0.80806  0.36903  0.46361  1.0000
  O   O67       1.0  0.78932  0.37193  0.52835  1.0000
  O   O68       1.0  0.84259  0.37401  0.48151  1.0000
  H   H70       1.0  0.86088  0.37583  0.44090  1.0000
  C   C175      1.0  0.65621  0.42686  0.31176  1.0000
  N   N35       1.0  0.59204  0.37623  0.37654  1.0000
  C   C176      1.0  0.62740  0.41395  0.38421  1.0000
  C   C177      1.0  0.63790  0.43266  0.46836  1.0000
  O   O69       1.0  0.63387  0.41108  0.53401  1.0000
  O   O70       1.0  0.63450  0.46329  0.48513  1.0000
  H   H71       1.0  0.63333  0.47993  0.44400  1.0000
  C   C178      1.0  0.57938  0.22230  0.31062  1.0000
  N   N36       1.0  0.63088  0.20970  0.37368  1.0000
  C   C179      1.0  0.59321  0.20729  0.38306  1.0000
  C   C180      1.0  0.57563  0.20004  0.46836  1.0000
  O   O71       1.0  0.59815  0.21746  0.53286  1.0000
  O   O72       1.0  0.54430  0.16681  0.48683  1.0000
  H   H72       1.0  0.52693  0.14898  0.44664  1.0000
