data_image0
_chemical_formula_structural       C15NH3NHC3NH3NHC3NH3NHC3NH3NHC3NH3NHC3NH3NHCN3HCN3HCN3HCN3HCN3HCN3HC3NH3NHC3NH3NHC3NH3NHC3NH3NHC3NH3NHC3NH3NHC5H3C2O3C5H3C2O3C5H3C2O3C5H3C2O3C5H3C2O3C5H3C2O3C6H3C3O3C6H3C3O3C6H3C3O3C6H3C3O3C6H3C3O3C6H3C3O3CN3HCN3HCN3HCN3HCN3HCN3HC3NH3NHC3NH3NHC3NH3NHC3NH3NHC3NH3NHC3NH3NHCN3HCN3HCN3HCN3HCN3HCN3H
_chemical_formula_sum              "C180 N90 H126 O36"
_cell_length_a       58.6846
_cell_length_b       58.6846
_cell_length_c       15.0656
_cell_angle_alpha    90
_cell_angle_beta     90
_cell_angle_gamma    120

_space_group_name_H-M_alt    "P 1"
_space_group_IT_number       1

loop_
  _space_group_symop_operation_xyz
  'x, y, z'

loop_
  _atom_site_type_symbol
  _atom_site_label
  _atom_site_symmetry_multiplicity
  _atom_site_fract_x
  _atom_site_fract_y
  _atom_site_fract_z
  _atom_site_occupancy
  C   C1        1.0  0.09966  0.43980  0.36456  1.0000
  C   C2        1.0  0.07631  0.41534  0.35416  1.0000
  C   C3        1.0  0.57362  0.67773  0.36446  1.0000
  C   C4        1.0  0.59810  0.67888  0.35416  1.0000
  C   C5        1.0  0.33601  0.91383  0.36488  1.0000
  C   C6        1.0  0.33498  0.93722  0.35412  1.0000
  C   C7        1.0  0.90634  0.58064  0.36470  1.0000
  C   C8        1.0  0.92977  0.60506  0.35473  1.0000
  C   C9        1.0  0.43255  0.34321  0.36554  1.0000
  C   C10       1.0  0.40814  0.34225  0.35567  1.0000
  C   C11       1.0  0.66997  0.10714  0.36516  1.0000
  C   C12       1.0  0.67091  0.08368  0.35507  1.0000
  C   C13       1.0  0.23298  0.45299  0.18991  1.0000
  C   C14       1.0  0.21061  0.45610  0.19333  1.0000
  C   C15       1.0  0.19844  0.45321  0.27738  1.0000
  N   N1        1.0  0.20214  0.46237  0.11820  1.0000
  H   H1        1.0  0.21119  0.46472  0.06182  1.0000
  H   H2        1.0  0.18756  0.46577  0.11891  1.0000
  H   H3        1.0  0.24258  0.45510  0.13107  1.0000
  N   N2        1.0  0.17623  0.45460  0.28997  1.0000
  H   H4        1.0  0.16223  0.44577  0.24622  1.0000
  C   C16       1.0  0.56070  0.79786  0.18829  1.0000
  C   C17       1.0  0.55742  0.77231  0.19184  1.0000
  C   C18       1.0  0.56013  0.76296  0.27601  1.0000
  N   N3        1.0  0.55118  0.75757  0.11670  1.0000
  H   H5        1.0  0.54896  0.76433  0.06022  1.0000
  H   H6        1.0  0.54766  0.73956  0.11749  1.0000
  H   H7        1.0  0.55871  0.80539  0.12938  1.0000
  N   N4        1.0  0.55866  0.73932  0.28871  1.0000
  H   H8        1.0  0.56750  0.73413  0.24507  1.0000
  C   C19       1.0  0.21577  0.78051  0.19096  1.0000
  C   C20       1.0  0.24125  0.80288  0.19448  1.0000
  C   C21       1.0  0.25051  0.81504  0.27856  1.0000
  N   N5        1.0  0.25601  0.81139  0.11938  1.0000
  H   H9        1.0  0.24932  0.80235  0.06296  1.0000
  H   H10       1.0  0.27398  0.82597  0.12015  1.0000
  H   H11       1.0  0.20830  0.77094  0.13207  1.0000
  N   N6        1.0  0.27410  0.83726  0.29123  1.0000
  H   H12       1.0  0.27926  0.85125  0.24744  1.0000
  C   C22       1.0  0.77326  0.56821  0.19044  1.0000
  C   C23       1.0  0.79560  0.56504  0.19370  1.0000
  C   C24       1.0  0.80774  0.56781  0.27773  1.0000
  N   N7        1.0  0.80408  0.55884  0.11842  1.0000
  H   H13       1.0  0.79511  0.55669  0.06196  1.0000
  H   H14       1.0  0.81871  0.55552  0.11892  1.0000
  H   H15       1.0  0.76368  0.56618  0.13163  1.0000
  N   N8        1.0  0.82991  0.56632  0.29023  1.0000
  H   H16       1.0  0.84394  0.57521  0.24662  1.0000
  C   C25       1.0  0.44479  0.22272  0.18896  1.0000
  C   C26       1.0  0.44795  0.24821  0.19275  1.0000
  C   C27       1.0  0.44523  0.25749  0.27706  1.0000
  N   N9        1.0  0.45411  0.26299  0.11771  1.0000
  H   H17       1.0  0.45634  0.25629  0.06114  1.0000
  H   H18       1.0  0.45754  0.28097  0.11865  1.0000
  H   H19       1.0  0.44682  0.21525  0.12996  1.0000
  N   N10       1.0  0.44672  0.28112  0.29005  1.0000
  H   H20       1.0  0.43783  0.28633  0.24666  1.0000
  C   C28       1.0  0.79062  0.23984  0.18887  1.0000
  C   C29       1.0  0.76508  0.21757  0.19250  1.0000
  C   C30       1.0  0.75573  0.20555  0.27672  1.0000
  N   N11       1.0  0.75033  0.20905  0.11738  1.0000
  H   H21       1.0  0.75709  0.21799  0.06085  1.0000
  H   H22       1.0  0.73232  0.19454  0.11821  1.0000
  H   H23       1.0  0.79814  0.24936  0.12994  1.0000
  N   N12       1.0  0.73206  0.18344  0.28957  1.0000
  H   H24       1.0  0.72683  0.16937  0.24608  1.0000
  C   C31       1.0  0.13924  0.60460  0.37273  1.0000
  N   N13       1.0  0.13857  0.56623  0.32694  1.0000
  N   N14       1.0  0.13954  0.58842  0.30899  1.0000
  N   N15       1.0  0.14025  0.62736  0.34643  1.0000
  H   H25       1.0  0.14990  0.63512  0.29160  1.0000
  C   C32       1.0  0.40882  0.55247  0.37354  1.0000
  N   N16       1.0  0.44722  0.59011  0.32761  1.0000
  N   N17       1.0  0.42501  0.56889  0.30974  1.0000
  N   N18       1.0  0.38605  0.53072  0.34729  1.0000
  H   H26       1.0  0.37831  0.53260  0.29237  1.0000
  C   C33       1.0  0.46089  0.87375  0.37404  1.0000
  N   N19       1.0  0.42329  0.87458  0.32801  1.0000
  N   N20       1.0  0.44449  0.87353  0.31020  1.0000
  N   N21       1.0  0.48263  0.87269  0.34788  1.0000
  H   H27       1.0  0.48077  0.86309  0.29294  1.0000
  C   C34       1.0  0.86614  0.41565  0.37374  1.0000
  N   N22       1.0  0.86692  0.45402  0.32731  1.0000
  N   N23       1.0  0.86590  0.43177  0.30972  1.0000
  N   N24       1.0  0.86514  0.39286  0.34777  1.0000
  H   H28       1.0  0.85554  0.38503  0.29292  1.0000
  C   C35       1.0  0.59737  0.46824  0.37307  1.0000
  N   N25       1.0  0.55915  0.43046  0.32678  1.0000
  N   N26       1.0  0.58131  0.45177  0.30912  1.0000
  N   N27       1.0  0.62007  0.49010  0.34700  1.0000
  H   H29       1.0  0.62794  0.48834  0.29221  1.0000
  C   C36       1.0  0.54545  0.14766  0.37440  1.0000
  N   N28       1.0  0.58306  0.14688  0.32816  1.0000
  N   N29       1.0  0.56186  0.14794  0.31047  1.0000
  N   N30       1.0  0.52369  0.14869  0.34834  1.0000
  H   H30       1.0  0.52554  0.15835  0.29357  1.0000
  C   C37       1.0  0.98914  0.37154  0.22372  1.0000
  C   C38       1.0  0.01674  0.38584  0.21208  1.0000
  C   C39       1.0  0.03275  0.39285  0.28936  1.0000
  N   N31       1.0  0.02687  0.39273  0.12884  1.0000
  H   H31       1.0  0.01545  0.38720  0.07689  1.0000
  H   H32       1.0  0.04567  0.40112  0.11805  1.0000
  H   H33       1.0  0.97730  0.36814  0.16980  1.0000
  N   N32       1.0  0.05880  0.41167  0.28881  1.0000
  H   H34       1.0  0.06406  0.42587  0.24579  1.0000
  C   C40       1.0  0.64202  0.63556  0.22422  1.0000
  C   C41       1.0  0.62773  0.64885  0.21239  1.0000
  C   C42       1.0  0.62067  0.65787  0.28951  1.0000
  N   N33       1.0  0.62087  0.65209  0.12908  1.0000
  H   H35       1.0  0.62642  0.64619  0.07721  1.0000
  H   H36       1.0  0.61247  0.66249  0.11820  1.0000
  H   H37       1.0  0.64547  0.62713  0.17038  1.0000
  N   N34       1.0  0.60179  0.66503  0.28893  1.0000
  H   H38       1.0  0.58759  0.65596  0.24601  1.0000
  C   C43       1.0  0.37838  0.02423  0.22240  1.0000
  C   C44       1.0  0.36504  0.99661  0.21109  1.0000
  C   C45       1.0  0.35605  0.98067  0.28852  1.0000
  N   N35       1.0  0.36173  0.98638  0.12799  1.0000
  H   H39       1.0  0.36761  0.99774  0.07589  1.0000
  H   H40       1.0  0.35130  0.96756  0.11747  1.0000
  H   H41       1.0  0.38679  0.03600  0.16835  1.0000
  N   N36       1.0  0.34881  0.95462  0.28852  1.0000
  H   H42       1.0  0.35780  0.94936  0.24569  1.0000
  C   C46       1.0  0.01688  0.64947  0.22379  1.0000
  C   C47       1.0  0.98929  0.63491  0.21235  1.0000
  C   C48       1.0  0.97332  0.62775  0.28974  1.0000
  N   N37       1.0  0.97912  0.62795  0.12918  1.0000
  H   H43       1.0  0.99050  0.63339  0.07714  1.0000
  H   H44       1.0  0.96029  0.61916  0.11851  1.0000
  H   H45       1.0  0.02872  0.65297  0.16981  1.0000
  N   N38       1.0  0.94733  0.60875  0.28959  1.0000
  H   H46       1.0  0.94218  0.59456  0.24660  1.0000
  C   C49       1.0  0.36405  0.38527  0.22472  1.0000
  C   C50       1.0  0.37847  0.37209  0.21327  1.0000
  C   C51       1.0  0.38554  0.36319  0.29067  1.0000
  N   N39       1.0  0.38541  0.36886  0.13009  1.0000
  H   H47       1.0  0.37984  0.37468  0.07807  1.0000
  H   H48       1.0  0.39388  0.35852  0.11942  1.0000
  H   H49       1.0  0.36060  0.39364  0.17072  1.0000
  N   N40       1.0  0.40443  0.35606  0.29029  1.0000
  H   H50       1.0  0.41860  0.36499  0.24718  1.0000
  C   C52       1.0  0.62775  0.99652  0.22425  1.0000
  C   C53       1.0  0.64089  0.02412  0.21278  1.0000
  C   C54       1.0  0.64990  0.04012  0.29009  1.0000
  N   N41       1.0  0.64401  0.03429  0.12964  1.0000
  H   H51       1.0  0.63813  0.02289  0.07763  1.0000
  H   H52       1.0  0.65432  0.05310  0.11895  1.0000
  H   H53       1.0  0.61934  0.98469  0.17031  1.0000
  N   N42       1.0  0.65694  0.06611  0.29002  1.0000
  H   H54       1.0  0.64794  0.07133  0.24709  1.0000
  C   C55       1.0  0.14775  0.46570  0.37118  1.0000
  C   C56       1.0  0.14634  0.48897  0.37832  1.0000
  C   C57       1.0  0.12183  0.48812  0.37645  1.0000
  C   C58       1.0  0.09869  0.46334  0.36836  1.0000
  C   C59       1.0  0.12427  0.44115  0.36700  1.0000
  H   H55       1.0  0.08075  0.46235  0.36630  1.0000
  H   H56       1.0  0.12513  0.42418  0.36120  1.0000
  H   H57       1.0  0.16341  0.50681  0.37778  1.0000
  C   C60       1.0  0.17217  0.46678  0.36016  1.0000
  C   C61       1.0  0.12043  0.51161  0.37309  1.0000
  O   O1        1.0  0.07208  0.39562  0.41053  1.0000
  O   O2        1.0  0.19238  0.48310  0.41356  1.0000
  O   O3        1.0  0.10137  0.51142  0.32168  1.0000
  C   C62       1.0  0.54764  0.69985  0.37044  1.0000
  C   C63       1.0  0.52440  0.67516  0.37812  1.0000
  C   C64       1.0  0.52530  0.65152  0.37664  1.0000
  C   C65       1.0  0.55010  0.65319  0.36863  1.0000
  C   C66       1.0  0.57221  0.70096  0.36626  1.0000
  H   H58       1.0  0.55113  0.63626  0.36691  1.0000
  H   H59       1.0  0.58917  0.71880  0.36034  1.0000
  H   H60       1.0  0.50655  0.67434  0.37743  1.0000
  C   C67       1.0  0.54651  0.72315  0.35904  1.0000
  C   C68       1.0  0.50184  0.62661  0.37364  1.0000
  O   O4        1.0  0.61784  0.69448  0.41028  1.0000
  O   O5        1.0  0.53021  0.72708  0.41241  1.0000
  O   O6        1.0  0.50203  0.60769  0.32250  1.0000
  C   C69       1.0  0.31369  0.86575  0.37228  1.0000
  C   C70       1.0  0.33834  0.86707  0.37948  1.0000
  C   C71       1.0  0.36205  0.89154  0.37709  1.0000
  C   C72       1.0  0.36049  0.91472  0.36866  1.0000
  C   C73       1.0  0.31271  0.88927  0.36768  1.0000
  H   H61       1.0  0.37747  0.93263  0.36632  1.0000
  H   H62       1.0  0.29490  0.88846  0.36196  1.0000
  H   H63       1.0  0.33903  0.84997  0.37907  1.0000
  C   C74       1.0  0.29028  0.84136  0.36160  1.0000
  C   C75       1.0  0.38689  0.89284  0.37381  1.0000
  O   O7        1.0  0.31947  0.94153  0.41009  1.0000
  O   O8        1.0  0.28646  0.82115  0.41490  1.0000
  O   O9        1.0  0.40578  0.91181  0.32219  1.0000
  C   C76       1.0  0.85823  0.55493  0.37100  1.0000
  C   C77       1.0  0.85950  0.53157  0.37807  1.0000
  C   C78       1.0  0.88395  0.53229  0.37611  1.0000
  C   C79       1.0  0.90718  0.55702  0.36826  1.0000
  C   C80       1.0  0.88178  0.57941  0.36703  1.0000
  H   H64       1.0  0.92507  0.55791  0.36628  1.0000
  H   H65       1.0  0.88102  0.59644  0.36153  1.0000
  H   H66       1.0  0.84238  0.51379  0.37732  1.0000
  C   C81       1.0  0.83388  0.55401  0.36018  1.0000
  C   C82       1.0  0.88520  0.50873  0.37283  1.0000
  O   O10       1.0  0.93389  0.62484  0.41068  1.0000
  O   O11       1.0  0.81359  0.53757  0.41311  1.0000
  O   O12       1.0  0.90421  0.50879  0.32142  1.0000
  C   C83       1.0  0.45823  0.32079  0.37128  1.0000
  C   C84       1.0  0.48161  0.34540  0.37814  1.0000
  C   C85       1.0  0.48091  0.36914  0.37633  1.0000
  C   C86       1.0  0.45618  0.36766  0.36888  1.0000
  C   C87       1.0  0.43375  0.31988  0.36770  1.0000
  H   H67       1.0  0.45530  0.38467  0.36697  1.0000
  H   H68       1.0  0.41670  0.30210  0.36227  1.0000
  H   H69       1.0  0.49939  0.34606  0.37706  1.0000
  C   C88       1.0  0.45913  0.29735  0.36003  1.0000
  C   C89       1.0  0.50447  0.39395  0.37270  1.0000
  O   O13       1.0  0.38843  0.32674  0.41201  1.0000
  O   O14       1.0  0.47554  0.29340  0.41275  1.0000
  O   O15       1.0  0.50433  0.41287  0.32139  1.0000
  C   C90       1.0  0.69244  0.15525  0.37103  1.0000
  C   C91       1.0  0.66786  0.15404  0.37861  1.0000
  C   C92       1.0  0.64410  0.12960  0.37697  1.0000
  C   C93       1.0  0.64554  0.10635  0.36908  1.0000
  C   C94       1.0  0.69333  0.13167  0.36708  1.0000
  H   H70       1.0  0.62852  0.08847  0.36733  1.0000
  H   H71       1.0  0.71109  0.13239  0.36125  1.0000
  H   H72       1.0  0.66721  0.17116  0.37767  1.0000
  C   C95       1.0  0.71587  0.17958  0.35971  1.0000
  C   C96       1.0  0.61930  0.12839  0.37384  1.0000
  O   O16       1.0  0.68651  0.07949  0.41099  1.0000
  O   O17       1.0  0.71988  0.19991  0.41270  1.0000
  O   O18       1.0  0.60031  0.10939  0.32257  1.0000
  C   C97       1.0  0.45541  0.15504  0.27133  1.0000
  C   C98       1.0  0.47746  0.15548  0.31080  1.0000
  C   C99       1.0  0.47647  0.13212  0.34005  1.0000
  C   C100      1.0  0.45271  0.10805  0.32869  1.0000
  C   C101      1.0  0.43036  0.10686  0.28819  1.0000
  C   C102      1.0  0.43217  0.13060  0.25935  1.0000
  H   H73       1.0  0.45217  0.09092  0.34609  1.0000
  H   H74       1.0  0.41625  0.13012  0.22949  1.0000
  H   H75       1.0  0.49414  0.17320  0.32179  1.0000
  C   C103      1.0  0.45624  0.17878  0.24689  1.0000
  C   C104      1.0  0.40721  0.08229  0.27166  1.0000
  C   C105      1.0  0.49883  0.13272  0.37955  1.0000
  O   O19       1.0  0.39263  0.08025  0.19919  1.0000
  O   O20       1.0  0.47929  0.19865  0.21530  1.0000
  O   O21       1.0  0.49444  0.11422  0.44154  1.0000
  C   C106      1.0  0.69520  0.55818  0.27257  1.0000
  C   C107      1.0  0.67340  0.53613  0.31127  1.0000
  C   C108      1.0  0.65111  0.53726  0.34042  1.0000
  C   C109      1.0  0.65108  0.56119  0.32992  1.0000
  C   C110      1.0  0.67245  0.58356  0.29026  1.0000
  C   C111      1.0  0.69428  0.58159  0.26144  1.0000
  H   H76       1.0  0.63455  0.56185  0.34725  1.0000
  H   H77       1.0  0.70987  0.59752  0.23214  1.0000
  H   H78       1.0  0.67422  0.51929  0.32156  1.0000
  C   C112      1.0  0.71801  0.55716  0.24819  1.0000
  C   C113      1.0  0.67127  0.60687  0.27424  1.0000
  C   C114      1.0  0.62916  0.51489  0.37912  1.0000
  O   O22       1.0  0.68400  0.62157  0.20220  1.0000
  O   O23       1.0  0.71467  0.53414  0.21575  1.0000
  O   O24       1.0  0.61513  0.51925  0.44150  1.0000
  C   C115      1.0  0.85846  0.31798  0.27205  1.0000
  C   C116      1.0  0.85810  0.33966  0.31123  1.0000
  C   C117      1.0  0.88148  0.36200  0.34047  1.0000
  C   C118      1.0  0.90551  0.36219  0.32951  1.0000
  C   C119      1.0  0.90662  0.34093  0.28949  1.0000
  C   C120      1.0  0.88286  0.31906  0.26055  1.0000
  H   H79       1.0  0.92266  0.37874  0.34707  1.0000
  H   H80       1.0  0.88329  0.30356  0.23090  1.0000
  H   H81       1.0  0.84041  0.33874  0.32178  1.0000
  C   C121      1.0  0.83469  0.29514  0.24750  1.0000
  C   C122      1.0  0.93115  0.34224  0.27328  1.0000
  C   C123      1.0  0.88094  0.38384  0.37958  1.0000
  O   O25       1.0  0.93317  0.32958  0.20112  1.0000
  O   O26       1.0  0.81490  0.29840  0.21558  1.0000
  O   O27       1.0  0.89941  0.39794  0.44166  1.0000
  C   C124      1.0  0.55071  0.86589  0.27141  1.0000
  C   C125      1.0  0.52868  0.86556  0.31064  1.0000
  C   C126      1.0  0.52980  0.88895  0.34024  1.0000
  C   C127      1.0  0.55369  0.91294  0.32950  1.0000
  C   C128      1.0  0.57604  0.91402  0.28943  1.0000
  C   C129      1.0  0.57408  0.89025  0.26016  1.0000
  H   H82       1.0  0.55435  0.93010  0.34731  1.0000
  H   H83       1.0  0.58999  0.89065  0.23049  1.0000
  H   H84       1.0  0.51189  0.84788  0.32110  1.0000
  C   C130      1.0  0.54970  0.84209  0.24668  1.0000
  C   C131      1.0  0.59931  0.93853  0.27346  1.0000
  C   C132      1.0  0.50747  0.88845  0.37953  1.0000
  O   O28       1.0  0.61394  0.94062  0.20109  1.0000
  O   O29       1.0  0.52664  0.82238  0.21450  1.0000
  O   O30       1.0  0.51190  0.90691  0.44174  1.0000
  C   C133      1.0  0.31099  0.46279  0.27133  1.0000
  C   C134      1.0  0.33276  0.48480  0.31034  1.0000
  C   C135      1.0  0.35498  0.48358  0.33994  1.0000
  C   C136      1.0  0.35496  0.45963  0.32941  1.0000
  C   C137      1.0  0.33361  0.43730  0.28954  1.0000
  C   C138      1.0  0.31186  0.43935  0.26029  1.0000
  H   H85       1.0  0.37142  0.45890  0.34722  1.0000
  H   H86       1.0  0.29627  0.42344  0.23084  1.0000
  H   H87       1.0  0.33196  0.50164  0.32069  1.0000
  C   C139      1.0  0.28822  0.46385  0.24675  1.0000
  C   C140      1.0  0.33473  0.41395  0.27378  1.0000
  C   C141      1.0  0.37688  0.50589  0.37909  1.0000
  O   O31       1.0  0.32208  0.39927  0.20162  1.0000
  O   O32       1.0  0.29162  0.48691  0.21442  1.0000
  O   O33       1.0  0.39085  0.50143  0.44147  1.0000
  C   C142      1.0  0.14744  0.70248  0.27101  1.0000
  C   C143      1.0  0.14762  0.68065  0.30973  1.0000
  C   C144      1.0  0.12415  0.65841  0.33901  1.0000
  C   C145      1.0  0.10024  0.65848  0.32844  1.0000
  C   C146      1.0  0.09932  0.67989  0.28884  1.0000
  C   C147      1.0  0.12316  0.70166  0.25990  1.0000
  H   H88       1.0  0.08302  0.64201  0.34604  1.0000
  H   H89       1.0  0.12288  0.71730  0.23070  1.0000
  H   H90       1.0  0.16525  0.68143  0.32015  1.0000
  C   C148      1.0  0.17131  0.72527  0.24686  1.0000
  C   C149      1.0  0.07488  0.67883  0.27307  1.0000
  C   C150      1.0  0.12449  0.63646  0.37799  1.0000
  O   O34       1.0  0.07288  0.69149  0.20091  1.0000
  O   O35       1.0  0.19092  0.72187  0.21406  1.0000
  O   O36       1.0  0.10605  0.62247  0.44027  1.0000
  C   C151      1.0  0.24216  0.44683  0.26766  1.0000
  N   N43       1.0  0.20828  0.44672  0.34852  1.0000
  N   N44       1.0  0.22879  0.44372  0.34422  1.0000
  N   N45       1.0  0.26382  0.44416  0.27020  1.0000
  H   H91       1.0  0.26260  0.43022  0.30876  1.0000
  C   C152      1.0  0.56684  0.81319  0.26604  1.0000
  N   N46       1.0  0.56663  0.77930  0.34713  1.0000
  N   N47       1.0  0.56979  0.80287  0.34274  1.0000
  N   N48       1.0  0.56963  0.83757  0.26839  1.0000
  H   H92       1.0  0.58361  0.85029  0.30681  1.0000
  C   C153      1.0  0.20042  0.77129  0.26866  1.0000
  N   N49       1.0  0.23416  0.80517  0.34965  1.0000
  N   N50       1.0  0.21065  0.78465  0.34526  1.0000
  N   N51       1.0  0.17610  0.74963  0.27120  1.0000
  H   H93       1.0  0.16332  0.75071  0.30988  1.0000
  C   C154      1.0  0.76409  0.57430  0.26833  1.0000
  N   N52       1.0  0.79791  0.57424  0.34903  1.0000
  N   N53       1.0  0.77743  0.57730  0.34488  1.0000
  N   N54       1.0  0.74242  0.57695  0.27103  1.0000
  H   H94       1.0  0.74365  0.59091  0.30952  1.0000
  C   C155      1.0  0.43876  0.20736  0.26661  1.0000
  N   N55       1.0  0.43886  0.24113  0.34811  1.0000
  N   N56       1.0  0.43582  0.21761  0.34348  1.0000
  N   N57       1.0  0.43617  0.18307  0.26870  1.0000
  H   H95       1.0  0.42221  0.17024  0.30695  1.0000
  C   C156      1.0  0.80595  0.24907  0.26661  1.0000
  N   N58       1.0  0.77207  0.21543  0.34784  1.0000
  N   N59       1.0  0.79564  0.23585  0.34337  1.0000
  N   N60       1.0  0.83030  0.27071  0.26890  1.0000
  H   H96       1.0  0.84306  0.26948  0.30718  1.0000
  C   C157      1.0  0.13874  0.59703  0.46201  1.0000
  C   C158      1.0  0.13787  0.57306  0.48272  1.0000
  C   C159      1.0  0.13733  0.55712  0.41081  1.0000
  N   N61       1.0  0.13686  0.56583  0.56895  1.0000
  H   H97       1.0  0.13675  0.57687  0.61703  1.0000
  H   H98       1.0  0.13523  0.54906  0.58529  1.0000
  H   H99       1.0  0.13934  0.60915  0.51189  1.0000
  N   N62       1.0  0.13673  0.53366  0.42025  1.0000
  H   H100      1.0  0.14846  0.53277  0.46412  1.0000
  C   C160      1.0  0.41640  0.55959  0.46279  1.0000
  C   C161      1.0  0.44037  0.58269  0.48342  1.0000
  C   C162      1.0  0.45633  0.59803  0.41145  1.0000
  N   N63       1.0  0.44761  0.58895  0.56962  1.0000
  H   H101      1.0  0.43651  0.57789  0.61777  1.0000
  H   H102      1.0  0.46433  0.60414  0.58593  1.0000
  H   H103      1.0  0.40426  0.54811  0.51272  1.0000
  N   N64       1.0  0.47980  0.62089  0.42079  1.0000
  H   H104      1.0  0.48068  0.63355  0.46445  1.0000
  C   C163      1.0  0.45378  0.87426  0.46327  1.0000
  C   C164      1.0  0.43072  0.87522  0.48384  1.0000
  C   C165      1.0  0.41539  0.87583  0.41182  1.0000
  N   N65       1.0  0.42449  0.87627  0.57003  1.0000
  H   H105      1.0  0.43561  0.87634  0.61817  1.0000
  H   H106      1.0  0.40940  0.87797  0.58627  1.0000
  H   H107      1.0  0.46526  0.87362  0.51323  1.0000
  N   N66       1.0  0.39258  0.87652  0.42113  1.0000
  H   H108      1.0  0.37994  0.86486  0.46510  1.0000
  C   C166      1.0  0.86666  0.42333  0.46289  1.0000
  C   C167      1.0  0.86758  0.44734  0.48321  1.0000
  C   C168      1.0  0.86817  0.46323  0.41103  1.0000
  N   N67       1.0  0.86863  0.45468  0.56932  1.0000
  H   H109      1.0  0.86871  0.44368  0.61758  1.0000
  H   H110      1.0  0.87030  0.47148  0.58540  1.0000
  H   H111      1.0  0.86605  0.41125  0.51297  1.0000
  N   N68       1.0  0.86883  0.48672  0.42008  1.0000
  H   H112      1.0  0.85716  0.48771  0.46396  1.0000
  C   C169      1.0  0.58973  0.46108  0.46224  1.0000
  C   C170      1.0  0.56580  0.43790  0.48265  1.0000
  C   C171      1.0  0.54997  0.42250  0.41053  1.0000
  N   N69       1.0  0.55849  0.43160  0.56878  1.0000
  H   H113      1.0  0.56945  0.44275  0.61701  1.0000
  H   H114      1.0  0.54175  0.41640  0.58491  1.0000
  H   H115      1.0  0.60176  0.47260  0.51229  1.0000
  N   N70       1.0  0.52653  0.39961  0.41966  1.0000
  H   H116      1.0  0.52560  0.38698  0.46355  1.0000
  C   C172      1.0  0.55254  0.14707  0.46359  1.0000
  C   C173      1.0  0.57561  0.14611  0.48402  1.0000
  C   C174      1.0  0.59095  0.14556  0.41192  1.0000
  N   N71       1.0  0.58184  0.14499  0.57015  1.0000
  H   H117      1.0  0.57078  0.14498  0.61839  1.0000
  H   H118      1.0  0.59701  0.14340  0.58631  1.0000
  H   H119      1.0  0.54104  0.14765  0.51361  1.0000
  N   N72       1.0  0.61373  0.14482  0.42106  1.0000
  H   H120      1.0  0.62643  0.15650  0.46485  1.0000
  C   C175      1.0  0.97802  0.36430  0.30951  1.0000
  N   N73       1.0  0.02050  0.38497  0.36930  1.0000
  N   N74       1.0  0.99504  0.37165  0.37877  1.0000
  N   N75       1.0  0.95207  0.35506  0.32894  1.0000
  H   H121      1.0  0.94857  0.35981  0.38742  1.0000
  C   C176      1.0  0.64914  0.63163  0.31013  1.0000
  N   N76       1.0  0.62846  0.65346  0.36958  1.0000
  N   N77       1.0  0.64176  0.64130  0.37929  1.0000
  N   N78       1.0  0.65840  0.61495  0.32972  1.0000
  H   H122      1.0  0.65359  0.60667  0.38815  1.0000
  C   C177      1.0  0.38233  0.03543  0.30807  1.0000
  N   N79       1.0  0.36053  0.99301  0.36835  1.0000
  N   N80       1.0  0.37272  0.01848  0.37754  1.0000
  N   N81       1.0  0.39909  0.06138  0.32734  1.0000
  H   H123      1.0  0.40727  0.06491  0.38594  1.0000
  C   C178      1.0  0.02803  0.65676  0.30952  1.0000
  N   N82       1.0  0.98558  0.63570  0.36964  1.0000
  N   N83       1.0  0.01104  0.64922  0.37892  1.0000
  N   N84       1.0  0.05400  0.66610  0.32893  1.0000
  H   H124      1.0  0.05753  0.66134  0.38736  1.0000
  C   C179      1.0  0.35675  0.38914  0.31043  1.0000
  N   N85       1.0  0.37758  0.36751  0.37053  1.0000
  N   N86       1.0  0.36415  0.37955  0.37981  1.0000
  N   N87       1.0  0.34744  0.40580  0.32970  1.0000
  H   H125      1.0  0.35217  0.41407  0.38815  1.0000
  C   C180      1.0  0.62397  0.98539  0.30998  1.0000
  N   N88       1.0  0.64564  0.02784  0.36995  1.0000
  N   N89       1.0  0.63362  0.00238  0.37933  1.0000
  N   N90       1.0  0.60741  0.95940  0.32935  1.0000
  H   H126      1.0  0.59919  0.95584  0.38789  1.0000
