data_image0
_chemical_formula_structural       C4NC4NH4N3C2HCHNC2HCHC2HC2H3N2CNCHCHCNCHCHC4NC4NH4N3C2HCHNC2HCHC2HC2H3N2CNCHCHCNCHCHC4NC4NH4N3C2HCHNC2HCHC2HC2H3N2CNCHCHCNCHCHC4NC4NH4N3C2HCHNC2HCHC2HC2H3N2CNCHCHCNCHCH
_chemical_formula_sum              "C96 N40 H64"
_cell_length_a       30.419
_cell_length_b       30.419
_cell_length_c       15.0887
_cell_angle_alpha    90
_cell_angle_beta     90
_cell_angle_gamma    90

_space_group_name_H-M_alt    "P 1"
_space_group_IT_number       1

loop_
  _space_group_symop_operation_xyz
  'x, y, z'

loop_
  _atom_site_type_symbol
  _atom_site_label
  _atom_site_symmetry_multiplicity
  _atom_site_fract_x
  _atom_site_fract_y
  _atom_site_fract_z
  _atom_site_occupancy
  C   C1        1.0  0.01303  0.47997  0.32006  1.0000
  C   C2        1.0  0.07952  0.41308  0.30129  1.0000
  C   C3        1.0  0.08932  0.45791  0.28395  1.0000
  C   C4        1.0  0.05662  0.49042  0.29463  1.0000
  N   N1        1.0  0.11096  0.38128  0.29164  1.0000
  C   C5        1.0  0.48004  0.01295  0.32986  1.0000
  C   C6        1.0  0.43503  0.00360  0.31461  1.0000
  C   C7        1.0  0.40209  0.03611  0.32165  1.0000
  C   C8        1.0  0.41312  0.07926  0.34985  1.0000
  N   N2        1.0  0.38124  0.11053  0.36052  1.0000
  H   H1        1.0  0.35029  0.10408  0.35201  1.0000
  H   H2        1.0  0.14044  0.38797  0.27081  1.0000
  H   H3        1.0  0.06439  0.02207  0.27871  1.0000
  H   H4        1.0  0.42625  0.47337  0.29123  1.0000
  N   N3        1.0  0.35985  0.02788  0.29917  1.0000
  N   N4        1.0  0.13118  0.46844  0.26260  1.0000
  N   N5        1.0  0.03670  0.27123  0.38782  1.0000
  C   C9        1.0  0.04070  0.22698  0.39460  1.0000
  C   C10       1.0  0.00297  0.20060  0.40649  1.0000
  H   H5        1.0  0.07097  0.21326  0.38440  1.0000
  C   C11       1.0  0.00570  0.15459  0.39917  1.0000
  H   H6        1.0  0.03550  0.13991  0.38875  1.0000
  N   N6        1.0  0.22029  0.96312  0.23936  1.0000
  C   C12       1.0  0.26460  0.95928  0.24377  1.0000
  C   C13       1.0  0.29093  0.99694  0.25676  1.0000
  H   H7        1.0  0.27803  0.92846  0.24288  1.0000
  C   C14       1.0  0.33638  0.99285  0.27172  1.0000
  H   H8        1.0  0.35094  0.96258  0.26889  1.0000
  C   C15       1.0  0.00395  0.43509  0.33718  1.0000
  C   C16       1.0  0.03651  0.40216  0.33052  1.0000
  H   H9        1.0  0.47385  0.42644  0.36134  1.0000
  C   C17       1.0  0.45806  0.08933  0.36524  1.0000
  C   C18       1.0  0.49060  0.05675  0.35366  1.0000
  H   H10       1.0  0.02233  0.06468  0.36858  1.0000
  H   H11       1.0  0.38796  0.14007  0.38084  1.0000
  H   H12       1.0  0.10478  0.35039  0.30221  1.0000
  N   N7        1.0  0.46858  0.13127  0.38609  1.0000
  N   N8        1.0  0.02836  0.35999  0.35371  1.0000
  C   C19       1.0  0.96268  0.22318  0.41849  1.0000
  N   N9        1.0  0.96090  0.26757  0.41271  1.0000
  C   C20       1.0  0.99730  0.29196  0.39634  1.0000
  H   H13       1.0  0.93390  0.20665  0.42861  1.0000
  C   C21       1.0  0.99330  0.33724  0.38320  1.0000
  H   H14       1.0  0.96323  0.35193  0.38922  1.0000
  C   C22       1.0  0.26874  0.03788  0.25745  1.0000
  N   N10       1.0  0.22435  0.03967  0.25102  1.0000
  C   C23       1.0  0.19967  0.00277  0.24285  1.0000
  H   H15       1.0  0.28537  0.06679  0.26522  1.0000
  C   C24       1.0  0.15387  0.00570  0.24725  1.0000
  H   H16       1.0  0.13930  0.03573  0.25492  1.0000
  C   C25       1.0  0.01303  0.97997  0.32006  1.0000
  C   C26       1.0  0.07952  0.91309  0.30129  1.0000
  C   C27       1.0  0.08932  0.95791  0.28395  1.0000
  C   C28       1.0  0.05662  0.99042  0.29463  1.0000
  N   N11       1.0  0.11096  0.88128  0.29164  1.0000
  C   C29       1.0  0.48004  0.51295  0.32986  1.0000
  C   C30       1.0  0.43503  0.50360  0.31461  1.0000
  C   C31       1.0  0.40209  0.53611  0.32165  1.0000
  C   C32       1.0  0.41312  0.57925  0.34985  1.0000
  N   N12       1.0  0.38124  0.61053  0.36052  1.0000
  H   H17       1.0  0.35029  0.60408  0.35201  1.0000
  H   H18       1.0  0.14044  0.88797  0.27081  1.0000
  H   H19       1.0  0.06439  0.52207  0.27871  1.0000
  H   H20       1.0  0.42625  0.97337  0.29123  1.0000
  N   N13       1.0  0.35985  0.52788  0.29917  1.0000
  N   N14       1.0  0.13118  0.96844  0.26260  1.0000
  N   N15       1.0  0.03670  0.77123  0.38782  1.0000
  C   C33       1.0  0.04070  0.72698  0.39460  1.0000
  C   C34       1.0  0.00297  0.70060  0.40649  1.0000
  H   H21       1.0  0.07097  0.71326  0.38440  1.0000
  C   C35       1.0  0.00570  0.65458  0.39917  1.0000
  H   H22       1.0  0.03550  0.63991  0.38875  1.0000
  N   N16       1.0  0.22029  0.46312  0.23936  1.0000
  C   C36       1.0  0.26460  0.45928  0.24377  1.0000
  C   C37       1.0  0.29093  0.49694  0.25676  1.0000
  H   H23       1.0  0.27803  0.42847  0.24288  1.0000
  C   C38       1.0  0.33638  0.49285  0.27172  1.0000
  H   H24       1.0  0.35094  0.46258  0.26889  1.0000
  C   C39       1.0  0.00395  0.93509  0.33718  1.0000
  C   C40       1.0  0.03651  0.90216  0.33052  1.0000
  H   H25       1.0  0.47385  0.92644  0.36134  1.0000
  C   C41       1.0  0.45806  0.58933  0.36524  1.0000
  C   C42       1.0  0.49060  0.55675  0.35366  1.0000
  H   H26       1.0  0.02233  0.56468  0.36858  1.0000
  H   H27       1.0  0.38796  0.64007  0.38084  1.0000
  H   H28       1.0  0.10478  0.85039  0.30221  1.0000
  N   N17       1.0  0.46858  0.63127  0.38609  1.0000
  N   N18       1.0  0.02836  0.85999  0.35371  1.0000
  C   C43       1.0  0.96268  0.72318  0.41849  1.0000
  N   N19       1.0  0.96090  0.76757  0.41271  1.0000
  C   C44       1.0  0.99730  0.79196  0.39634  1.0000
  H   H29       1.0  0.93390  0.70665  0.42861  1.0000
  C   C45       1.0  0.99330  0.83724  0.38320  1.0000
  H   H30       1.0  0.96323  0.85193  0.38922  1.0000
  C   C46       1.0  0.26874  0.53788  0.25745  1.0000
  N   N20       1.0  0.22435  0.53967  0.25102  1.0000
  C   C47       1.0  0.19967  0.50277  0.24285  1.0000
  H   H31       1.0  0.28537  0.56679  0.26522  1.0000
  C   C48       1.0  0.15387  0.50570  0.24725  1.0000
  H   H32       1.0  0.13930  0.53573  0.25492  1.0000
  C   C49       1.0  0.51303  0.47997  0.32006  1.0000
  C   C50       1.0  0.57952  0.41308  0.30129  1.0000
  C   C51       1.0  0.58932  0.45791  0.28395  1.0000
  C   C52       1.0  0.55662  0.49042  0.29463  1.0000
  N   N21       1.0  0.61096  0.38128  0.29164  1.0000
  C   C53       1.0  0.98004  0.01295  0.32986  1.0000
  C   C54       1.0  0.93503  0.00360  0.31461  1.0000
  C   C55       1.0  0.90210  0.03611  0.32165  1.0000
  C   C56       1.0  0.91312  0.07926  0.34985  1.0000
  N   N22       1.0  0.88124  0.11053  0.36052  1.0000
  H   H33       1.0  0.85028  0.10408  0.35201  1.0000
  H   H34       1.0  0.64044  0.38797  0.27081  1.0000
  H   H35       1.0  0.56440  0.02207  0.27871  1.0000
  H   H36       1.0  0.92625  0.47337  0.29123  1.0000
  N   N23       1.0  0.85984  0.02788  0.29917  1.0000
  N   N24       1.0  0.63118  0.46844  0.26260  1.0000
  N   N25       1.0  0.53670  0.27123  0.38782  1.0000
  C   C57       1.0  0.54070  0.22698  0.39460  1.0000
  C   C58       1.0  0.50297  0.20060  0.40649  1.0000
  H   H37       1.0  0.57097  0.21326  0.38440  1.0000
  C   C59       1.0  0.50570  0.15459  0.39917  1.0000
  H   H38       1.0  0.53550  0.13991  0.38875  1.0000
  N   N26       1.0  0.72029  0.96312  0.23936  1.0000
  C   C60       1.0  0.76460  0.95928  0.24377  1.0000
  C   C61       1.0  0.79093  0.99694  0.25676  1.0000
  H   H39       1.0  0.77803  0.92846  0.24288  1.0000
  C   C62       1.0  0.83638  0.99285  0.27172  1.0000
  H   H40       1.0  0.85094  0.96258  0.26889  1.0000
  C   C63       1.0  0.50395  0.43509  0.33718  1.0000
  C   C64       1.0  0.53651  0.40216  0.33052  1.0000
  H   H41       1.0  0.97384  0.42644  0.36134  1.0000
  C   C65       1.0  0.95806  0.08933  0.36524  1.0000
  C   C66       1.0  0.99060  0.05675  0.35366  1.0000
  H   H42       1.0  0.52233  0.06468  0.36858  1.0000
  H   H43       1.0  0.88795  0.14007  0.38084  1.0000
  H   H44       1.0  0.60478  0.35039  0.30221  1.0000
  N   N27       1.0  0.96857  0.13127  0.38609  1.0000
  N   N28       1.0  0.52836  0.35999  0.35371  1.0000
  C   C67       1.0  0.46268  0.22318  0.41849  1.0000
  N   N29       1.0  0.46090  0.26757  0.41271  1.0000
  C   C68       1.0  0.49730  0.29196  0.39634  1.0000
  H   H45       1.0  0.43390  0.20665  0.42861  1.0000
  C   C69       1.0  0.49329  0.33724  0.38320  1.0000
  H   H46       1.0  0.46322  0.35193  0.38922  1.0000
  C   C70       1.0  0.76874  0.03788  0.25745  1.0000
  N   N30       1.0  0.72435  0.03967  0.25102  1.0000
  C   C71       1.0  0.69967  0.00277  0.24285  1.0000
  H   H47       1.0  0.78536  0.06679  0.26522  1.0000
  C   C72       1.0  0.65387  0.00570  0.24725  1.0000
  H   H48       1.0  0.63930  0.03573  0.25492  1.0000
  C   C73       1.0  0.51303  0.97997  0.32006  1.0000
  C   C74       1.0  0.57952  0.91309  0.30129  1.0000
  C   C75       1.0  0.58932  0.95791  0.28395  1.0000
  C   C76       1.0  0.55662  0.99042  0.29463  1.0000
  N   N31       1.0  0.61096  0.88128  0.29164  1.0000
  C   C77       1.0  0.98004  0.51295  0.32986  1.0000
  C   C78       1.0  0.93503  0.50360  0.31461  1.0000
  C   C79       1.0  0.90210  0.53611  0.32165  1.0000
  C   C80       1.0  0.91312  0.57925  0.34985  1.0000
  N   N32       1.0  0.88124  0.61053  0.36052  1.0000
  H   H49       1.0  0.85028  0.60408  0.35201  1.0000
  H   H50       1.0  0.64044  0.88797  0.27081  1.0000
  H   H51       1.0  0.56440  0.52207  0.27871  1.0000
  H   H52       1.0  0.92625  0.97337  0.29123  1.0000
  N   N33       1.0  0.85984  0.52788  0.29917  1.0000
  N   N34       1.0  0.63118  0.96844  0.26260  1.0000
  N   N35       1.0  0.53670  0.77123  0.38782  1.0000
  C   C81       1.0  0.54070  0.72698  0.39460  1.0000
  C   C82       1.0  0.50297  0.70060  0.40649  1.0000
  H   H53       1.0  0.57097  0.71326  0.38440  1.0000
  C   C83       1.0  0.50570  0.65458  0.39917  1.0000
  H   H54       1.0  0.53550  0.63991  0.38875  1.0000
  N   N36       1.0  0.72029  0.46312  0.23936  1.0000
  C   C84       1.0  0.76460  0.45928  0.24377  1.0000
  C   C85       1.0  0.79093  0.49694  0.25676  1.0000
  H   H55       1.0  0.77803  0.42847  0.24288  1.0000
  C   C86       1.0  0.83638  0.49285  0.27172  1.0000
  H   H56       1.0  0.85094  0.46258  0.26889  1.0000
  C   C87       1.0  0.50395  0.93509  0.33718  1.0000
  C   C88       1.0  0.53651  0.90216  0.33052  1.0000
  H   H57       1.0  0.97384  0.92644  0.36134  1.0000
  C   C89       1.0  0.95806  0.58933  0.36524  1.0000
  C   C90       1.0  0.99060  0.55675  0.35366  1.0000
  H   H58       1.0  0.52233  0.56468  0.36858  1.0000
  H   H59       1.0  0.88795  0.64007  0.38084  1.0000
  H   H60       1.0  0.60478  0.85039  0.30221  1.0000
  N   N37       1.0  0.96857  0.63127  0.38609  1.0000
  N   N38       1.0  0.52836  0.85999  0.35371  1.0000
  C   C91       1.0  0.46268  0.72318  0.41849  1.0000
  N   N39       1.0  0.46090  0.76757  0.41271  1.0000
  C   C92       1.0  0.49730  0.79196  0.39634  1.0000
  H   H61       1.0  0.43390  0.70665  0.42861  1.0000
  C   C93       1.0  0.49329  0.83724  0.38320  1.0000
  H   H62       1.0  0.46322  0.85193  0.38922  1.0000
  C   C94       1.0  0.76874  0.53788  0.25745  1.0000
  N   N40       1.0  0.72435  0.53967  0.25102  1.0000
  C   C95       1.0  0.69967  0.50277  0.24285  1.0000
  H   H63       1.0  0.78536  0.56679  0.26522  1.0000
  C   C96       1.0  0.65387  0.50570  0.24725  1.0000
  H   H64       1.0  0.63930  0.53573  0.25492  1.0000
