data_image0
_chemical_formula_structural       HC6N2H4NHNHC6N2H4NHNHC6N2H4NHNHC3H2CH2C3H2CH2C3H2CH2C3H2CH2C3H2CH2C3H2CH2C3H2C3HNHNHC3H2C3H2NHNHC3H2C3H2NHNHC3HNH2CH2C3HNH2CH2C3HNH2CH2C3HNH2CH2C3HNH2CH2C3HNH2CH2
_chemical_formula_sum              "H90 C84 N24"
_cell_length_a       29.5509
_cell_length_b       29.5508
_cell_length_c       14.9866
_cell_angle_alpha    90
_cell_angle_beta     90
_cell_angle_gamma    120

_space_group_name_H-M_alt    "P 1"
_space_group_IT_number       1

loop_
  _space_group_symop_operation_xyz
  'x, y, z'

loop_
  _atom_site_type_symbol
  _atom_site_label
  _atom_site_symmetry_multiplicity
  _atom_site_fract_x
  _atom_site_fract_y
  _atom_site_fract_z
  _atom_site_occupancy
  H   H1        1.0  0.00904  0.43873  0.35045  1.0000
  C   C1        1.0  0.97393  0.49429  0.27488  1.0000
  C   C2        1.0  0.87975  0.42955  0.27399  1.0000
  C   C3        1.0  0.93173  0.44487  0.24671  1.0000
  C   C4        1.0  0.02748  0.50659  0.27474  1.0000
  C   C5        1.0  0.06967  0.55603  0.24663  1.0000
  C   C6        1.0  0.12165  0.57139  0.27395  1.0000
  N   N1        1.0  0.94075  0.41184  0.19608  1.0000
  N   N2        1.0  0.06065  0.58900  0.19588  1.0000
  H   H2        1.0  0.97517  0.42264  0.17177  1.0000
  H   H3        1.0  0.91217  0.37930  0.17305  1.0000
  H   H4        1.0  0.08913  0.62180  0.17345  1.0000
  H   H5        1.0  0.02617  0.57840  0.17209  1.0000
  N   N3        1.0  0.16199  0.62483  0.26885  1.0000
  H   H6        1.0  0.19812  0.62792  0.26420  1.0000
  N   N4        1.0  0.83943  0.37610  0.26893  1.0000
  H   H7        1.0  0.80329  0.37300  0.26427  1.0000
  C   C7        1.0  0.50676  0.47973  0.27476  1.0000
  C   C8        1.0  0.57152  0.45035  0.27387  1.0000
  C   C9        1.0  0.55617  0.48696  0.24648  1.0000
  C   C10       1.0  0.49448  0.52100  0.27455  1.0000
  C   C11       1.0  0.44504  0.51372  0.24638  1.0000
  C   C12       1.0  0.42973  0.55038  0.27363  1.0000
  N   N5        1.0  0.58914  0.52896  0.19569  1.0000
  N   N6        1.0  0.41205  0.47170  0.19568  1.0000
  H   H8        1.0  0.57829  0.55253  0.17134  1.0000
  H   H9        1.0  0.62166  0.53290  0.17261  1.0000
  H   H10       1.0  0.37926  0.46738  0.17323  1.0000
  H   H11       1.0  0.42265  0.44780  0.17197  1.0000
  N   N7        1.0  0.37628  0.53726  0.26859  1.0000
  H   H12       1.0  0.37318  0.57030  0.26388  1.0000
  N   N8        1.0  0.62497  0.46348  0.26872  1.0000
  H   H13       1.0  0.62807  0.43044  0.26431  1.0000
  C   C13       1.0  0.52139  0.02723  0.27450  1.0000
  C   C14       1.0  0.55078  0.12137  0.27376  1.0000
  C   C15       1.0  0.51412  0.06942  0.24644  1.0000
  C   C16       1.0  0.48011  0.97369  0.27486  1.0000
  C   C17       1.0  0.48729  0.93147  0.24660  1.0000
  C   C18       1.0  0.45060  0.87952  0.27396  1.0000
  N   N9        1.0  0.47208  0.06039  0.19579  1.0000
  N   N10       1.0  0.52929  0.94044  0.19590  1.0000
  H   H14       1.0  0.44836  0.02593  0.17175  1.0000
  H   H15       1.0  0.46789  0.08890  0.17310  1.0000
  H   H16       1.0  0.53322  0.91185  0.17283  1.0000
  H   H17       1.0  0.55290  0.97485  0.17156  1.0000
  N   N11       1.0  0.46370  0.83918  0.26884  1.0000
  H   H18       1.0  0.43064  0.80305  0.26418  1.0000
  N   N12       1.0  0.53762  0.16168  0.26875  1.0000
  H   H19       1.0  0.57066  0.19783  0.26412  1.0000
  C   C19       1.0  0.25722  0.46724  0.27816  1.0000
  C   C20       1.0  0.20305  0.44744  0.28262  1.0000
  C   C21       1.0  0.17987  0.45297  0.36104  1.0000
  H   H20       1.0  0.27196  0.45890  0.22270  1.0000
  H   H21       1.0  0.18027  0.42545  0.23057  1.0000
  C   C22       1.0  0.12195  0.42369  0.37273  1.0000
  H   H22       1.0  0.11298  0.39265  0.42108  1.0000
  H   H23       1.0  0.10226  0.40416  0.31082  1.0000
  C   C23       1.0  0.53366  0.79013  0.27812  1.0000
  C   C24       1.0  0.55347  0.75576  0.28239  1.0000
  C   C25       1.0  0.54808  0.72709  0.36080  1.0000
  H   H24       1.0  0.54188  0.81317  0.22263  1.0000
  H   H25       1.0  0.57537  0.75495  0.23019  1.0000
  C   C26       1.0  0.57738  0.69844  0.37218  1.0000
  H   H26       1.0  0.60851  0.72052  0.42038  1.0000
  H   H27       1.0  0.59680  0.69826  0.31014  1.0000
  C   C27       1.0  0.21097  0.74386  0.27812  1.0000
  C   C28       1.0  0.24530  0.79805  0.28241  1.0000
  C   C29       1.0  0.27394  0.82134  0.36084  1.0000
  H   H28       1.0  0.18802  0.72901  0.22255  1.0000
  H   H29       1.0  0.24617  0.82073  0.23012  1.0000
  C   C30       1.0  0.30260  0.87928  0.37223  1.0000
  H   H30       1.0  0.28050  0.88834  0.42039  1.0000
  H   H31       1.0  0.30280  0.89888  0.31018  1.0000
  C   C31       1.0  0.74403  0.53353  0.27782  1.0000
  C   C32       1.0  0.79820  0.55328  0.28212  1.0000
  C   C33       1.0  0.82146  0.54799  0.36063  1.0000
  H   H32       1.0  0.72921  0.54162  0.22221  1.0000
  H   H33       1.0  0.82091  0.57508  0.22986  1.0000
  C   C34       1.0  0.87940  0.57728  0.37209  1.0000
  H   H34       1.0  0.88845  0.60845  0.42019  1.0000
  H   H35       1.0  0.89903  0.59664  0.31004  1.0000
  C   C35       1.0  0.46760  0.21066  0.27807  1.0000
  C   C36       1.0  0.44779  0.24503  0.28239  1.0000
  C   C37       1.0  0.45317  0.27368  0.36083  1.0000
  H   H36       1.0  0.45937  0.18764  0.22257  1.0000
  H   H37       1.0  0.42590  0.24587  0.23021  1.0000
  C   C38       1.0  0.42387  0.30231  0.37233  1.0000
  H   H38       1.0  0.39273  0.28019  0.42050  1.0000
  H   H39       1.0  0.40445  0.30252  0.31030  1.0000
  C   C39       1.0  0.79047  0.25710  0.27828  1.0000
  C   C40       1.0  0.75613  0.20292  0.28259  1.0000
  C   C41       1.0  0.72745  0.17964  0.36100  1.0000
  H   H40       1.0  0.81351  0.27192  0.22280  1.0000
  H   H41       1.0  0.75533  0.18021  0.23041  1.0000
  C   C42       1.0  0.69881  0.12170  0.37241  1.0000
  H   H42       1.0  0.72086  0.11266  0.42068  1.0000
  H   H43       1.0  0.69867  0.10209  0.31040  1.0000
  C   C43       1.0  0.96257  0.52812  0.32470  1.0000
  C   C44       1.0  0.91118  0.51440  0.34722  1.0000
  C   C45       1.0  0.87014  0.46477  0.32306  1.0000
  H   H44       1.0  0.99238  0.56223  0.35030  1.0000
  H   H45       1.0  0.83349  0.45272  0.34725  1.0000
  C   C46       1.0  0.13124  0.53624  0.32332  1.0000
  C   C47       1.0  0.09024  0.48657  0.34734  1.0000
  C   C48       1.0  0.03884  0.47279  0.32466  1.0000
  H   H46       1.0  0.16791  0.54828  0.34743  1.0000
  N   N13       1.0  0.09723  0.45342  0.40648  1.0000
  H   H47       1.0  0.11274  0.47190  0.46591  1.0000
  N   N14       1.0  0.90414  0.54762  0.40612  1.0000
  H   H48       1.0  0.88862  0.52921  0.46559  1.0000
  C   C49       1.0  0.47293  0.43458  0.32466  1.0000
  C   C50       1.0  0.48670  0.39696  0.34730  1.0000
  C   C51       1.0  0.53636  0.40561  0.32323  1.0000
  H   H49       1.0  0.43884  0.43032  0.35029  1.0000
  H   H50       1.0  0.54840  0.38096  0.34728  1.0000
  C   C52       1.0  0.46487  0.59515  0.32294  1.0000
  C   C53       1.0  0.51454  0.60382  0.34698  1.0000
  C   C54       1.0  0.52830  0.56616  0.32447  1.0000
  H   H51       1.0  0.45284  0.61981  0.34697  1.0000
  H   H52       1.0  0.56238  0.57044  0.35014  1.0000
  N   N15       1.0  0.54772  0.64400  0.40603  1.0000
  H   H53       1.0  0.52928  0.64105  0.46549  1.0000
  N   N16       1.0  0.45351  0.35673  0.40626  1.0000
  H   H54       1.0  0.47193  0.35966  0.46573  1.0000
  C   C55       1.0  0.56656  0.03858  0.32440  1.0000
  C   C56       1.0  0.60422  0.08998  0.34699  1.0000
  C   C57       1.0  0.59557  0.13099  0.32296  1.0000
  H   H55       1.0  0.57079  0.00877  0.35020  1.0000
  H   H56       1.0  0.62017  0.16764  0.34718  1.0000
  C   C58       1.0  0.40582  0.86996  0.32314  1.0000
  C   C59       1.0  0.39721  0.91100  0.34715  1.0000
  C   C60       1.0  0.43492  0.96239  0.32461  1.0000
  H   H57       1.0  0.38118  0.83330  0.34727  1.0000
  H   H58       1.0  0.43067  0.99223  0.35021  1.0000
  N   N17       1.0  0.35702  0.90405  0.40613  1.0000
  H   H59       1.0  0.35995  0.88858  0.46562  1.0000
  N   N18       1.0  0.64434  0.09693  0.40614  1.0000
  H   H60       1.0  0.64136  0.11241  0.46558  1.0000
  C   C61       1.0  0.21310  0.48168  0.43239  1.0000
  C   C62       1.0  0.26816  0.50436  0.42792  1.0000
  C   C63       1.0  0.29042  0.49464  0.35067  1.0000
  H   H61       1.0  0.19670  0.48537  0.49004  1.0000
  N   N19       1.0  0.29646  0.53343  0.49915  1.0000
  H   H62       1.0  0.27952  0.53979  0.54944  1.0000
  H   H63       1.0  0.33412  0.55495  0.49690  1.0000
  C   C64       1.0  0.34529  0.50472  0.34600  1.0000
  H   H64       1.0  0.34267  0.46657  0.34045  1.0000
  H   H65       1.0  0.36658  0.52166  0.40767  1.0000
  C   C65       1.0  0.51951  0.73163  0.43234  1.0000
  C   C66       1.0  0.49684  0.76403  0.42809  1.0000
  C   C67       1.0  0.50634  0.79591  0.35079  1.0000
  H   H66       1.0  0.51594  0.71158  0.48997  1.0000
  N   N20       1.0  0.46793  0.76332  0.49953  1.0000
  H   H67       1.0  0.46184  0.74018  0.55000  1.0000
  H   H68       1.0  0.44659  0.77965  0.49789  1.0000
  C   C68       1.0  0.49625  0.84069  0.34621  1.0000
  H   H69       1.0  0.53440  0.87623  0.34068  1.0000
  H   H70       1.0  0.47930  0.84501  0.40789  1.0000
  C   C69       1.0  0.26937  0.78824  0.43241  1.0000
  C   C70       1.0  0.23705  0.73316  0.42811  1.0000
  C   C71       1.0  0.20522  0.71076  0.35076  1.0000
  H   H71       1.0  0.28940  0.80472  0.49007  1.0000
  N   N21       1.0  0.23777  0.70497  0.49957  1.0000
  H   H72       1.0  0.26097  0.72200  0.54994  1.0000
  H   H73       1.0  0.22169  0.66732  0.49748  1.0000
  C   C72       1.0  0.16045  0.65588  0.34618  1.0000
  H   H74       1.0  0.12490  0.65848  0.34060  1.0000
  H   H75       1.0  0.15611  0.63463  0.40788  1.0000
  C   C73       1.0  0.78833  0.51953  0.43223  1.0000
  C   C74       1.0  0.73326  0.49685  0.42792  1.0000
  C   C75       1.0  0.71093  0.50633  0.35054  1.0000
  H   H76       1.0  0.80480  0.51603  0.48994  1.0000
  N   N22       1.0  0.70505  0.46801  0.49941  1.0000
  H   H77       1.0  0.72205  0.46181  0.54978  1.0000
  H   H78       1.0  0.66739  0.44649  0.49733  1.0000
  C   C76       1.0  0.65605  0.49623  0.34588  1.0000
  H   H79       1.0  0.65866  0.53437  0.34002  1.0000
  H   H80       1.0  0.63482  0.47946  0.40767  1.0000
  C   C77       1.0  0.48175  0.26911  0.43234  1.0000
  C   C78       1.0  0.50444  0.23673  0.42803  1.0000
  C   C79       1.0  0.49486  0.20481  0.35075  1.0000
  H   H81       1.0  0.48531  0.28914  0.49001  1.0000
  N   N23       1.0  0.53336  0.23744  0.49945  1.0000
  H   H82       1.0  0.53961  0.26070  0.54978  1.0000
  H   H83       1.0  0.55487  0.22129  0.49739  1.0000
  C   C80       1.0  0.50503  0.16009  0.34611  1.0000
  H   H84       1.0  0.46690  0.12452  0.34051  1.0000
  H   H85       1.0  0.52196  0.15574  0.40779  1.0000
  C   C81       1.0  0.73198  0.21276  0.43251  1.0000
  C   C82       1.0  0.76436  0.26784  0.42824  1.0000
  C   C83       1.0  0.79623  0.29021  0.35093  1.0000
  H   H86       1.0  0.71192  0.19628  0.49014  1.0000
  N   N24       1.0  0.76362  0.29604  0.49965  1.0000
  H   H87       1.0  0.74049  0.27899  0.55013  1.0000
  H   H88       1.0  0.77995  0.33371  0.49799  1.0000
  C   C84       1.0  0.84098  0.34510  0.34631  1.0000
  H   H89       1.0  0.87655  0.34252  0.34079  1.0000
  H   H90       1.0  0.84530  0.36638  0.40798  1.0000
