data_image0
_chemical_formula_structural       C2OCHC2OCH3C2HC2HCHNC3OCH2CNCHNC3OCH2CNC3OH4C6O2H4C6O2H4NCNHCHCNHCNHCNHC3HO2C3HOC3OHC3HOC3OHCNC3NOCH3C2OCH3C3NOCH3C3NOCH3C3NOCH3C3OH4C6O2H4C6O2H4NCNHCHCNHCNHCNHC3HO2C3HOC3OHC3HOC3OHCNC3NOCH3C2OCH3C3NOCH3C3NOCH3C3NOCH3C6O2H3C6O2H4C6O2H4CNHCNHCNHCNHCNHCNHC3HOC3OHC3HOC3OHC3HOC3OHC3NOCH3C3NOCH3C3NOCH3C3NOCH3C3NOCH3C3NOCH3C6O2H3C6O2H4C6O2H4CNHCNHCNHCNHCNHCNHC3HOC3OHC3HOC3OHC3HOC3OHC3NOCH3C3NOCH3C3NOCH3C3NOCH3C3NOCH3C3NOCH3
_chemical_formula_sum              "C264 O72 H168 N48"
_cell_length_a       46.0719
_cell_length_b       46.0719
_cell_length_c       14.9271
_cell_angle_alpha    90
_cell_angle_beta     90
_cell_angle_gamma    120

_space_group_name_H-M_alt    "P 1"
_space_group_IT_number       1

loop_
  _space_group_symop_operation_xyz
  'x, y, z'

loop_
  _atom_site_type_symbol
  _atom_site_label
  _atom_site_symmetry_multiplicity
  _atom_site_fract_x
  _atom_site_fract_y
  _atom_site_fract_z
  _atom_site_occupancy
  C   C1        1.0  0.02191  0.26150  0.31758  1.0000
  C   C2        1.0  0.04209  0.29748  0.31069  1.0000
  O   O1        1.0  0.03026  0.31713  0.27746  1.0000
  C   C3        1.0  0.04038  0.24465  0.33466  1.0000
  H   H1        1.0  0.02850  0.21954  0.34544  1.0000
  C   C4        1.0  0.02191  0.76150  0.31758  1.0000
  C   C5        1.0  0.04209  0.79747  0.31069  1.0000
  O   O2        1.0  0.03026  0.81713  0.27746  1.0000
  C   C6        1.0  0.04038  0.74465  0.33466  1.0000
  H   H2        1.0  0.02850  0.71954  0.34544  1.0000
  H   H3        1.0  0.02646  0.31211  0.21308  1.0000
  H   H4        1.0  0.02646  0.81211  0.21308  1.0000
  C   C7        1.0  0.07620  0.31514  0.33769  1.0000
  C   C8        1.0  0.07528  0.26128  0.34934  1.0000
  H   H5        1.0  0.07156  0.21643  0.56436  1.0000
  C   C9        1.0  0.07620  0.81514  0.33769  1.0000
  C   C10       1.0  0.07528  0.76128  0.34934  1.0000
  H   H6        1.0  0.07156  0.71643  0.56436  1.0000
  C   C11       1.0  0.10431  0.23539  0.27952  1.0000
  H   H7        1.0  0.09239  0.23327  0.22003  1.0000
  N   N1        1.0  0.10739  0.37042  0.27510  1.0000
  C   C12       1.0  0.09258  0.29661  0.35377  1.0000
  C   C13       1.0  0.11417  0.25037  0.43504  1.0000
  C   C14       1.0  0.09346  0.24405  0.35897  1.0000
  O   O3        1.0  0.10855  0.26260  0.51262  1.0000
  C   C15       1.0  0.09554  0.23811  0.58310  1.0000
  H   H8        1.0  0.09150  0.24971  0.64183  1.0000
  H   H9        1.0  0.11327  0.22985  0.60135  1.0000
  C   C16       1.0  0.09534  0.35037  0.34855  1.0000
  N   N2        1.0  0.11367  0.36187  0.42495  1.0000
  C   C17       1.0  0.10431  0.73539  0.27952  1.0000
  H   H10       1.0  0.09239  0.73327  0.22003  1.0000
  N   N3        1.0  0.10739  0.87042  0.27510  1.0000
  C   C18       1.0  0.09258  0.79661  0.35377  1.0000
  C   C19       1.0  0.11417  0.75037  0.43504  1.0000
  C   C20       1.0  0.09346  0.74405  0.35897  1.0000
  O   O4        1.0  0.10855  0.76260  0.51262  1.0000
  C   C21       1.0  0.09554  0.73811  0.58310  1.0000
  H   H11       1.0  0.09150  0.74970  0.64184  1.0000
  H   H12       1.0  0.11327  0.72985  0.60135  1.0000
  C   C22       1.0  0.09534  0.85037  0.34855  1.0000
  N   N4        1.0  0.11367  0.86187  0.42495  1.0000
  C   C23       1.0  0.48555  0.24323  0.31663  1.0000
  C   C24       1.0  0.43107  0.18956  0.33354  1.0000
  C   C25       1.0  0.46545  0.20726  0.30912  1.0000
  O   O5        1.0  0.47748  0.18763  0.27710  1.0000
  H   H13       1.0  0.98173  0.19271  0.21284  1.0000
  H   H14       1.0  0.52646  0.31211  0.21308  1.0000
  H   H15       1.0  0.37243  0.18828  0.29070  1.0000
  H   H16       1.0  0.13497  0.31650  0.29861  1.0000
  C   C26       1.0  0.26265  0.24335  0.31719  1.0000
  C   C27       1.0  0.31630  0.24253  0.33453  1.0000
  C   C28       1.0  0.29859  0.25912  0.30921  1.0000
  C   C29       1.0  0.24438  0.26145  0.31720  1.0000
  C   C30       1.0  0.20840  0.24558  0.31033  1.0000
  C   C31       1.0  0.19075  0.26217  0.33593  1.0000
  O   O6        1.0  0.31819  0.29066  0.27634  1.0000
  O   O7        1.0  0.18872  0.21395  0.27807  1.0000
  H   H17       1.0  0.31303  0.28958  0.21209  1.0000
  H   H18       1.0  0.19371  0.21487  0.21373  1.0000
  H   H19       1.0  0.31748  0.18512  0.29312  1.0000
  H   H20       1.0  0.18937  0.31951  0.29441  1.0000
  C   C32       1.0  0.26274  0.02075  0.31756  1.0000
  C   C33       1.0  0.26341  0.07504  0.33772  1.0000
  C   C34       1.0  0.24691  0.04090  0.31094  1.0000
  C   C35       1.0  0.24462  0.48440  0.31687  1.0000
  C   C36       1.0  0.26041  0.46423  0.30887  1.0000
  C   C37       1.0  0.24374  0.42987  0.33346  1.0000
  O   O8        1.0  0.21537  0.02905  0.27809  1.0000
  O   O9        1.0  0.29202  0.47623  0.27646  1.0000
  H   H21       1.0  0.21647  0.52518  0.21371  1.0000
  H   H22       1.0  0.29107  0.98044  0.21223  1.0000
  H   H23       1.0  0.32074  0.13379  0.29766  1.0000
  H   H24       1.0  0.18630  0.37125  0.29145  1.0000
  N   N5        1.0  0.13518  0.23813  0.27551  1.0000
  C   C38       1.0  0.27032  0.37014  0.27590  1.0000
  N   N6        1.0  0.26774  0.39835  0.27200  1.0000
  H   H25       1.0  0.27265  0.36043  0.21647  1.0000
  C   C39       1.0  0.13552  0.40131  0.27760  1.0000
  H   H26       1.0  0.14493  0.41295  0.21759  1.0000
  C   C40       1.0  0.40258  0.26922  0.27529  1.0000
  N   N7        1.0  0.37178  0.26664  0.27210  1.0000
  H   H27       1.0  0.41452  0.27167  0.21564  1.0000
  C   C41       1.0  0.23647  0.13437  0.27879  1.0000
  N   N8        1.0  0.23922  0.10624  0.27589  1.0000
  H   H28       1.0  0.23420  0.14384  0.21892  1.0000
  C   C42       1.0  0.37118  0.10317  0.27729  1.0000
  N   N9        1.0  0.39941  0.13393  0.27287  1.0000
  H   H29       1.0  0.36133  0.09103  0.21806  1.0000
  C   C43       1.0  0.46697  0.26003  0.33269  1.0000
  C   C44       1.0  0.43193  0.24337  0.34465  1.0000
  C   C45       1.0  0.41452  0.20802  0.34763  1.0000
  H   H30       1.0  0.47880  0.28511  0.34411  1.0000
  O   O10       1.0  0.38035  0.19128  0.35305  1.0000
  O   O11       1.0  0.12672  0.31329  0.36064  1.0000
  C   C46       1.0  0.24581  0.20804  0.33437  1.0000
  C   C47       1.0  0.26244  0.18965  0.34686  1.0000
  C   C48       1.0  0.29778  0.20757  0.34971  1.0000
  H   H31       1.0  0.22076  0.19488  0.34619  1.0000
  O   O12       1.0  0.31443  0.19005  0.35542  1.0000
  C   C49       1.0  0.20924  0.29716  0.35059  1.0000
  C   C50       1.0  0.24457  0.31517  0.34649  1.0000
  C   C51       1.0  0.26123  0.29684  0.33323  1.0000
  O   O13       1.0  0.19249  0.31457  0.35664  1.0000
  H   H32       1.0  0.28636  0.31012  0.34371  1.0000
  C   C52       1.0  0.29811  0.03925  0.33393  1.0000
  C   C53       1.0  0.31638  0.07416  0.34850  1.0000
  C   C54       1.0  0.29835  0.09146  0.35318  1.0000
  H   H33       1.0  0.31139  0.02740  0.34426  1.0000
  O   O14       1.0  0.31579  0.12561  0.35976  1.0000
  C   C55       1.0  0.20875  0.41338  0.34809  1.0000
  C   C56       1.0  0.19085  0.43083  0.34539  1.0000
  C   C57       1.0  0.20928  0.46588  0.33363  1.0000
  O   O15       1.0  0.19126  0.37922  0.35375  1.0000
  H   H34       1.0  0.19611  0.47776  0.34557  1.0000
  C   C58       1.0  0.15559  0.24599  0.34816  1.0000
  N   N10       1.0  0.14455  0.25284  0.42538  1.0000
  C   C59       1.0  0.25542  0.36495  0.43141  1.0000
  C   C60       1.0  0.26177  0.35061  0.35520  1.0000
  C   C61       1.0  0.25992  0.41084  0.34480  1.0000
  N   N11       1.0  0.25297  0.39290  0.42199  1.0000
  O   O16       1.0  0.24313  0.34716  0.50908  1.0000
  C   C62       1.0  0.26778  0.35825  0.57909  1.0000
  H   H35       1.0  0.28913  0.35545  0.55982  1.0000
  H   H36       1.0  0.25613  0.34272  0.63795  1.0000
  H   H37       1.0  0.27657  0.38434  0.59739  1.0000
  C   C63       1.0  0.14158  0.39235  0.43306  1.0000
  C   C64       1.0  0.15550  0.41273  0.35617  1.0000
  O   O17       1.0  0.15990  0.39839  0.50995  1.0000
  C   C65       1.0  0.14855  0.41135  0.58087  1.0000
  H   H38       1.0  0.15044  0.43515  0.56205  1.0000
  H   H39       1.0  0.16456  0.41574  0.63899  1.0000
  H   H40       1.0  0.12273  0.39345  0.60015  1.0000
  C   C66       1.0  0.39316  0.25409  0.43066  1.0000
  C   C67       1.0  0.41373  0.26059  0.35413  1.0000
  C   C68       1.0  0.35154  0.25865  0.34511  1.0000
  N   N12       1.0  0.36275  0.25163  0.42183  1.0000
  O   O18       1.0  0.39879  0.24166  0.50789  1.0000
  C   C69       1.0  0.41220  0.26611  0.57842  1.0000
  H   H41       1.0  0.43627  0.28762  0.55943  1.0000
  H   H42       1.0  0.41619  0.25435  0.63688  1.0000
  H   H43       1.0  0.39475  0.27466  0.59724  1.0000
  C   C70       1.0  0.25168  0.14030  0.43412  1.0000
  C   C71       1.0  0.24517  0.15430  0.35747  1.0000
  C   C72       1.0  0.24729  0.09413  0.34908  1.0000
  N   N13       1.0  0.25421  0.11238  0.42562  1.0000
  O   O19       1.0  0.26403  0.15855  0.51108  1.0000
  C   C73       1.0  0.23971  0.14728  0.58196  1.0000
  H   H44       1.0  0.21790  0.14936  0.56318  1.0000
  H   H45       1.0  0.25140  0.16322  0.64016  1.0000
  H   H46       1.0  0.23162  0.12141  0.60110  1.0000
  C   C74       1.0  0.36636  0.11321  0.43289  1.0000
  C   C75       1.0  0.35185  0.09243  0.35694  1.0000
  C   C76       1.0  0.41210  0.15437  0.34540  1.0000
  N   N14       1.0  0.39432  0.14354  0.42288  1.0000
  O   O20       1.0  0.34871  0.10786  0.51077  1.0000
  C   C77       1.0  0.35988  0.09435  0.58072  1.0000
  H   H47       1.0  0.35698  0.07014  0.56161  1.0000
  H   H48       1.0  0.34446  0.09059  0.63976  1.0000
  H   H49       1.0  0.38602  0.11163  0.59867  1.0000
  C   C78       1.0  0.48555  0.74323  0.31663  1.0000
  C   C79       1.0  0.43107  0.68956  0.33354  1.0000
  C   C80       1.0  0.46545  0.70726  0.30912  1.0000
  O   O21       1.0  0.47748  0.68763  0.27710  1.0000
  H   H50       1.0  0.98173  0.69271  0.21284  1.0000
  H   H51       1.0  0.52646  0.81211  0.21308  1.0000
  H   H52       1.0  0.37243  0.68828  0.29070  1.0000
  H   H53       1.0  0.13497  0.81650  0.29861  1.0000
  C   C81       1.0  0.26265  0.74335  0.31719  1.0000
  C   C82       1.0  0.31630  0.74253  0.33453  1.0000
  C   C83       1.0  0.29859  0.75912  0.30921  1.0000
  C   C84       1.0  0.24438  0.76145  0.31720  1.0000
  C   C85       1.0  0.20840  0.74558  0.31033  1.0000
  C   C86       1.0  0.19075  0.76217  0.33593  1.0000
  O   O22       1.0  0.31819  0.79066  0.27634  1.0000
  O   O23       1.0  0.18872  0.71395  0.27807  1.0000
  H   H54       1.0  0.31303  0.78958  0.21209  1.0000
  H   H55       1.0  0.19371  0.71487  0.21373  1.0000
  H   H56       1.0  0.31748  0.68512  0.29312  1.0000
  H   H57       1.0  0.18937  0.81951  0.29441  1.0000
  C   C87       1.0  0.26274  0.52075  0.31756  1.0000
  C   C88       1.0  0.26341  0.57503  0.33772  1.0000
  C   C89       1.0  0.24691  0.54090  0.31094  1.0000
  C   C90       1.0  0.24462  0.98440  0.31687  1.0000
  C   C91       1.0  0.26041  0.96423  0.30887  1.0000
  C   C92       1.0  0.24374  0.92987  0.33346  1.0000
  O   O24       1.0  0.21537  0.52905  0.27809  1.0000
  O   O25       1.0  0.29202  0.97623  0.27646  1.0000
  H   H58       1.0  0.21647  0.02518  0.21371  1.0000
  H   H59       1.0  0.29107  0.48044  0.21223  1.0000
  H   H60       1.0  0.32074  0.63379  0.29766  1.0000
  H   H61       1.0  0.18630  0.87125  0.29145  1.0000
  N   N15       1.0  0.13518  0.73813  0.27551  1.0000
  C   C93       1.0  0.27032  0.87014  0.27590  1.0000
  N   N16       1.0  0.26774  0.89835  0.27200  1.0000
  H   H62       1.0  0.27265  0.86043  0.21647  1.0000
  C   C94       1.0  0.13552  0.90131  0.27760  1.0000
  H   H63       1.0  0.14493  0.91295  0.21759  1.0000
  C   C95       1.0  0.40258  0.76922  0.27529  1.0000
  N   N17       1.0  0.37178  0.76664  0.27210  1.0000
  H   H64       1.0  0.41452  0.77167  0.21564  1.0000
  C   C96       1.0  0.23647  0.63437  0.27879  1.0000
  N   N18       1.0  0.23922  0.60624  0.27589  1.0000
  H   H65       1.0  0.23420  0.64384  0.21892  1.0000
  C   C97       1.0  0.37118  0.60317  0.27729  1.0000
  N   N19       1.0  0.39941  0.63393  0.27287  1.0000
  H   H66       1.0  0.36133  0.59103  0.21806  1.0000
  C   C98       1.0  0.46697  0.76003  0.33269  1.0000
  C   C99       1.0  0.43192  0.74337  0.34465  1.0000
  C   C100      1.0  0.41452  0.70802  0.34763  1.0000
  H   H67       1.0  0.47880  0.78511  0.34411  1.0000
  O   O26       1.0  0.38034  0.69128  0.35305  1.0000
  O   O27       1.0  0.12672  0.81329  0.36064  1.0000
  C   C101      1.0  0.24581  0.70804  0.33437  1.0000
  C   C102      1.0  0.26244  0.68965  0.34686  1.0000
  C   C103      1.0  0.29778  0.70757  0.34971  1.0000
  H   H68       1.0  0.22076  0.69488  0.34619  1.0000
  O   O28       1.0  0.31443  0.69005  0.35542  1.0000
  C   C104      1.0  0.20924  0.79716  0.35059  1.0000
  C   C105      1.0  0.24457  0.81517  0.34649  1.0000
  C   C106      1.0  0.26123  0.79684  0.33323  1.0000
  O   O29       1.0  0.19249  0.81457  0.35664  1.0000
  H   H69       1.0  0.28636  0.81012  0.34371  1.0000
  C   C107      1.0  0.29811  0.53925  0.33393  1.0000
  C   C108      1.0  0.31638  0.57416  0.34850  1.0000
  C   C109      1.0  0.29835  0.59146  0.35318  1.0000
  H   H70       1.0  0.31139  0.52740  0.34426  1.0000
  O   O30       1.0  0.31579  0.62561  0.35976  1.0000
  C   C110      1.0  0.20875  0.91338  0.34809  1.0000
  C   C111      1.0  0.19085  0.93083  0.34539  1.0000
  C   C112      1.0  0.20928  0.96588  0.33363  1.0000
  O   O31       1.0  0.19126  0.87922  0.35375  1.0000
  H   H71       1.0  0.19611  0.97776  0.34557  1.0000
  C   C113      1.0  0.15559  0.74599  0.34816  1.0000
  N   N20       1.0  0.14455  0.75284  0.42538  1.0000
  C   C114      1.0  0.25542  0.86495  0.43141  1.0000
  C   C115      1.0  0.26177  0.85061  0.35520  1.0000
  C   C116      1.0  0.25992  0.91084  0.34480  1.0000
  N   N21       1.0  0.25297  0.89289  0.42199  1.0000
  O   O32       1.0  0.24313  0.84716  0.50908  1.0000
  C   C117      1.0  0.26778  0.85825  0.57909  1.0000
  H   H72       1.0  0.28913  0.85545  0.55982  1.0000
  H   H73       1.0  0.25613  0.84272  0.63795  1.0000
  H   H74       1.0  0.27657  0.88434  0.59739  1.0000
  C   C118      1.0  0.14158  0.89235  0.43306  1.0000
  C   C119      1.0  0.15550  0.91273  0.35617  1.0000
  O   O33       1.0  0.15990  0.89839  0.50995  1.0000
  C   C120      1.0  0.14855  0.91135  0.58087  1.0000
  H   H75       1.0  0.15044  0.93515  0.56205  1.0000
  H   H76       1.0  0.16456  0.91574  0.63899  1.0000
  H   H77       1.0  0.12273  0.89345  0.60015  1.0000
  C   C121      1.0  0.39316  0.75409  0.43066  1.0000
  C   C122      1.0  0.41373  0.76059  0.35413  1.0000
  C   C123      1.0  0.35154  0.75865  0.34511  1.0000
  N   N22       1.0  0.36275  0.75163  0.42183  1.0000
  O   O34       1.0  0.39879  0.74166  0.50789  1.0000
  C   C124      1.0  0.41220  0.76611  0.57842  1.0000
  H   H78       1.0  0.43627  0.78762  0.55943  1.0000
  H   H79       1.0  0.41619  0.75435  0.63688  1.0000
  H   H80       1.0  0.39475  0.77466  0.59724  1.0000
  C   C125      1.0  0.25168  0.64030  0.43412  1.0000
  C   C126      1.0  0.24517  0.65430  0.35747  1.0000
  C   C127      1.0  0.24729  0.59412  0.34908  1.0000
  N   N23       1.0  0.25421  0.61238  0.42562  1.0000
  O   O35       1.0  0.26403  0.65855  0.51108  1.0000
  C   C128      1.0  0.23971  0.64728  0.58196  1.0000
  H   H81       1.0  0.21790  0.64936  0.56318  1.0000
  H   H82       1.0  0.25140  0.66322  0.64016  1.0000
  H   H83       1.0  0.23162  0.62141  0.60110  1.0000
  C   C129      1.0  0.36636  0.61321  0.43289  1.0000
  C   C130      1.0  0.35185  0.59243  0.35694  1.0000
  C   C131      1.0  0.41210  0.65437  0.34540  1.0000
  N   N24       1.0  0.39432  0.64354  0.42288  1.0000
  O   O36       1.0  0.34871  0.60786  0.51077  1.0000
  C   C132      1.0  0.35988  0.59435  0.58072  1.0000
  H   H84       1.0  0.35698  0.57014  0.56161  1.0000
  H   H85       1.0  0.34446  0.59059  0.63976  1.0000
  H   H86       1.0  0.38602  0.61163  0.59867  1.0000
  C   C133      1.0  0.98556  0.24323  0.31663  1.0000
  C   C134      1.0  0.93107  0.18956  0.33354  1.0000
  C   C135      1.0  0.96544  0.20726  0.30912  1.0000
  C   C136      1.0  0.52191  0.26150  0.31758  1.0000
  C   C137      1.0  0.54209  0.29748  0.31069  1.0000
  C   C138      1.0  0.57620  0.31514  0.33769  1.0000
  O   O37       1.0  0.97748  0.18763  0.27710  1.0000
  O   O38       1.0  0.53026  0.31713  0.27746  1.0000
  H   H87       1.0  0.48173  0.19271  0.21284  1.0000
  H   H88       1.0  0.87243  0.18828  0.29070  1.0000
  H   H89       1.0  0.63497  0.31650  0.29861  1.0000
  C   C139      1.0  0.76265  0.24335  0.31719  1.0000
  C   C140      1.0  0.81630  0.24253  0.33453  1.0000
  C   C141      1.0  0.79859  0.25912  0.30921  1.0000
  C   C142      1.0  0.74438  0.26145  0.31720  1.0000
  C   C143      1.0  0.70840  0.24558  0.31033  1.0000
  C   C144      1.0  0.69075  0.26217  0.33593  1.0000
  O   O39       1.0  0.81819  0.29066  0.27634  1.0000
  O   O40       1.0  0.68872  0.21395  0.27807  1.0000
  H   H90       1.0  0.81303  0.28958  0.21209  1.0000
  H   H91       1.0  0.69371  0.21487  0.21373  1.0000
  H   H92       1.0  0.81748  0.18512  0.29312  1.0000
  H   H93       1.0  0.68937  0.31951  0.29441  1.0000
  C   C145      1.0  0.76274  0.02075  0.31756  1.0000
  C   C146      1.0  0.76341  0.07504  0.33772  1.0000
  C   C147      1.0  0.74691  0.04090  0.31094  1.0000
  C   C148      1.0  0.74462  0.48440  0.31687  1.0000
  C   C149      1.0  0.76041  0.46423  0.30887  1.0000
  C   C150      1.0  0.74374  0.42987  0.33346  1.0000
  O   O41       1.0  0.71537  0.02905  0.27809  1.0000
  O   O42       1.0  0.79202  0.47623  0.27646  1.0000
  H   H94       1.0  0.71647  0.52518  0.21371  1.0000
  H   H95       1.0  0.79107  0.98044  0.21223  1.0000
  H   H96       1.0  0.82074  0.13379  0.29766  1.0000
  H   H97       1.0  0.68630  0.37125  0.29145  1.0000
  C   C151      1.0  0.60431  0.23539  0.27952  1.0000
  N   N25       1.0  0.63518  0.23813  0.27551  1.0000
  H   H98       1.0  0.59239  0.23327  0.22003  1.0000
  C   C152      1.0  0.77032  0.37014  0.27590  1.0000
  N   N26       1.0  0.76774  0.39835  0.27200  1.0000
  H   H99       1.0  0.77265  0.36043  0.21647  1.0000
  C   C153      1.0  0.63552  0.40131  0.27760  1.0000
  N   N27       1.0  0.60739  0.37042  0.27510  1.0000
  H   H100      1.0  0.64493  0.41295  0.21759  1.0000
  C   C154      1.0  0.90258  0.26922  0.27529  1.0000
  N   N28       1.0  0.87178  0.26664  0.27210  1.0000
  H   H101      1.0  0.91452  0.27167  0.21564  1.0000
  C   C155      1.0  0.73647  0.13437  0.27879  1.0000
  N   N29       1.0  0.73922  0.10624  0.27589  1.0000
  H   H102      1.0  0.73420  0.14384  0.21892  1.0000
  C   C156      1.0  0.87118  0.10317  0.27729  1.0000
  N   N30       1.0  0.89941  0.13393  0.27287  1.0000
  H   H103      1.0  0.86133  0.09103  0.21806  1.0000
  C   C157      1.0  0.96697  0.26003  0.33269  1.0000
  C   C158      1.0  0.93192  0.24337  0.34465  1.0000
  C   C159      1.0  0.91452  0.20802  0.34763  1.0000
  H   H104      1.0  0.97880  0.28511  0.34411  1.0000
  O   O43       1.0  0.88034  0.19128  0.35305  1.0000
  C   C160      1.0  0.59258  0.29661  0.35377  1.0000
  C   C161      1.0  0.57528  0.26128  0.34934  1.0000
  C   C162      1.0  0.54038  0.24465  0.33466  1.0000
  O   O44       1.0  0.62672  0.31329  0.36064  1.0000
  H   H105      1.0  0.52850  0.21954  0.34544  1.0000
  C   C163      1.0  0.74581  0.20804  0.33437  1.0000
  C   C164      1.0  0.76243  0.18965  0.34686  1.0000
  C   C165      1.0  0.79778  0.20757  0.34971  1.0000
  H   H106      1.0  0.72076  0.19488  0.34619  1.0000
  O   O45       1.0  0.81443  0.19005  0.35542  1.0000
  C   C166      1.0  0.70924  0.29716  0.35059  1.0000
  C   C167      1.0  0.74457  0.31517  0.34649  1.0000
  C   C168      1.0  0.76123  0.29684  0.33323  1.0000
  O   O46       1.0  0.69249  0.31457  0.35664  1.0000
  H   H107      1.0  0.78636  0.31012  0.34371  1.0000
  C   C169      1.0  0.79811  0.03925  0.33393  1.0000
  C   C170      1.0  0.81638  0.07416  0.34850  1.0000
  C   C171      1.0  0.79835  0.09146  0.35318  1.0000
  H   H108      1.0  0.81139  0.02740  0.34426  1.0000
  O   O47       1.0  0.81579  0.12561  0.35976  1.0000
  C   C172      1.0  0.70875  0.41338  0.34809  1.0000
  C   C173      1.0  0.69085  0.43083  0.34539  1.0000
  C   C174      1.0  0.70928  0.46588  0.33363  1.0000
  O   O48       1.0  0.69126  0.37922  0.35375  1.0000
  H   H109      1.0  0.69611  0.47776  0.34557  1.0000
  C   C175      1.0  0.61417  0.25037  0.43504  1.0000
  C   C176      1.0  0.59346  0.24405  0.35897  1.0000
  C   C177      1.0  0.65559  0.24599  0.34816  1.0000
  N   N31       1.0  0.64455  0.25284  0.42538  1.0000
  O   O49       1.0  0.60855  0.26260  0.51262  1.0000
  C   C178      1.0  0.59554  0.23811  0.58310  1.0000
  H   H110      1.0  0.57156  0.21643  0.56436  1.0000
  H   H111      1.0  0.59150  0.24971  0.64183  1.0000
  H   H112      1.0  0.61327  0.22985  0.60135  1.0000
  C   C179      1.0  0.75541  0.36495  0.43141  1.0000
  C   C180      1.0  0.76177  0.35061  0.35520  1.0000
  C   C181      1.0  0.75992  0.41084  0.34480  1.0000
  N   N32       1.0  0.75297  0.39290  0.42199  1.0000
  O   O50       1.0  0.74313  0.34716  0.50908  1.0000
  C   C182      1.0  0.76778  0.35825  0.57909  1.0000
  H   H113      1.0  0.78913  0.35545  0.55982  1.0000
  H   H114      1.0  0.75613  0.34272  0.63795  1.0000
  H   H115      1.0  0.77657  0.38434  0.59739  1.0000
  C   C183      1.0  0.64158  0.39235  0.43306  1.0000
  C   C184      1.0  0.65550  0.41273  0.35617  1.0000
  C   C185      1.0  0.59534  0.35037  0.34855  1.0000
  N   N33       1.0  0.61367  0.36187  0.42495  1.0000
  O   O51       1.0  0.65990  0.39839  0.50995  1.0000
  C   C186      1.0  0.64855  0.41135  0.58087  1.0000
  H   H116      1.0  0.65044  0.43515  0.56205  1.0000
  H   H117      1.0  0.66456  0.41574  0.63899  1.0000
  H   H118      1.0  0.62273  0.39345  0.60015  1.0000
  C   C187      1.0  0.89316  0.25409  0.43066  1.0000
  C   C188      1.0  0.91373  0.26059  0.35413  1.0000
  C   C189      1.0  0.85154  0.25865  0.34511  1.0000
  N   N34       1.0  0.86275  0.25163  0.42183  1.0000
  O   O52       1.0  0.89879  0.24166  0.50789  1.0000
  C   C190      1.0  0.91220  0.26611  0.57842  1.0000
  H   H119      1.0  0.93627  0.28762  0.55943  1.0000
  H   H120      1.0  0.91619  0.25435  0.63688  1.0000
  H   H121      1.0  0.89475  0.27466  0.59724  1.0000
  C   C191      1.0  0.75168  0.14030  0.43412  1.0000
  C   C192      1.0  0.74517  0.15430  0.35747  1.0000
  C   C193      1.0  0.74729  0.09413  0.34908  1.0000
  N   N35       1.0  0.75421  0.11238  0.42562  1.0000
  O   O53       1.0  0.76403  0.15855  0.51108  1.0000
  C   C194      1.0  0.73971  0.14728  0.58196  1.0000
  H   H122      1.0  0.71790  0.14936  0.56318  1.0000
  H   H123      1.0  0.75140  0.16322  0.64016  1.0000
  H   H124      1.0  0.73162  0.12141  0.60110  1.0000
  C   C195      1.0  0.86635  0.11321  0.43289  1.0000
  C   C196      1.0  0.85185  0.09243  0.35694  1.0000
  C   C197      1.0  0.91210  0.15437  0.34540  1.0000
  N   N36       1.0  0.89432  0.14354  0.42288  1.0000
  O   O54       1.0  0.84871  0.10786  0.51077  1.0000
  C   C198      1.0  0.85988  0.09435  0.58072  1.0000
  H   H125      1.0  0.85698  0.07014  0.56161  1.0000
  H   H126      1.0  0.84446  0.09059  0.63976  1.0000
  H   H127      1.0  0.88602  0.11163  0.59867  1.0000
  C   C199      1.0  0.98555  0.74323  0.31663  1.0000
  C   C200      1.0  0.93107  0.68956  0.33354  1.0000
  C   C201      1.0  0.96545  0.70726  0.30912  1.0000
  C   C202      1.0  0.52191  0.76150  0.31758  1.0000
  C   C203      1.0  0.54209  0.79747  0.31069  1.0000
  C   C204      1.0  0.57620  0.81514  0.33769  1.0000
  O   O55       1.0  0.97748  0.68763  0.27710  1.0000
  O   O56       1.0  0.53026  0.81713  0.27746  1.0000
  H   H128      1.0  0.48173  0.69271  0.21284  1.0000
  H   H129      1.0  0.87243  0.68828  0.29070  1.0000
  H   H130      1.0  0.63497  0.81650  0.29861  1.0000
  C   C205      1.0  0.76265  0.74335  0.31719  1.0000
  C   C206      1.0  0.81630  0.74253  0.33453  1.0000
  C   C207      1.0  0.79859  0.75912  0.30921  1.0000
  C   C208      1.0  0.74438  0.76145  0.31720  1.0000
  C   C209      1.0  0.70840  0.74558  0.31033  1.0000
  C   C210      1.0  0.69075  0.76217  0.33593  1.0000
  O   O57       1.0  0.81819  0.79066  0.27634  1.0000
  O   O58       1.0  0.68872  0.71395  0.27807  1.0000
  H   H131      1.0  0.81303  0.78958  0.21209  1.0000
  H   H132      1.0  0.69371  0.71487  0.21373  1.0000
  H   H133      1.0  0.81748  0.68512  0.29312  1.0000
  H   H134      1.0  0.68937  0.81951  0.29441  1.0000
  C   C211      1.0  0.76274  0.52075  0.31756  1.0000
  C   C212      1.0  0.76341  0.57503  0.33772  1.0000
  C   C213      1.0  0.74691  0.54090  0.31094  1.0000
  C   C214      1.0  0.74462  0.98440  0.31687  1.0000
  C   C215      1.0  0.76040  0.96423  0.30887  1.0000
  C   C216      1.0  0.74374  0.92987  0.33346  1.0000
  O   O59       1.0  0.71537  0.52905  0.27809  1.0000
  O   O60       1.0  0.79202  0.97623  0.27646  1.0000
  H   H135      1.0  0.71647  0.02518  0.21371  1.0000
  H   H136      1.0  0.79108  0.48044  0.21223  1.0000
  H   H137      1.0  0.82074  0.63379  0.29766  1.0000
  H   H138      1.0  0.68630  0.87125  0.29145  1.0000
  C   C217      1.0  0.60431  0.73539  0.27952  1.0000
  N   N37       1.0  0.63518  0.73813  0.27551  1.0000
  H   H139      1.0  0.59239  0.73327  0.22003  1.0000
  C   C218      1.0  0.77032  0.87014  0.27590  1.0000
  N   N38       1.0  0.76774  0.89835  0.27200  1.0000
  H   H140      1.0  0.77265  0.86043  0.21647  1.0000
  C   C219      1.0  0.63552  0.90131  0.27760  1.0000
  N   N39       1.0  0.60739  0.87042  0.27510  1.0000
  H   H141      1.0  0.64493  0.91295  0.21759  1.0000
  C   C220      1.0  0.90258  0.76922  0.27529  1.0000
  N   N40       1.0  0.87178  0.76664  0.27210  1.0000
  H   H142      1.0  0.91452  0.77167  0.21564  1.0000
  C   C221      1.0  0.73647  0.63437  0.27879  1.0000
  N   N41       1.0  0.73922  0.60624  0.27589  1.0000
  H   H143      1.0  0.73420  0.64384  0.21892  1.0000
  C   C222      1.0  0.87118  0.60317  0.27729  1.0000
  N   N42       1.0  0.89941  0.63393  0.27287  1.0000
  H   H144      1.0  0.86133  0.59103  0.21806  1.0000
  C   C223      1.0  0.96697  0.76003  0.33269  1.0000
  C   C224      1.0  0.93192  0.74337  0.34465  1.0000
  C   C225      1.0  0.91451  0.70802  0.34763  1.0000
  H   H145      1.0  0.97880  0.78511  0.34411  1.0000
  O   O61       1.0  0.88034  0.69128  0.35305  1.0000
  C   C226      1.0  0.59258  0.79661  0.35377  1.0000
  C   C227      1.0  0.57528  0.76128  0.34934  1.0000
  C   C228      1.0  0.54038  0.74465  0.33466  1.0000
  O   O62       1.0  0.62672  0.81329  0.36064  1.0000
  H   H146      1.0  0.52850  0.71954  0.34544  1.0000
  C   C229      1.0  0.74581  0.70804  0.33437  1.0000
  C   C230      1.0  0.76244  0.68965  0.34686  1.0000
  C   C231      1.0  0.79778  0.70757  0.34971  1.0000
  H   H147      1.0  0.72076  0.69488  0.34619  1.0000
  O   O63       1.0  0.81443  0.69005  0.35542  1.0000
  C   C232      1.0  0.70924  0.79716  0.35059  1.0000
  C   C233      1.0  0.74457  0.81517  0.34649  1.0000
  C   C234      1.0  0.76123  0.79684  0.33323  1.0000
  O   O64       1.0  0.69248  0.81457  0.35664  1.0000
  H   H148      1.0  0.78635  0.81012  0.34371  1.0000
  C   C235      1.0  0.79811  0.53925  0.33393  1.0000
  C   C236      1.0  0.81638  0.57416  0.34850  1.0000
  C   C237      1.0  0.79835  0.59146  0.35318  1.0000
  H   H149      1.0  0.81139  0.52740  0.34426  1.0000
  O   O65       1.0  0.81579  0.62561  0.35976  1.0000
  C   C238      1.0  0.70875  0.91338  0.34809  1.0000
  C   C239      1.0  0.69085  0.93083  0.34539  1.0000
  C   C240      1.0  0.70928  0.96588  0.33363  1.0000
  O   O66       1.0  0.69126  0.87922  0.35375  1.0000
  H   H150      1.0  0.69611  0.97776  0.34557  1.0000
  C   C241      1.0  0.61417  0.75037  0.43504  1.0000
  C   C242      1.0  0.59346  0.74405  0.35897  1.0000
  C   C243      1.0  0.65559  0.74599  0.34816  1.0000
  N   N43       1.0  0.64455  0.75284  0.42538  1.0000
  O   O67       1.0  0.60855  0.76260  0.51262  1.0000
  C   C244      1.0  0.59554  0.73811  0.58310  1.0000
  H   H151      1.0  0.57156  0.71643  0.56436  1.0000
  H   H152      1.0  0.59150  0.74970  0.64184  1.0000
  H   H153      1.0  0.61327  0.72985  0.60135  1.0000
  C   C245      1.0  0.75542  0.86495  0.43141  1.0000
  C   C246      1.0  0.76177  0.85061  0.35520  1.0000
  C   C247      1.0  0.75992  0.91084  0.34480  1.0000
  N   N44       1.0  0.75297  0.89289  0.42199  1.0000
  O   O68       1.0  0.74313  0.84716  0.50908  1.0000
  C   C248      1.0  0.76778  0.85825  0.57909  1.0000
  H   H154      1.0  0.78913  0.85545  0.55982  1.0000
  H   H155      1.0  0.75613  0.84272  0.63795  1.0000
  H   H156      1.0  0.77657  0.88434  0.59739  1.0000
  C   C249      1.0  0.64158  0.89235  0.43306  1.0000
  C   C250      1.0  0.65550  0.91273  0.35617  1.0000
  C   C251      1.0  0.59534  0.85037  0.34855  1.0000
  N   N45       1.0  0.61367  0.86187  0.42495  1.0000
  O   O69       1.0  0.65990  0.89839  0.50995  1.0000
  C   C252      1.0  0.64855  0.91135  0.58087  1.0000
  H   H157      1.0  0.65044  0.93515  0.56205  1.0000
  H   H158      1.0  0.66456  0.91574  0.63899  1.0000
  H   H159      1.0  0.62273  0.89345  0.60015  1.0000
  C   C253      1.0  0.89316  0.75409  0.43066  1.0000
  C   C254      1.0  0.91373  0.76059  0.35413  1.0000
  C   C255      1.0  0.85153  0.75865  0.34511  1.0000
  N   N46       1.0  0.86274  0.75163  0.42183  1.0000
  O   O70       1.0  0.89879  0.74166  0.50789  1.0000
  C   C256      1.0  0.91220  0.76611  0.57842  1.0000
  H   H160      1.0  0.93627  0.78762  0.55943  1.0000
  H   H161      1.0  0.91619  0.75435  0.63688  1.0000
  H   H162      1.0  0.89475  0.77466  0.59724  1.0000
  C   C257      1.0  0.75168  0.64030  0.43412  1.0000
  C   C258      1.0  0.74517  0.65430  0.35747  1.0000
  C   C259      1.0  0.74729  0.59412  0.34908  1.0000
  N   N47       1.0  0.75421  0.61238  0.42562  1.0000
  O   O71       1.0  0.76403  0.65855  0.51108  1.0000
  C   C260      1.0  0.73971  0.64728  0.58196  1.0000
  H   H163      1.0  0.71790  0.64936  0.56318  1.0000
  H   H164      1.0  0.75140  0.66322  0.64016  1.0000
  H   H165      1.0  0.73162  0.62141  0.60110  1.0000
  C   C261      1.0  0.86635  0.61321  0.43289  1.0000
  C   C262      1.0  0.85185  0.59243  0.35694  1.0000
  C   C263      1.0  0.91210  0.65437  0.34540  1.0000
  N   N48       1.0  0.89432  0.64354  0.42288  1.0000
  O   O72       1.0  0.84871  0.60786  0.51077  1.0000
  C   C264      1.0  0.85988  0.59435  0.58072  1.0000
  H   H166      1.0  0.85698  0.57014  0.56161  1.0000
  H   H167      1.0  0.84446  0.59059  0.63976  1.0000
  H   H168      1.0  0.88602  0.61163  0.59867  1.0000
