data_image0
_chemical_formula_structural       C3NHC2HNH2C3NHC2HNH4NCHNCHCHCNC4ONCHNCHCHCNC4OCNHCHC2ONH2CNCNHCHC2ONH2CNC3NH3C5NH3C6N2H4NCHNCHNCHNCHC3H2C3H2C3H2C3H2C2HC2NC2ONH2C2NC2ONH2C2NC2ONH2C2NC2ONH2C3NH3C5NH3C6N2H4NCHNCHNCHNCHC3H2C3H2C3H2C3H2C2HC2NC2ONH2C2NC2ONH2C2NC2ONH2C2NC2ONH2C6N2H3C6N2H4C6N2H4NCHNCHNCHNCHNCHNCHC3H2C3H2C3H2C3H2C3H2C3H2C2NC2ONH2C2NC2ONH2C2NC2ONH2C2NC2ONH2C2NC2ONH2C2NC2ONH2C6N2H3C6N2H4C6N2H4NCHNCHNCHNCHNCHNCHC3H2C3H2C3H2C3H2C3H2C3H2C2NC2ONH2C2NC2ONH2C2NC2ONH2C2NC2ONH2C2NC2ONH2C2NC2ONH2
_chemical_formula_sum              "C264 N96 H168 O24"
_cell_length_a       45.9068
_cell_length_b       45.9068
_cell_length_c       14.8752
_cell_angle_alpha    90
_cell_angle_beta     90
_cell_angle_gamma    120

_space_group_name_H-M_alt    "P 1"
_space_group_IT_number       1

loop_
  _space_group_symop_operation_xyz
  'x, y, z'

loop_
  _atom_site_type_symbol
  _atom_site_label
  _atom_site_symmetry_multiplicity
  _atom_site_fract_x
  _atom_site_fract_y
  _atom_site_fract_z
  _atom_site_occupancy
  C   C1        1.0  0.02469  0.26348  0.29846  1.0000
  C   C2        1.0  0.04508  0.29983  0.29530  1.0000
  C   C3        1.0  0.07652  0.31694  0.34277  1.0000
  N   N1        1.0  0.03510  0.31805  0.24484  1.0000
  H   H1        1.0  0.04793  0.34237  0.24142  1.0000
  C   C4        1.0  0.07652  0.26303  0.34852  1.0000
  C   C5        1.0  0.04306  0.24650  0.31739  1.0000
  H   H2        1.0  0.03140  0.22101  0.32125  1.0000
  N   N2        1.0  0.07649  0.32895  0.55101  1.0000
  H   H3        1.0  0.05726  0.32491  0.51454  1.0000
  H   H4        1.0  0.07221  0.31972  0.61153  1.0000
  C   C6        1.0  0.02469  0.76348  0.29846  1.0000
  C   C7        1.0  0.04508  0.79983  0.29530  1.0000
  C   C8        1.0  0.07652  0.81694  0.34277  1.0000
  N   N3        1.0  0.03510  0.81805  0.24484  1.0000
  H   H5        1.0  0.04793  0.84237  0.24142  1.0000
  C   C9        1.0  0.07652  0.76303  0.34852  1.0000
  C   C10       1.0  0.04306  0.74650  0.31739  1.0000
  H   H6        1.0  0.03140  0.72102  0.32125  1.0000
  N   N4        1.0  0.07649  0.82895  0.55101  1.0000
  H   H7        1.0  0.05726  0.82491  0.51454  1.0000
  H   H8        1.0  0.07221  0.81972  0.61153  1.0000
  H   H9        1.0  0.01737  0.30697  0.20028  1.0000
  H   H10       1.0  0.01737  0.80697  0.20028  1.0000
  N   N5        1.0  0.13775  0.23914  0.28342  1.0000
  C   C11       1.0  0.10674  0.23641  0.28208  1.0000
  H   H11       1.0  0.09518  0.23350  0.22136  1.0000
  N   N6        1.0  0.10970  0.37261  0.28291  1.0000
  C   C12       1.0  0.13795  0.40364  0.28126  1.0000
  H   H12       1.0  0.14656  0.41509  0.22041  1.0000
  C   C13       1.0  0.09110  0.29739  0.36871  1.0000
  H   H13       1.0  0.11555  0.30949  0.39090  1.0000
  C   C14       1.0  0.09671  0.24784  0.35789  1.0000
  N   N7        1.0  0.11679  0.25559  0.43134  1.0000
  C   C15       1.0  0.14512  0.25343  0.43787  1.0000
  C   C16       1.0  0.09762  0.35233  0.35684  1.0000
  C   C17       1.0  0.11674  0.36549  0.43742  1.0000
  C   C18       1.0  0.10842  0.34943  0.52285  1.0000
  O   O1        1.0  0.13338  0.35670  0.58267  1.0000
  N   N8        1.0  0.13775  0.73914  0.28342  1.0000
  C   C19       1.0  0.10674  0.73641  0.28208  1.0000
  H   H14       1.0  0.09518  0.73350  0.22136  1.0000
  N   N9        1.0  0.10970  0.87261  0.28291  1.0000
  C   C20       1.0  0.13795  0.90364  0.28126  1.0000
  H   H15       1.0  0.14656  0.91510  0.22041  1.0000
  C   C21       1.0  0.09110  0.79739  0.36871  1.0000
  H   H16       1.0  0.11556  0.80949  0.39090  1.0000
  C   C22       1.0  0.09671  0.74784  0.35789  1.0000
  N   N10       1.0  0.11679  0.75559  0.43134  1.0000
  C   C23       1.0  0.14512  0.75343  0.43787  1.0000
  C   C24       1.0  0.09762  0.85233  0.35684  1.0000
  C   C25       1.0  0.11674  0.86549  0.43742  1.0000
  C   C26       1.0  0.10842  0.84943  0.52285  1.0000
  O   O2        1.0  0.13339  0.85670  0.58267  1.0000
  C   C27       1.0  0.19351  0.26171  0.34268  1.0000
  N   N11       1.0  0.19235  0.21905  0.24523  1.0000
  H   H17       1.0  0.16804  0.20763  0.24164  1.0000
  C   C28       1.0  0.19484  0.43398  0.34777  1.0000
  H   H18       1.0  0.19814  0.47928  0.32152  1.0000
  C   C29       1.0  0.15814  0.24738  0.35715  1.0000
  C   C30       1.0  0.16132  0.26119  0.52312  1.0000
  O   O3        1.0  0.15418  0.27894  0.58309  1.0000
  N   N12       1.0  0.18180  0.24970  0.55099  1.0000
  H   H19       1.0  0.18575  0.23447  0.51442  1.0000
  H   H20       1.0  0.19112  0.25466  0.61141  1.0000
  C   C31       1.0  0.15945  0.41392  0.35698  1.0000
  N   N13       1.0  0.14719  0.39388  0.43058  1.0000
  C   C32       1.0  0.19351  0.76171  0.34268  1.0000
  N   N14       1.0  0.19235  0.71905  0.24523  1.0000
  H   H21       1.0  0.16804  0.70763  0.24164  1.0000
  C   C33       1.0  0.19483  0.93397  0.34777  1.0000
  H   H22       1.0  0.19814  0.97928  0.32152  1.0000
  C   C34       1.0  0.15814  0.74738  0.35715  1.0000
  C   C35       1.0  0.16132  0.76119  0.52312  1.0000
  O   O4        1.0  0.15418  0.77894  0.58309  1.0000
  N   N15       1.0  0.18180  0.74970  0.55099  1.0000
  H   H23       1.0  0.18575  0.73447  0.51442  1.0000
  H   H24       1.0  0.19112  0.75466  0.61141  1.0000
  C   C36       1.0  0.15945  0.91392  0.35698  1.0000
  N   N16       1.0  0.14719  0.89388  0.43058  1.0000
  C   C37       1.0  0.48800  0.24489  0.29850  1.0000
  C   C38       1.0  0.43602  0.19144  0.34218  1.0000
  C   C39       1.0  0.46758  0.20854  0.29526  1.0000
  N   N17       1.0  0.47765  0.19030  0.24513  1.0000
  H   H25       1.0  0.99531  0.20141  0.20041  1.0000
  H   H26       1.0  0.46458  0.16601  0.24111  1.0000
  H   H27       1.0  0.51737  0.30697  0.20028  1.0000
  C   C40       1.0  0.26554  0.24512  0.29872  1.0000
  C   C41       1.0  0.31903  0.24653  0.34137  1.0000
  C   C42       1.0  0.30188  0.26104  0.29492  1.0000
  C   C43       1.0  0.24695  0.26323  0.29883  1.0000
  C   C44       1.0  0.21060  0.24729  0.29556  1.0000
  N   N18       1.0  0.32006  0.28932  0.24470  1.0000
  H   H28       1.0  0.30888  0.29588  0.20021  1.0000
  H   H29       1.0  0.34434  0.30045  0.24020  1.0000
  H   H30       1.0  0.20343  0.21234  0.20081  1.0000
  C   C45       1.0  0.26539  0.02258  0.29869  1.0000
  C   C46       1.0  0.26389  0.07452  0.34240  1.0000
  C   C47       1.0  0.24946  0.04299  0.29536  1.0000
  C   C48       1.0  0.24726  0.48588  0.29874  1.0000
  C   C49       1.0  0.26317  0.46545  0.29515  1.0000
  C   C50       1.0  0.24865  0.43381  0.34172  1.0000
  N   N19       1.0  0.22120  0.03296  0.24507  1.0000
  N   N20       1.0  0.29149  0.47554  0.24507  1.0000
  H   H31       1.0  0.21465  0.51527  0.20044  1.0000
  H   H32       1.0  0.20988  0.04594  0.24105  1.0000
  H   H33       1.0  0.30262  0.46240  0.24063  1.0000
  H   H34       1.0  0.29799  0.99322  0.20041  1.0000
  N   N21       1.0  0.27137  0.40069  0.28240  1.0000
  C   C51       1.0  0.27396  0.37234  0.28133  1.0000
  H   H35       1.0  0.27728  0.36381  0.22087  1.0000
  N   N22       1.0  0.37493  0.26925  0.28202  1.0000
  C   C52       1.0  0.40587  0.27184  0.28101  1.0000
  H   H36       1.0  0.41773  0.27516  0.22056  1.0000
  N   N23       1.0  0.24132  0.10763  0.28282  1.0000
  C   C53       1.0  0.23850  0.13586  0.28125  1.0000
  H   H37       1.0  0.23564  0.14447  0.22041  1.0000
  N   N24       1.0  0.40286  0.13561  0.28273  1.0000
  C   C54       1.0  0.37450  0.10468  0.28156  1.0000
  H   H38       1.0  0.36598  0.09285  0.22106  1.0000
  C   C55       1.0  0.46965  0.26188  0.31739  1.0000
  C   C56       1.0  0.43613  0.24539  0.34806  1.0000
  C   C57       1.0  0.42147  0.21102  0.36816  1.0000
  H   H39       1.0  0.48130  0.28738  0.32094  1.0000
  H   H40       1.0  0.39694  0.19889  0.38974  1.0000
  C   C58       1.0  0.24851  0.20979  0.31784  1.0000
  C   C59       1.0  0.26505  0.19272  0.34775  1.0000
  C   C60       1.0  0.29949  0.21236  0.36693  1.0000
  H   H41       1.0  0.22302  0.19603  0.32184  1.0000
  H   H42       1.0  0.31163  0.19995  0.38840  1.0000
  C   C61       1.0  0.21307  0.29587  0.36839  1.0000
  C   C62       1.0  0.24746  0.31558  0.34843  1.0000
  C   C63       1.0  0.26397  0.29858  0.31783  1.0000
  H   H43       1.0  0.20097  0.30826  0.39027  1.0000
  H   H44       1.0  0.28946  0.31239  0.32128  1.0000
  C   C64       1.0  0.30074  0.04092  0.31755  1.0000
  C   C65       1.0  0.31771  0.07440  0.34855  1.0000
  C   C66       1.0  0.29798  0.08904  0.36864  1.0000
  H   H45       1.0  0.31454  0.02923  0.32146  1.0000
  H   H46       1.0  0.31037  0.11353  0.39053  1.0000
  C   C67       1.0  0.21447  0.41920  0.36733  1.0000
  C   C68       1.0  0.21191  0.46757  0.31774  1.0000
  H   H47       1.0  0.20206  0.39466  0.38877  1.0000
  C   C69       1.0  0.26298  0.41276  0.35599  1.0000
  C   C70       1.0  0.26269  0.35099  0.35727  1.0000
  N   N25       1.0  0.25483  0.36328  0.43064  1.0000
  C   C71       1.0  0.25685  0.39372  0.43686  1.0000
  C   C72       1.0  0.24913  0.40225  0.52206  1.0000
  O   O5        1.0  0.23140  0.37739  0.58215  1.0000
  N   N26       1.0  0.26060  0.43424  0.54971  1.0000
  H   H48       1.0  0.27614  0.45335  0.51340  1.0000
  H   H49       1.0  0.25597  0.43862  0.61047  1.0000
  C   C73       1.0  0.35443  0.26088  0.35552  1.0000
  C   C74       1.0  0.41594  0.26060  0.35704  1.0000
  N   N27       1.0  0.39578  0.25277  0.43033  1.0000
  C   C75       1.0  0.36734  0.25478  0.43643  1.0000
  C   C76       1.0  0.35111  0.24710  0.52164  1.0000
  O   O6        1.0  0.35820  0.22936  0.58177  1.0000
  N   N28       1.0  0.33060  0.25860  0.54923  1.0000
  H   H50       1.0  0.32705  0.27415  0.51289  1.0000
  H   H51       1.0  0.32160  0.25399  0.61000  1.0000
  C   C77       1.0  0.24953  0.09554  0.35671  1.0000
  C   C78       1.0  0.24972  0.15734  0.35699  1.0000
  N   N29       1.0  0.25753  0.14509  0.43054  1.0000
  C   C79       1.0  0.25550  0.11465  0.43731  1.0000
  C   C80       1.0  0.26325  0.10631  0.52270  1.0000
  O   O7        1.0  0.28092  0.13126  0.58259  1.0000
  N   N30       1.0  0.25183  0.07437  0.55077  1.0000
  H   H52       1.0  0.23666  0.05515  0.51425  1.0000
  H   H53       1.0  0.25678  0.07008  0.61127  1.0000
  C   C81       1.0  0.41492  0.15604  0.35637  1.0000
  C   C82       1.0  0.35312  0.09458  0.35743  1.0000
  N   N31       1.0  0.36541  0.11469  0.43088  1.0000
  C   C83       1.0  0.39587  0.14309  0.43720  1.0000
  C   C84       1.0  0.40440  0.15927  0.52249  1.0000
  O   O8        1.0  0.37955  0.15212  0.58261  1.0000
  N   N32       1.0  0.43639  0.17975  0.55018  1.0000
  H   H54       1.0  0.45550  0.18335  0.51382  1.0000
  H   H55       1.0  0.44078  0.18872  0.61099  1.0000
  C   C85       1.0  0.48800  0.74489  0.29850  1.0000
  C   C86       1.0  0.43602  0.69144  0.34218  1.0000
  C   C87       1.0  0.46758  0.70854  0.29526  1.0000
  N   N33       1.0  0.47765  0.69030  0.24513  1.0000
  H   H56       1.0  0.99531  0.70141  0.20041  1.0000
  H   H57       1.0  0.46458  0.66601  0.24111  1.0000
  H   H58       1.0  0.51737  0.80697  0.20028  1.0000
  C   C88       1.0  0.26554  0.74512  0.29872  1.0000
  C   C89       1.0  0.31903  0.74653  0.34137  1.0000
  C   C90       1.0  0.30188  0.76104  0.29492  1.0000
  C   C91       1.0  0.24695  0.76323  0.29883  1.0000
  C   C92       1.0  0.21060  0.74729  0.29556  1.0000
  N   N34       1.0  0.32006  0.78932  0.24470  1.0000
  H   H59       1.0  0.30888  0.79588  0.20021  1.0000
  H   H60       1.0  0.34434  0.80045  0.24020  1.0000
  H   H61       1.0  0.20343  0.71234  0.20081  1.0000
  C   C93       1.0  0.26539  0.52258  0.29869  1.0000
  C   C94       1.0  0.26389  0.57452  0.34240  1.0000
  C   C95       1.0  0.24946  0.54299  0.29536  1.0000
  C   C96       1.0  0.24726  0.98588  0.29874  1.0000
  C   C97       1.0  0.26317  0.96545  0.29515  1.0000
  C   C98       1.0  0.24865  0.93381  0.34172  1.0000
  N   N35       1.0  0.22120  0.53296  0.24507  1.0000
  N   N36       1.0  0.29149  0.97554  0.24507  1.0000
  H   H62       1.0  0.21465  0.01527  0.20044  1.0000
  H   H63       1.0  0.20988  0.54594  0.24105  1.0000
  H   H64       1.0  0.30262  0.96240  0.24063  1.0000
  H   H65       1.0  0.29799  0.49321  0.20041  1.0000
  N   N37       1.0  0.27137  0.90069  0.28240  1.0000
  C   C99       1.0  0.27396  0.87234  0.28133  1.0000
  H   H66       1.0  0.27728  0.86381  0.22087  1.0000
  N   N38       1.0  0.37493  0.76925  0.28202  1.0000
  C   C100      1.0  0.40587  0.77184  0.28101  1.0000
  H   H67       1.0  0.41773  0.77516  0.22056  1.0000
  N   N39       1.0  0.24132  0.60763  0.28282  1.0000
  C   C101      1.0  0.23850  0.63586  0.28125  1.0000
  H   H68       1.0  0.23564  0.64447  0.22041  1.0000
  N   N40       1.0  0.40287  0.63561  0.28273  1.0000
  C   C102      1.0  0.37450  0.60467  0.28156  1.0000
  H   H69       1.0  0.36599  0.59285  0.22106  1.0000
  C   C103      1.0  0.46965  0.76189  0.31739  1.0000
  C   C104      1.0  0.43613  0.74539  0.34806  1.0000
  C   C105      1.0  0.42147  0.71102  0.36816  1.0000
  H   H70       1.0  0.48130  0.78738  0.32094  1.0000
  H   H71       1.0  0.39695  0.69889  0.38974  1.0000
  C   C106      1.0  0.24851  0.70979  0.31784  1.0000
  C   C107      1.0  0.26505  0.69272  0.34775  1.0000
  C   C108      1.0  0.29949  0.71236  0.36693  1.0000
  H   H72       1.0  0.22303  0.69603  0.32184  1.0000
  H   H73       1.0  0.31163  0.69995  0.38840  1.0000
  C   C109      1.0  0.21307  0.79587  0.36839  1.0000
  C   C110      1.0  0.24746  0.81559  0.34843  1.0000
  C   C111      1.0  0.26397  0.79858  0.31783  1.0000
  H   H74       1.0  0.20097  0.80825  0.39027  1.0000
  H   H75       1.0  0.28946  0.81239  0.32128  1.0000
  C   C112      1.0  0.30074  0.54092  0.31755  1.0000
  C   C113      1.0  0.31771  0.57440  0.34855  1.0000
  C   C114      1.0  0.29798  0.58904  0.36864  1.0000
  H   H76       1.0  0.31454  0.52923  0.32146  1.0000
  H   H77       1.0  0.31037  0.61353  0.39053  1.0000
  C   C115      1.0  0.21447  0.91920  0.36733  1.0000
  C   C116      1.0  0.21192  0.96757  0.31774  1.0000
  H   H78       1.0  0.20207  0.89466  0.38877  1.0000
  C   C117      1.0  0.26298  0.91276  0.35599  1.0000
  C   C118      1.0  0.26269  0.85099  0.35727  1.0000
  N   N41       1.0  0.25483  0.86328  0.43064  1.0000
  C   C119      1.0  0.25685  0.89372  0.43686  1.0000
  C   C120      1.0  0.24913  0.90225  0.52206  1.0000
  O   O9        1.0  0.23140  0.87739  0.58215  1.0000
  N   N42       1.0  0.26060  0.93424  0.54971  1.0000
  H   H79       1.0  0.27614  0.95335  0.51340  1.0000
  H   H80       1.0  0.25597  0.93862  0.61047  1.0000
  C   C121      1.0  0.35443  0.76088  0.35552  1.0000
  C   C122      1.0  0.41594  0.76060  0.35704  1.0000
  N   N43       1.0  0.39578  0.75277  0.43033  1.0000
  C   C123      1.0  0.36734  0.75478  0.43643  1.0000
  C   C124      1.0  0.35110  0.74710  0.52164  1.0000
  O   O10       1.0  0.35820  0.72936  0.58177  1.0000
  N   N44       1.0  0.33060  0.75860  0.54923  1.0000
  H   H81       1.0  0.32705  0.77414  0.51289  1.0000
  H   H82       1.0  0.32160  0.75399  0.61000  1.0000
  C   C125      1.0  0.24953  0.59554  0.35671  1.0000
  C   C126      1.0  0.24972  0.65734  0.35699  1.0000
  N   N45       1.0  0.25753  0.64509  0.43054  1.0000
  C   C127      1.0  0.25550  0.61465  0.43731  1.0000
  C   C128      1.0  0.26326  0.60631  0.52270  1.0000
  O   O11       1.0  0.28092  0.63126  0.58259  1.0000
  N   N46       1.0  0.25183  0.57437  0.55077  1.0000
  H   H83       1.0  0.23666  0.55515  0.51425  1.0000
  H   H84       1.0  0.25679  0.57008  0.61127  1.0000
  C   C129      1.0  0.41492  0.65604  0.35637  1.0000
  C   C130      1.0  0.35312  0.59458  0.35743  1.0000
  N   N47       1.0  0.36541  0.61469  0.43088  1.0000
  C   C131      1.0  0.39587  0.64310  0.43720  1.0000
  C   C132      1.0  0.40440  0.65927  0.52249  1.0000
  O   O12       1.0  0.37955  0.65212  0.58261  1.0000
  N   N48       1.0  0.43640  0.67975  0.55018  1.0000
  H   H85       1.0  0.45550  0.68335  0.51382  1.0000
  H   H86       1.0  0.44078  0.68872  0.61099  1.0000
  C   C133      1.0  0.98800  0.24489  0.29850  1.0000
  C   C134      1.0  0.93602  0.19144  0.34218  1.0000
  C   C135      1.0  0.96758  0.20854  0.29526  1.0000
  C   C136      1.0  0.52469  0.26348  0.29846  1.0000
  C   C137      1.0  0.54508  0.29983  0.29530  1.0000
  C   C138      1.0  0.57652  0.31694  0.34277  1.0000
  N   N49       1.0  0.97765  0.19030  0.24513  1.0000
  N   N50       1.0  0.53510  0.31805  0.24484  1.0000
  H   H87       1.0  0.49531  0.20141  0.20041  1.0000
  H   H88       1.0  0.96458  0.16601  0.24111  1.0000
  H   H89       1.0  0.54793  0.34237  0.24142  1.0000
  C   C139      1.0  0.76554  0.24512  0.29872  1.0000
  C   C140      1.0  0.81903  0.24653  0.34137  1.0000
  C   C141      1.0  0.80188  0.26104  0.29492  1.0000
  C   C142      1.0  0.74695  0.26323  0.29883  1.0000
  C   C143      1.0  0.71060  0.24729  0.29556  1.0000
  C   C144      1.0  0.69351  0.26171  0.34268  1.0000
  N   N51       1.0  0.82006  0.28932  0.24470  1.0000
  N   N52       1.0  0.69235  0.21905  0.24523  1.0000
  H   H90       1.0  0.80888  0.29588  0.20021  1.0000
  H   H91       1.0  0.84434  0.30045  0.24020  1.0000
  H   H92       1.0  0.66804  0.20763  0.24164  1.0000
  H   H93       1.0  0.70342  0.21234  0.20081  1.0000
  C   C145      1.0  0.76539  0.02258  0.29869  1.0000
  C   C146      1.0  0.76389  0.07452  0.34240  1.0000
  C   C147      1.0  0.74946  0.04299  0.29536  1.0000
  C   C148      1.0  0.74726  0.48588  0.29874  1.0000
  C   C149      1.0  0.76317  0.46545  0.29515  1.0000
  C   C150      1.0  0.74865  0.43381  0.34172  1.0000
  N   N53       1.0  0.72120  0.03296  0.24507  1.0000
  N   N54       1.0  0.79149  0.47554  0.24507  1.0000
  H   H94       1.0  0.71465  0.51527  0.20044  1.0000
  H   H95       1.0  0.70988  0.04594  0.24105  1.0000
  H   H96       1.0  0.80263  0.46240  0.24063  1.0000
  H   H97       1.0  0.79800  0.99322  0.20041  1.0000
  N   N55       1.0  0.63775  0.23914  0.28342  1.0000
  C   C151      1.0  0.60674  0.23641  0.28208  1.0000
  H   H98       1.0  0.59518  0.23350  0.22136  1.0000
  N   N56       1.0  0.77136  0.40069  0.28240  1.0000
  C   C152      1.0  0.77396  0.37234  0.28133  1.0000
  H   H99       1.0  0.77728  0.36381  0.22087  1.0000
  N   N57       1.0  0.60970  0.37261  0.28291  1.0000
  C   C153      1.0  0.63795  0.40364  0.28126  1.0000
  H   H100      1.0  0.64656  0.41509  0.22041  1.0000
  N   N58       1.0  0.87493  0.26925  0.28202  1.0000
  C   C154      1.0  0.90587  0.27184  0.28101  1.0000
  H   H101      1.0  0.91773  0.27516  0.22056  1.0000
  N   N59       1.0  0.74131  0.10763  0.28282  1.0000
  C   C155      1.0  0.73850  0.13586  0.28125  1.0000
  H   H102      1.0  0.73564  0.14447  0.22041  1.0000
  N   N60       1.0  0.90287  0.13561  0.28273  1.0000
  C   C156      1.0  0.87450  0.10468  0.28156  1.0000
  H   H103      1.0  0.86598  0.09285  0.22106  1.0000
  C   C157      1.0  0.96965  0.26188  0.31739  1.0000
  C   C158      1.0  0.93613  0.24539  0.34806  1.0000
  C   C159      1.0  0.92147  0.21102  0.36816  1.0000
  H   H104      1.0  0.98130  0.28738  0.32094  1.0000
  H   H105      1.0  0.89694  0.19889  0.38974  1.0000
  C   C160      1.0  0.59110  0.29739  0.36871  1.0000
  C   C161      1.0  0.57652  0.26303  0.34852  1.0000
  C   C162      1.0  0.54306  0.24650  0.31739  1.0000
  H   H106      1.0  0.61556  0.30949  0.39090  1.0000
  H   H107      1.0  0.53140  0.22101  0.32125  1.0000
  C   C163      1.0  0.74851  0.20979  0.31784  1.0000
  C   C164      1.0  0.76505  0.19272  0.34775  1.0000
  C   C165      1.0  0.79949  0.21236  0.36693  1.0000
  H   H108      1.0  0.72302  0.19603  0.32184  1.0000
  H   H109      1.0  0.81163  0.19995  0.38840  1.0000
  C   C166      1.0  0.71307  0.29587  0.36839  1.0000
  C   C167      1.0  0.74746  0.31558  0.34843  1.0000
  C   C168      1.0  0.76397  0.29858  0.31783  1.0000
  H   H110      1.0  0.70097  0.30826  0.39027  1.0000
  H   H111      1.0  0.78946  0.31239  0.32128  1.0000
  C   C169      1.0  0.80074  0.04092  0.31755  1.0000
  C   C170      1.0  0.81771  0.07440  0.34855  1.0000
  C   C171      1.0  0.79798  0.08904  0.36864  1.0000
  H   H112      1.0  0.81454  0.02923  0.32146  1.0000
  H   H113      1.0  0.81037  0.11353  0.39053  1.0000
  C   C172      1.0  0.71447  0.41920  0.36733  1.0000
  C   C173      1.0  0.69483  0.43398  0.34777  1.0000
  C   C174      1.0  0.71191  0.46757  0.31774  1.0000
  H   H114      1.0  0.70206  0.39466  0.38877  1.0000
  H   H115      1.0  0.69814  0.47928  0.32152  1.0000
  C   C175      1.0  0.65814  0.24738  0.35715  1.0000
  C   C176      1.0  0.59671  0.24784  0.35789  1.0000
  N   N61       1.0  0.61679  0.25559  0.43134  1.0000
  C   C177      1.0  0.64512  0.25343  0.43787  1.0000
  C   C178      1.0  0.66132  0.26119  0.52312  1.0000
  O   O13       1.0  0.65418  0.27894  0.58309  1.0000
  N   N62       1.0  0.68180  0.24970  0.55099  1.0000
  H   H116      1.0  0.68575  0.23447  0.51442  1.0000
  H   H117      1.0  0.69112  0.25466  0.61141  1.0000
  C   C179      1.0  0.76298  0.41276  0.35599  1.0000
  C   C180      1.0  0.76269  0.35099  0.35727  1.0000
  N   N63       1.0  0.75483  0.36328  0.43064  1.0000
  C   C181      1.0  0.75685  0.39372  0.43686  1.0000
  C   C182      1.0  0.74913  0.40225  0.52206  1.0000
  O   O14       1.0  0.73140  0.37739  0.58215  1.0000
  N   N64       1.0  0.76060  0.43424  0.54971  1.0000
  H   H118      1.0  0.77614  0.45335  0.51340  1.0000
  H   H119      1.0  0.75597  0.43862  0.61047  1.0000
  C   C183      1.0  0.59762  0.35233  0.35684  1.0000
  C   C184      1.0  0.65945  0.41392  0.35698  1.0000
  N   N65       1.0  0.64719  0.39388  0.43058  1.0000
  C   C185      1.0  0.61674  0.36549  0.43742  1.0000
  C   C186      1.0  0.60842  0.34943  0.52285  1.0000
  O   O15       1.0  0.63338  0.35670  0.58267  1.0000
  N   N66       1.0  0.57649  0.32895  0.55101  1.0000
  H   H120      1.0  0.55726  0.32491  0.51454  1.0000
  H   H121      1.0  0.57221  0.31972  0.61153  1.0000
  C   C187      1.0  0.85443  0.26088  0.35552  1.0000
  C   C188      1.0  0.91594  0.26060  0.35704  1.0000
  N   N67       1.0  0.89578  0.25277  0.43033  1.0000
  C   C189      1.0  0.86734  0.25478  0.43643  1.0000
  C   C190      1.0  0.85110  0.24710  0.52164  1.0000
  O   O16       1.0  0.85820  0.22936  0.58177  1.0000
  N   N68       1.0  0.83060  0.25860  0.54923  1.0000
  H   H122      1.0  0.82705  0.27415  0.51289  1.0000
  H   H123      1.0  0.82160  0.25399  0.61000  1.0000
  C   C191      1.0  0.74953  0.09554  0.35671  1.0000
  C   C192      1.0  0.74972  0.15734  0.35699  1.0000
  N   N69       1.0  0.75753  0.14509  0.43054  1.0000
  C   C193      1.0  0.75549  0.11465  0.43731  1.0000
  C   C194      1.0  0.76326  0.10631  0.52270  1.0000
  O   O17       1.0  0.78092  0.13126  0.58259  1.0000
  N   N70       1.0  0.75183  0.07437  0.55077  1.0000
  H   H124      1.0  0.73666  0.05515  0.51425  1.0000
  H   H125      1.0  0.75678  0.07008  0.61127  1.0000
  C   C195      1.0  0.91492  0.15604  0.35637  1.0000
  C   C196      1.0  0.85312  0.09458  0.35743  1.0000
  N   N71       1.0  0.86541  0.11469  0.43088  1.0000
  C   C197      1.0  0.89587  0.14309  0.43720  1.0000
  C   C198      1.0  0.90440  0.15927  0.52249  1.0000
  O   O18       1.0  0.87955  0.15212  0.58261  1.0000
  N   N72       1.0  0.93639  0.17975  0.55018  1.0000
  H   H126      1.0  0.95550  0.18335  0.51382  1.0000
  H   H127      1.0  0.94078  0.18872  0.61099  1.0000
  C   C199      1.0  0.98800  0.74489  0.29850  1.0000
  C   C200      1.0  0.93602  0.69144  0.34218  1.0000
  C   C201      1.0  0.96758  0.70854  0.29526  1.0000
  C   C202      1.0  0.52469  0.76348  0.29846  1.0000
  C   C203      1.0  0.54508  0.79983  0.29530  1.0000
  C   C204      1.0  0.57652  0.81694  0.34277  1.0000
  N   N73       1.0  0.97765  0.69030  0.24513  1.0000
  N   N74       1.0  0.53510  0.81805  0.24484  1.0000
  H   H128      1.0  0.49531  0.70141  0.20041  1.0000
  H   H129      1.0  0.96458  0.66601  0.24111  1.0000
  H   H130      1.0  0.54793  0.84237  0.24142  1.0000
  C   C205      1.0  0.76554  0.74512  0.29872  1.0000
  C   C206      1.0  0.81903  0.74653  0.34137  1.0000
  C   C207      1.0  0.80188  0.76104  0.29492  1.0000
  C   C208      1.0  0.74695  0.76323  0.29883  1.0000
  C   C209      1.0  0.71060  0.74729  0.29556  1.0000
  C   C210      1.0  0.69351  0.76171  0.34268  1.0000
  N   N75       1.0  0.82006  0.78932  0.24470  1.0000
  N   N76       1.0  0.69235  0.71905  0.24523  1.0000
  H   H131      1.0  0.80888  0.79588  0.20021  1.0000
  H   H132      1.0  0.84434  0.80045  0.24020  1.0000
  H   H133      1.0  0.66804  0.70763  0.24164  1.0000
  H   H134      1.0  0.70342  0.71234  0.20081  1.0000
  C   C211      1.0  0.76539  0.52258  0.29869  1.0000
  C   C212      1.0  0.76389  0.57452  0.34240  1.0000
  C   C213      1.0  0.74946  0.54299  0.29536  1.0000
  C   C214      1.0  0.74726  0.98588  0.29874  1.0000
  C   C215      1.0  0.76317  0.96545  0.29515  1.0000
  C   C216      1.0  0.74865  0.93381  0.34172  1.0000
  N   N77       1.0  0.72120  0.53296  0.24507  1.0000
  N   N78       1.0  0.79149  0.97554  0.24507  1.0000
  H   H135      1.0  0.71465  0.01527  0.20044  1.0000
  H   H136      1.0  0.70988  0.54594  0.24105  1.0000
  H   H137      1.0  0.80263  0.96240  0.24063  1.0000
  H   H138      1.0  0.79799  0.49321  0.20041  1.0000
  N   N79       1.0  0.63775  0.73914  0.28342  1.0000
  C   C217      1.0  0.60674  0.73641  0.28208  1.0000
  H   H139      1.0  0.59518  0.73350  0.22136  1.0000
  N   N80       1.0  0.77136  0.90069  0.28240  1.0000
  C   C218      1.0  0.77396  0.87234  0.28133  1.0000
  H   H140      1.0  0.77728  0.86381  0.22087  1.0000
  N   N81       1.0  0.60971  0.87261  0.28291  1.0000
  C   C219      1.0  0.63795  0.90364  0.28126  1.0000
  H   H141      1.0  0.64656  0.91510  0.22041  1.0000
  N   N82       1.0  0.87493  0.76925  0.28202  1.0000
  C   C220      1.0  0.90587  0.77184  0.28101  1.0000
  H   H142      1.0  0.91773  0.77516  0.22056  1.0000
  N   N83       1.0  0.74132  0.60763  0.28282  1.0000
  C   C221      1.0  0.73850  0.63586  0.28125  1.0000
  H   H143      1.0  0.73564  0.64447  0.22041  1.0000
  N   N84       1.0  0.90287  0.63561  0.28273  1.0000
  C   C222      1.0  0.87450  0.60467  0.28156  1.0000
  H   H144      1.0  0.86598  0.59285  0.22106  1.0000
  C   C223      1.0  0.96965  0.76189  0.31739  1.0000
  C   C224      1.0  0.93613  0.74539  0.34806  1.0000
  C   C225      1.0  0.92147  0.71102  0.36816  1.0000
  H   H145      1.0  0.98130  0.78738  0.32094  1.0000
  H   H146      1.0  0.89695  0.69889  0.38974  1.0000
  C   C226      1.0  0.59110  0.79739  0.36871  1.0000
  C   C227      1.0  0.57652  0.76303  0.34852  1.0000
  C   C228      1.0  0.54306  0.74650  0.31739  1.0000
  H   H147      1.0  0.61555  0.80949  0.39090  1.0000
  H   H148      1.0  0.53140  0.72102  0.32125  1.0000
  C   C229      1.0  0.74851  0.70979  0.31784  1.0000
  C   C230      1.0  0.76505  0.69272  0.34775  1.0000
  C   C231      1.0  0.79949  0.71236  0.36693  1.0000
  H   H149      1.0  0.72302  0.69603  0.32184  1.0000
  H   H150      1.0  0.81163  0.69995  0.38840  1.0000
  C   C232      1.0  0.71307  0.79587  0.36839  1.0000
  C   C233      1.0  0.74746  0.81559  0.34843  1.0000
  C   C234      1.0  0.76397  0.79858  0.31783  1.0000
  H   H151      1.0  0.70097  0.80825  0.39027  1.0000
  H   H152      1.0  0.78946  0.81239  0.32128  1.0000
  C   C235      1.0  0.80074  0.54092  0.31755  1.0000
  C   C236      1.0  0.81771  0.57440  0.34855  1.0000
  C   C237      1.0  0.79798  0.58904  0.36864  1.0000
  H   H153      1.0  0.81454  0.52923  0.32146  1.0000
  H   H154      1.0  0.81037  0.61353  0.39053  1.0000
  C   C238      1.0  0.71447  0.91920  0.36733  1.0000
  C   C239      1.0  0.69483  0.93397  0.34777  1.0000
  C   C240      1.0  0.71192  0.96757  0.31774  1.0000
  H   H155      1.0  0.70207  0.89466  0.38877  1.0000
  H   H156      1.0  0.69814  0.97928  0.32152  1.0000
  C   C241      1.0  0.65814  0.74738  0.35715  1.0000
  C   C242      1.0  0.59671  0.74784  0.35789  1.0000
  N   N85       1.0  0.61679  0.75559  0.43134  1.0000
  C   C243      1.0  0.64512  0.75343  0.43787  1.0000
  C   C244      1.0  0.66132  0.76119  0.52312  1.0000
  O   O19       1.0  0.65418  0.77894  0.58309  1.0000
  N   N86       1.0  0.68180  0.74970  0.55099  1.0000
  H   H157      1.0  0.68575  0.73447  0.51442  1.0000
  H   H158      1.0  0.69112  0.75466  0.61141  1.0000
  C   C245      1.0  0.76298  0.91276  0.35599  1.0000
  C   C246      1.0  0.76269  0.85099  0.35727  1.0000
  N   N87       1.0  0.75483  0.86328  0.43064  1.0000
  C   C247      1.0  0.75685  0.89372  0.43686  1.0000
  C   C248      1.0  0.74913  0.90225  0.52206  1.0000
  O   O20       1.0  0.73140  0.87739  0.58215  1.0000
  N   N88       1.0  0.76060  0.93424  0.54971  1.0000
  H   H159      1.0  0.77614  0.95335  0.51340  1.0000
  H   H160      1.0  0.75597  0.93862  0.61047  1.0000
  C   C249      1.0  0.59762  0.85233  0.35684  1.0000
  C   C250      1.0  0.65945  0.91392  0.35698  1.0000
  N   N89       1.0  0.64719  0.89388  0.43058  1.0000
  C   C251      1.0  0.61674  0.86549  0.43742  1.0000
  C   C252      1.0  0.60842  0.84943  0.52285  1.0000
  O   O21       1.0  0.63338  0.85670  0.58267  1.0000
  N   N90       1.0  0.57649  0.82895  0.55101  1.0000
  H   H161      1.0  0.55726  0.82491  0.51454  1.0000
  H   H162      1.0  0.57221  0.81972  0.61153  1.0000
  C   C253      1.0  0.85443  0.76088  0.35552  1.0000
  C   C254      1.0  0.91594  0.76060  0.35704  1.0000
  N   N91       1.0  0.89578  0.75277  0.43033  1.0000
  C   C255      1.0  0.86734  0.75478  0.43643  1.0000
  C   C256      1.0  0.85110  0.74710  0.52164  1.0000
  O   O22       1.0  0.85820  0.72936  0.58177  1.0000
  N   N92       1.0  0.83061  0.75860  0.54923  1.0000
  H   H163      1.0  0.82705  0.77414  0.51289  1.0000
  H   H164      1.0  0.82160  0.75399  0.61000  1.0000
  C   C257      1.0  0.74953  0.59554  0.35671  1.0000
  C   C258      1.0  0.74972  0.65734  0.35699  1.0000
  N   N93       1.0  0.75753  0.64509  0.43054  1.0000
  C   C259      1.0  0.75549  0.61465  0.43731  1.0000
  C   C260      1.0  0.76326  0.60631  0.52270  1.0000
  O   O23       1.0  0.78092  0.63126  0.58259  1.0000
  N   N94       1.0  0.75183  0.57437  0.55077  1.0000
  H   H165      1.0  0.73666  0.55515  0.51425  1.0000
  H   H166      1.0  0.75679  0.57008  0.61127  1.0000
  C   C261      1.0  0.91492  0.65604  0.35637  1.0000
  C   C262      1.0  0.85312  0.59458  0.35743  1.0000
  N   N95       1.0  0.86541  0.61469  0.43088  1.0000
  C   C263      1.0  0.89587  0.64310  0.43720  1.0000
  C   C264      1.0  0.90440  0.65927  0.52249  1.0000
  O   O24       1.0  0.87955  0.65212  0.58261  1.0000
  N   N96       1.0  0.93639  0.67975  0.55018  1.0000
  H   H167      1.0  0.95550  0.68335  0.51382  1.0000
  H   H168      1.0  0.94078  0.68872  0.61099  1.0000
