data_image0
_chemical_formula_structural       C5NOCHNHC3NOCHNHC3NOCHNHNCNCNC3O3NCNCNC3O3C3NOCHNHC3NOCHNHC3NOCHNHC5NOCHNHC3NOCHNHC3NOCHNHNCNCNC3O3NCNCNC3O3C3NOCHNHC3NOCHNHC3NOCHNHC5NOCHNHC3NOCHNHC3NOCHNHNCNCNC3O3NCNCNC3O3C3NOCHNHC3NOCHNHC3NOCHNHC5NOCHNHC3NOCHNHC3NOCHNHNCNCNC3O3NCNCNC3O3C3NOCHNHC3NOCHNHC3NOCHNH
_chemical_formula_sum              "C144 N72 O48 H48"
_cell_length_a       43.6122
_cell_length_b       43.6122
_cell_length_c       15.0392
_cell_angle_alpha    90
_cell_angle_beta     90
_cell_angle_gamma    120

_space_group_name_H-M_alt    "P 1"
_space_group_IT_number       1

loop_
  _space_group_symop_operation_xyz
  'x, y, z'

loop_
  _atom_site_type_symbol
  _atom_site_label
  _atom_site_symmetry_multiplicity
  _atom_site_fract_x
  _atom_site_fract_y
  _atom_site_fract_z
  _atom_site_occupancy
  C   C1        1.0  0.12954  0.32225  0.24724  1.0000
  C   C2        1.0  0.36654  0.17515  0.41428  1.0000
  C   C3        1.0  0.23159  0.26796  0.29385  1.0000
  C   C4        1.0  0.26639  0.27617  0.27085  1.0000
  C   C5        1.0  0.28186  0.25726  0.30498  1.0000
  N   N1        1.0  0.31247  0.26913  0.26205  1.0000
  O   O1        1.0  0.28752  0.30053  0.20915  1.0000
  C   C6        1.0  0.31545  0.29468  0.20721  1.0000
  H   H1        1.0  0.33653  0.30806  0.16549  1.0000
  N   N2        1.0  0.21848  0.28829  0.26074  1.0000
  H   H2        1.0  0.23590  0.31132  0.23687  1.0000
  C   C7        1.0  0.22884  0.46300  0.29367  1.0000
  C   C8        1.0  0.22059  0.48957  0.27075  1.0000
  C   C9        1.0  0.23950  0.02397  0.30485  1.0000
  N   N3        1.0  0.22760  0.04268  0.26195  1.0000
  O   O2        1.0  0.19620  0.48632  0.20914  1.0000
  C   C10       1.0  0.20207  0.02011  0.20707  1.0000
  H   H3        1.0  0.18858  0.02776  0.16561  1.0000
  N   N4        1.0  0.20847  0.42955  0.26071  1.0000
  H   H4        1.0  0.18542  0.42393  0.23692  1.0000
  C   C11       1.0  0.03377  0.26513  0.29406  1.0000
  C   C12       1.0  0.00720  0.23031  0.27112  1.0000
  C   C13       1.0  0.47282  0.21481  0.30533  1.0000
  N   N5        1.0  0.45406  0.18430  0.26203  1.0000
  O   O3        1.0  0.01040  0.20925  0.20916  1.0000
  C   C14       1.0  0.47665  0.18127  0.20736  1.0000
  H   H5        1.0  0.46884  0.16045  0.16474  1.0000
  N   N6        1.0  0.06721  0.27825  0.26095  1.0000
  H   H6        1.0  0.07282  0.26083  0.23702  1.0000
  N   N7        1.0  0.15512  0.35691  0.24800  1.0000
  C   C15       1.0  0.19010  0.36720  0.24715  1.0000
  N   N8        1.0  0.19919  0.34163  0.24788  1.0000
  C   C16       1.0  0.17450  0.30664  0.24712  1.0000
  N   N9        1.0  0.13984  0.29757  0.24798  1.0000
  C   C17       1.0  0.21627  0.40296  0.25718  1.0000
  C   C18       1.0  0.18409  0.28048  0.25718  1.0000
  C   C19       1.0  0.09378  0.31264  0.25741  1.0000
  O   O4        1.0  0.15742  0.24637  0.25981  1.0000
  O   O5        1.0  0.08633  0.33930  0.26004  1.0000
  O   O6        1.0  0.25038  0.41039  0.25961  1.0000
  N   N10       1.0  0.34096  0.14049  0.41344  1.0000
  C   C20       1.0  0.30597  0.13019  0.41420  1.0000
  N   N11       1.0  0.29689  0.15577  0.41346  1.0000
  C   C21       1.0  0.32158  0.19076  0.41428  1.0000
  N   N12       1.0  0.35624  0.19984  0.41351  1.0000
  C   C22       1.0  0.27982  0.09443  0.40411  1.0000
  C   C23       1.0  0.31199  0.21692  0.40425  1.0000
  C   C24       1.0  0.40229  0.18473  0.40422  1.0000
  O   O7        1.0  0.33866  0.25103  0.40167  1.0000
  O   O8        1.0  0.40972  0.15806  0.40163  1.0000
  O   O9        1.0  0.24572  0.08699  0.40153  1.0000
  C   C25       1.0  0.26450  0.22945  0.36762  1.0000
  C   C26       1.0  0.22968  0.22120  0.39050  1.0000
  C   C27       1.0  0.21417  0.24007  0.35625  1.0000
  N   N13       1.0  0.18364  0.22830  0.39944  1.0000
  O   O10       1.0  0.20857  0.19687  0.45228  1.0000
  C   C28       1.0  0.18068  0.20279  0.45440  1.0000
  H   H7        1.0  0.15962  0.18942  0.49615  1.0000
  N   N14       1.0  0.27760  0.20911  0.40070  1.0000
  H   H8        1.0  0.26019  0.18608  0.42460  1.0000
  C   C29       1.0  0.26731  0.03442  0.36747  1.0000
  C   C30       1.0  0.27555  0.00784  0.39041  1.0000
  C   C31       1.0  0.25673  0.47348  0.35604  1.0000
  N   N15       1.0  0.26854  0.45475  0.39920  1.0000
  O   O11       1.0  0.29990  0.01108  0.45215  1.0000
  C   C32       1.0  0.29415  0.47733  0.45389  1.0000
  H   H9        1.0  0.30725  0.46956  0.49631  1.0000
  N   N16       1.0  0.28764  0.06786  0.40057  1.0000
  H   H10       1.0  0.31067  0.07347  0.42449  1.0000
  C   C33       1.0  0.46233  0.23222  0.36771  1.0000
  C   C34       1.0  0.48892  0.26702  0.39071  1.0000
  C   C35       1.0  0.02332  0.28249  0.35667  1.0000
  N   N17       1.0  0.04204  0.31308  0.39968  1.0000
  O   O12       1.0  0.48570  0.28812  0.45255  1.0000
  C   C36       1.0  0.01945  0.31611  0.45431  1.0000
  H   H11       1.0  0.02720  0.33703  0.49658  1.0000
  N   N18       1.0  0.42888  0.21912  0.40072  1.0000
  H   H12       1.0  0.42327  0.23654  0.42457  1.0000
  C   C37       1.0  0.12954  0.82225  0.24724  1.0000
  C   C38       1.0  0.36654  0.67515  0.41428  1.0000
  C   C39       1.0  0.23159  0.76796  0.29385  1.0000
  C   C40       1.0  0.26639  0.77617  0.27085  1.0000
  C   C41       1.0  0.28187  0.75726  0.30498  1.0000
  N   N19       1.0  0.31247  0.76913  0.26205  1.0000
  O   O13       1.0  0.28752  0.80053  0.20915  1.0000
  C   C42       1.0  0.31545  0.79468  0.20721  1.0000
  H   H13       1.0  0.33653  0.80806  0.16549  1.0000
  N   N20       1.0  0.21848  0.78829  0.26074  1.0000
  H   H14       1.0  0.23590  0.81132  0.23687  1.0000
  C   C43       1.0  0.22884  0.96300  0.29367  1.0000
  C   C44       1.0  0.22059  0.98957  0.27075  1.0000
  C   C45       1.0  0.23950  0.52397  0.30485  1.0000
  N   N21       1.0  0.22760  0.54268  0.26195  1.0000
  O   O14       1.0  0.19620  0.98632  0.20914  1.0000
  C   C46       1.0  0.20207  0.52011  0.20707  1.0000
  H   H15       1.0  0.18858  0.52776  0.16561  1.0000
  N   N22       1.0  0.20847  0.92955  0.26071  1.0000
  H   H16       1.0  0.18542  0.92393  0.23692  1.0000
  C   C47       1.0  0.03377  0.76513  0.29406  1.0000
  C   C48       1.0  0.00720  0.73031  0.27112  1.0000
  C   C49       1.0  0.47282  0.71481  0.30533  1.0000
  N   N23       1.0  0.45406  0.68431  0.26203  1.0000
  O   O15       1.0  0.01040  0.70925  0.20916  1.0000
  C   C50       1.0  0.47664  0.68127  0.20736  1.0000
  H   H17       1.0  0.46884  0.66045  0.16474  1.0000
  N   N24       1.0  0.06721  0.77824  0.26095  1.0000
  H   H18       1.0  0.07282  0.76084  0.23702  1.0000
  N   N25       1.0  0.15512  0.85691  0.24800  1.0000
  C   C51       1.0  0.19010  0.86720  0.24715  1.0000
  N   N26       1.0  0.19919  0.84163  0.24788  1.0000
  C   C52       1.0  0.17450  0.80664  0.24712  1.0000
  N   N27       1.0  0.13984  0.79756  0.24798  1.0000
  C   C53       1.0  0.21627  0.90296  0.25718  1.0000
  C   C54       1.0  0.18409  0.78048  0.25718  1.0000
  C   C55       1.0  0.09378  0.81264  0.25741  1.0000
  O   O16       1.0  0.15742  0.74637  0.25981  1.0000
  O   O17       1.0  0.08633  0.83930  0.26004  1.0000
  O   O18       1.0  0.25038  0.91039  0.25961  1.0000
  N   N28       1.0  0.34096  0.64049  0.41344  1.0000
  C   C56       1.0  0.30597  0.63019  0.41420  1.0000
  N   N29       1.0  0.29689  0.65577  0.41346  1.0000
  C   C57       1.0  0.32158  0.69076  0.41428  1.0000
  N   N30       1.0  0.35624  0.69984  0.41351  1.0000
  C   C58       1.0  0.27982  0.59443  0.40411  1.0000
  C   C59       1.0  0.31199  0.71692  0.40425  1.0000
  C   C60       1.0  0.40230  0.68473  0.40422  1.0000
  O   O19       1.0  0.33866  0.75103  0.40167  1.0000
  O   O20       1.0  0.40972  0.65806  0.40163  1.0000
  O   O21       1.0  0.24572  0.58699  0.40153  1.0000
  C   C61       1.0  0.26450  0.72945  0.36762  1.0000
  C   C62       1.0  0.22968  0.72120  0.39050  1.0000
  C   C63       1.0  0.21417  0.74007  0.35625  1.0000
  N   N31       1.0  0.18364  0.72830  0.39944  1.0000
  O   O22       1.0  0.20857  0.69687  0.45228  1.0000
  C   C64       1.0  0.18068  0.70279  0.45440  1.0000
  H   H19       1.0  0.15962  0.68942  0.49615  1.0000
  N   N32       1.0  0.27760  0.70911  0.40070  1.0000
  H   H20       1.0  0.26019  0.68608  0.42460  1.0000
  C   C65       1.0  0.26731  0.53442  0.36747  1.0000
  C   C66       1.0  0.27555  0.50784  0.39041  1.0000
  C   C67       1.0  0.25673  0.97348  0.35604  1.0000
  N   N33       1.0  0.26854  0.95475  0.39920  1.0000
  O   O23       1.0  0.29990  0.51108  0.45215  1.0000
  C   C68       1.0  0.29415  0.97734  0.45389  1.0000
  H   H21       1.0  0.30725  0.96956  0.49631  1.0000
  N   N34       1.0  0.28764  0.56786  0.40057  1.0000
  H   H22       1.0  0.31067  0.57347  0.42449  1.0000
  C   C69       1.0  0.46233  0.73222  0.36771  1.0000
  C   C70       1.0  0.48892  0.76702  0.39071  1.0000
  C   C71       1.0  0.02332  0.78249  0.35667  1.0000
  N   N35       1.0  0.04204  0.81308  0.39968  1.0000
  O   O24       1.0  0.48570  0.78811  0.45255  1.0000
  C   C72       1.0  0.01944  0.81610  0.45431  1.0000
  H   H23       1.0  0.02720  0.83703  0.49658  1.0000
  N   N36       1.0  0.42889  0.71912  0.40072  1.0000
  H   H24       1.0  0.42327  0.73654  0.42457  1.0000
  C   C73       1.0  0.62954  0.32225  0.24724  1.0000
  C   C74       1.0  0.86654  0.17515  0.41428  1.0000
  C   C75       1.0  0.73159  0.26796  0.29385  1.0000
  C   C76       1.0  0.76639  0.27617  0.27085  1.0000
  C   C77       1.0  0.78187  0.25726  0.30498  1.0000
  N   N37       1.0  0.81246  0.26913  0.26205  1.0000
  O   O25       1.0  0.78752  0.30053  0.20915  1.0000
  C   C78       1.0  0.81545  0.29468  0.20721  1.0000
  H   H25       1.0  0.83653  0.30806  0.16549  1.0000
  N   N38       1.0  0.71848  0.28829  0.26074  1.0000
  H   H26       1.0  0.73590  0.31132  0.23687  1.0000
  C   C79       1.0  0.72884  0.46300  0.29367  1.0000
  C   C80       1.0  0.72059  0.48957  0.27075  1.0000
  C   C81       1.0  0.73950  0.02397  0.30485  1.0000
  N   N39       1.0  0.72760  0.04268  0.26195  1.0000
  O   O26       1.0  0.69620  0.48632  0.20914  1.0000
  C   C82       1.0  0.70207  0.02011  0.20707  1.0000
  H   H27       1.0  0.68858  0.02776  0.16561  1.0000
  N   N40       1.0  0.70847  0.42955  0.26071  1.0000
  H   H28       1.0  0.68542  0.42393  0.23692  1.0000
  C   C83       1.0  0.53377  0.26513  0.29406  1.0000
  C   C84       1.0  0.50720  0.23031  0.27112  1.0000
  C   C85       1.0  0.97282  0.21481  0.30533  1.0000
  N   N41       1.0  0.95406  0.18430  0.26203  1.0000
  O   O27       1.0  0.51040  0.20925  0.20916  1.0000
  C   C86       1.0  0.97664  0.18127  0.20736  1.0000
  H   H29       1.0  0.96884  0.16045  0.16474  1.0000
  N   N42       1.0  0.56720  0.27825  0.26095  1.0000
  H   H30       1.0  0.57282  0.26083  0.23702  1.0000
  N   N43       1.0  0.65511  0.35691  0.24800  1.0000
  C   C87       1.0  0.69010  0.36720  0.24715  1.0000
  N   N44       1.0  0.69919  0.34163  0.24788  1.0000
  C   C88       1.0  0.67450  0.30664  0.24712  1.0000
  N   N45       1.0  0.63984  0.29757  0.24798  1.0000
  C   C89       1.0  0.71627  0.40296  0.25718  1.0000
  C   C90       1.0  0.68409  0.28048  0.25718  1.0000
  C   C91       1.0  0.59378  0.31264  0.25741  1.0000
  O   O28       1.0  0.65742  0.24637  0.25981  1.0000
  O   O29       1.0  0.58633  0.33930  0.26004  1.0000
  O   O30       1.0  0.75038  0.41039  0.25961  1.0000
  N   N46       1.0  0.84096  0.14049  0.41344  1.0000
  C   C92       1.0  0.80597  0.13019  0.41420  1.0000
  N   N47       1.0  0.79689  0.15577  0.41346  1.0000
  C   C93       1.0  0.82158  0.19076  0.41428  1.0000
  N   N48       1.0  0.85624  0.19984  0.41351  1.0000
  C   C94       1.0  0.77982  0.09443  0.40411  1.0000
  C   C95       1.0  0.81199  0.21692  0.40425  1.0000
  C   C96       1.0  0.90229  0.18473  0.40422  1.0000
  O   O31       1.0  0.83866  0.25103  0.40167  1.0000
  O   O32       1.0  0.90972  0.15806  0.40163  1.0000
  O   O33       1.0  0.74572  0.08699  0.40153  1.0000
  C   C97       1.0  0.76450  0.22945  0.36762  1.0000
  C   C98       1.0  0.72968  0.22120  0.39050  1.0000
  C   C99       1.0  0.71417  0.24007  0.35625  1.0000
  N   N49       1.0  0.68364  0.22830  0.39944  1.0000
  O   O34       1.0  0.70857  0.19687  0.45228  1.0000
  C   C100      1.0  0.68068  0.20279  0.45440  1.0000
  H   H31       1.0  0.65961  0.18942  0.49615  1.0000
  N   N50       1.0  0.77760  0.20911  0.40070  1.0000
  H   H32       1.0  0.76019  0.18608  0.42460  1.0000
  C   C101      1.0  0.76731  0.03442  0.36747  1.0000
  C   C102      1.0  0.77555  0.00784  0.39041  1.0000
  C   C103      1.0  0.75674  0.47348  0.35604  1.0000
  N   N51       1.0  0.76854  0.45475  0.39920  1.0000
  O   O35       1.0  0.79990  0.01108  0.45215  1.0000
  C   C104      1.0  0.79415  0.47733  0.45389  1.0000
  H   H33       1.0  0.80725  0.46956  0.49631  1.0000
  N   N52       1.0  0.78764  0.06786  0.40057  1.0000
  H   H34       1.0  0.81067  0.07347  0.42449  1.0000
  C   C105      1.0  0.96233  0.23222  0.36771  1.0000
  C   C106      1.0  0.98892  0.26702  0.39071  1.0000
  C   C107      1.0  0.52332  0.28249  0.35667  1.0000
  N   N53       1.0  0.54204  0.31308  0.39968  1.0000
  O   O36       1.0  0.98570  0.28812  0.45255  1.0000
  C   C108      1.0  0.51945  0.31611  0.45431  1.0000
  H   H35       1.0  0.52720  0.33703  0.49658  1.0000
  N   N54       1.0  0.92888  0.21912  0.40072  1.0000
  H   H36       1.0  0.92327  0.23654  0.42457  1.0000
  C   C109      1.0  0.62954  0.82225  0.24724  1.0000
  C   C110      1.0  0.86654  0.67515  0.41428  1.0000
  C   C111      1.0  0.73159  0.76796  0.29385  1.0000
  C   C112      1.0  0.76639  0.77617  0.27085  1.0000
  C   C113      1.0  0.78187  0.75726  0.30498  1.0000
  N   N55       1.0  0.81246  0.76913  0.26205  1.0000
  O   O37       1.0  0.78752  0.80053  0.20915  1.0000
  C   C114      1.0  0.81545  0.79468  0.20721  1.0000
  H   H37       1.0  0.83653  0.80806  0.16549  1.0000
  N   N56       1.0  0.71848  0.78829  0.26074  1.0000
  H   H38       1.0  0.73590  0.81132  0.23687  1.0000
  C   C115      1.0  0.72884  0.96300  0.29367  1.0000
  C   C116      1.0  0.72059  0.98957  0.27075  1.0000
  C   C117      1.0  0.73950  0.52397  0.30485  1.0000
  N   N57       1.0  0.72760  0.54268  0.26195  1.0000
  O   O38       1.0  0.69620  0.98632  0.20914  1.0000
  C   C118      1.0  0.70207  0.52011  0.20707  1.0000
  H   H39       1.0  0.68858  0.52776  0.16561  1.0000
  N   N58       1.0  0.70847  0.92955  0.26071  1.0000
  H   H40       1.0  0.68542  0.92393  0.23692  1.0000
  C   C119      1.0  0.53377  0.76513  0.29406  1.0000
  C   C120      1.0  0.50720  0.73031  0.27112  1.0000
  C   C121      1.0  0.97281  0.71481  0.30533  1.0000
  N   N59       1.0  0.95406  0.68431  0.26203  1.0000
  O   O39       1.0  0.51040  0.70925  0.20916  1.0000
  C   C122      1.0  0.97664  0.68127  0.20736  1.0000
  H   H41       1.0  0.96884  0.66045  0.16474  1.0000
  N   N60       1.0  0.56720  0.77824  0.26095  1.0000
  H   H42       1.0  0.57282  0.76084  0.23702  1.0000
  N   N61       1.0  0.65512  0.85691  0.24800  1.0000
  C   C123      1.0  0.69010  0.86720  0.24715  1.0000
  N   N62       1.0  0.69919  0.84163  0.24788  1.0000
  C   C124      1.0  0.67450  0.80664  0.24712  1.0000
  N   N63       1.0  0.63984  0.79756  0.24798  1.0000
  C   C125      1.0  0.71627  0.90296  0.25718  1.0000
  C   C126      1.0  0.68409  0.78048  0.25718  1.0000
  C   C127      1.0  0.59378  0.81264  0.25741  1.0000
  O   O40       1.0  0.65742  0.74637  0.25981  1.0000
  O   O41       1.0  0.58633  0.83930  0.26004  1.0000
  O   O42       1.0  0.75038  0.91039  0.25961  1.0000
  N   N64       1.0  0.84096  0.64049  0.41344  1.0000
  C   C128      1.0  0.80597  0.63019  0.41420  1.0000
  N   N65       1.0  0.79689  0.65577  0.41346  1.0000
  C   C129      1.0  0.82158  0.69076  0.41428  1.0000
  N   N66       1.0  0.85624  0.69984  0.41351  1.0000
  C   C130      1.0  0.77982  0.59443  0.40411  1.0000
  C   C131      1.0  0.81199  0.71692  0.40425  1.0000
  C   C132      1.0  0.90229  0.68473  0.40422  1.0000
  O   O43       1.0  0.83866  0.75103  0.40167  1.0000
  O   O44       1.0  0.90972  0.65806  0.40163  1.0000
  O   O45       1.0  0.74572  0.58699  0.40153  1.0000
  C   C133      1.0  0.76450  0.72945  0.36762  1.0000
  C   C134      1.0  0.72968  0.72120  0.39050  1.0000
  C   C135      1.0  0.71417  0.74007  0.35625  1.0000
  N   N67       1.0  0.68364  0.72830  0.39944  1.0000
  O   O46       1.0  0.70857  0.69687  0.45228  1.0000
  C   C136      1.0  0.68068  0.70279  0.45440  1.0000
  H   H43       1.0  0.65961  0.68942  0.49615  1.0000
  N   N68       1.0  0.77760  0.70911  0.40070  1.0000
  H   H44       1.0  0.76019  0.68608  0.42460  1.0000
  C   C137      1.0  0.76731  0.53442  0.36747  1.0000
  C   C138      1.0  0.77555  0.50784  0.39041  1.0000
  C   C139      1.0  0.75674  0.97348  0.35604  1.0000
  N   N69       1.0  0.76854  0.95475  0.39920  1.0000
  O   O47       1.0  0.79990  0.51108  0.45215  1.0000
  C   C140      1.0  0.79415  0.97734  0.45389  1.0000
  H   H45       1.0  0.80725  0.96956  0.49631  1.0000
  N   N70       1.0  0.78764  0.56786  0.40057  1.0000
  H   H46       1.0  0.81067  0.57347  0.42449  1.0000
  C   C141      1.0  0.96233  0.73222  0.36771  1.0000
  C   C142      1.0  0.98892  0.76702  0.39071  1.0000
  C   C143      1.0  0.52332  0.78249  0.35667  1.0000
  N   N71       1.0  0.54204  0.81308  0.39968  1.0000
  O   O48       1.0  0.98570  0.78811  0.45255  1.0000
  C   C144      1.0  0.51944  0.81610  0.45431  1.0000
  H   H47       1.0  0.52720  0.83703  0.49658  1.0000
  N   N72       1.0  0.92888  0.71912  0.40072  1.0000
  H   H48       1.0  0.92327  0.73654  0.42457  1.0000
