data_image0
_chemical_formula_structural       C2NH2NCNCNH2C2NH2NCNCNH2C2NH4CNCNCNCNH4C2NH4CNCNCNCNH4C2NHNH2C2NH2NHC4NHNH2C4NH2NHC2NHNH2C2NH2NHC4NHNH2C4NH2NHC4NH2NH2C4NH2NH2C2NH2NH2CNC2NCNCNCNCNCNC2NH2NH2C2NH2NH2C4NH2NH2C4NH2NH2C4NH2NH2C2NH2NH2CNC2NCNCNCNCNCNC2NH2NH2C2NH2NH2C4NH2NH2C4NH2NH2C4NH2NH2C4NH2NH2C2NH2NH2C2NH2NH2C2NH2NH2CNCNCNCNCNCNCNCNCNCNCNCNC2NH2NH2C2NH2NH2C2NH2NH2C4NH2NH2C4NH2NH2C4NH2NH2C4NH2NH2C4NH2NH2C4NH2NH2C2NH2NH2C2NH2NH2C2NH2NH2CNCNCNCNCNCNCNCNCNCNCNCNC2NH2NH2C2NH2NH2C2NH2NH2C4NH2NH2C4NH2NH2C4NH2NH2
_chemical_formula_sum              "C192 N144 H192"
_cell_length_a       45.088
_cell_length_b       45.0926
_cell_length_c       14.7748
_cell_angle_alpha    90
_cell_angle_beta     90
_cell_angle_gamma    120.01

_space_group_name_H-M_alt    "P 1"
_space_group_IT_number       1

loop_
  _space_group_symop_operation_xyz
  'x, y, z'

loop_
  _atom_site_type_symbol
  _atom_site_label
  _atom_site_symmetry_multiplicity
  _atom_site_fract_x
  _atom_site_fract_y
  _atom_site_fract_z
  _atom_site_occupancy
  C   C1        1.0  0.08106  0.04246  0.34738  1.0000
  C   C2        1.0  0.09944  0.05165  0.26344  1.0000
  N   N1        1.0  0.08115  0.04250  0.18394  1.0000
  H   H1        1.0  0.05632  0.03008  0.18230  1.0000
  H   H2        1.0  0.09154  0.04765  0.12475  1.0000
  N   N2        1.0  0.02618  0.04101  0.34703  1.0000
  C   C3        1.0  0.04412  0.02400  0.34698  1.0000
  N   N3        1.0  0.02616  0.48904  0.34703  1.0000
  C   C4        1.0  0.09916  0.05151  0.43174  1.0000
  N   N4        1.0  0.08062  0.04222  0.51082  1.0000
  H   H3        1.0  0.05579  0.02981  0.51191  1.0000
  H   H4        1.0  0.09081  0.04727  0.57024  1.0000
  C   C5        1.0  0.08106  0.54246  0.34738  1.0000
  C   C6        1.0  0.09944  0.55165  0.26344  1.0000
  N   N5        1.0  0.08115  0.54250  0.18394  1.0000
  H   H5        1.0  0.05632  0.53008  0.18230  1.0000
  H   H6        1.0  0.09154  0.54766  0.12475  1.0000
  N   N6        1.0  0.02618  0.54101  0.34703  1.0000
  C   C7        1.0  0.04413  0.52400  0.34698  1.0000
  N   N7        1.0  0.02616  0.98904  0.34703  1.0000
  C   C8        1.0  0.09916  0.55151  0.43174  1.0000
  N   N8        1.0  0.08062  0.54222  0.51082  1.0000
  H   H7        1.0  0.05579  0.52981  0.51191  1.0000
  H   H8        1.0  0.09081  0.54727  0.57024  1.0000
  C   C9        1.0  0.13630  0.07008  0.26386  1.0000
  C   C10       1.0  0.15440  0.07912  0.34822  1.0000
  N   N9        1.0  0.15485  0.07936  0.18478  1.0000
  H   H9        1.0  0.14466  0.07430  0.12536  1.0000
  H   H10       1.0  0.17969  0.09177  0.18371  1.0000
  H   H11       1.0  0.24134  0.07838  0.18675  1.0000
  H   H12       1.0  0.24129  0.16685  0.18672  1.0000
  C   C11       1.0  0.24421  0.15030  0.34924  1.0000
  N   N10       1.0  0.20924  0.13264  0.34882  1.0000
  C   C12       1.0  0.19133  0.09759  0.34866  1.0000
  N   N11       1.0  0.20923  0.08042  0.34889  1.0000
  C   C13       1.0  0.24420  0.09774  0.34930  1.0000
  N   N12       1.0  0.26091  0.13237  0.34945  1.0000
  C   C14       1.0  0.13603  0.06994  0.43216  1.0000
  N   N13       1.0  0.15431  0.07909  0.51166  1.0000
  H   H13       1.0  0.17915  0.09151  0.51331  1.0000
  H   H14       1.0  0.14393  0.07394  0.57084  1.0000
  H   H15       1.0  0.24130  0.07834  0.51192  1.0000
  H   H16       1.0  0.24150  0.16668  0.51198  1.0000
  C   C15       1.0  0.13630  0.57008  0.26386  1.0000
  C   C16       1.0  0.15440  0.57912  0.34822  1.0000
  N   N14       1.0  0.15485  0.57936  0.18478  1.0000
  H   H17       1.0  0.14466  0.57430  0.12536  1.0000
  H   H18       1.0  0.17969  0.59177  0.18371  1.0000
  H   H19       1.0  0.24134  0.57838  0.18675  1.0000
  H   H20       1.0  0.24129  0.66685  0.18672  1.0000
  C   C17       1.0  0.24421  0.65030  0.34924  1.0000
  N   N15       1.0  0.20924  0.63264  0.34882  1.0000
  C   C18       1.0  0.19133  0.59759  0.34866  1.0000
  N   N16       1.0  0.20923  0.58042  0.34889  1.0000
  C   C19       1.0  0.24420  0.59774  0.34930  1.0000
  N   N17       1.0  0.26091  0.63237  0.34945  1.0000
  C   C20       1.0  0.13603  0.56994  0.43216  1.0000
  N   N18       1.0  0.15431  0.57909  0.51166  1.0000
  H   H21       1.0  0.17914  0.59151  0.51331  1.0000
  H   H22       1.0  0.14393  0.57395  0.57084  1.0000
  H   H23       1.0  0.24130  0.57834  0.51192  1.0000
  H   H24       1.0  0.24150  0.66668  0.51198  1.0000
  C   C21       1.0  0.28027  0.08096  0.26524  1.0000
  C   C22       1.0  0.31202  0.08089  0.26526  1.0000
  N   N19       1.0  0.26378  0.08030  0.18658  1.0000
  H   H25       1.0  0.27218  0.07947  0.12709  1.0000
  N   N20       1.0  0.32775  0.08002  0.18664  1.0000
  H   H26       1.0  0.34817  0.07792  0.18696  1.0000
  H   H27       1.0  0.31829  0.07871  0.12720  1.0000
  C   C23       1.0  0.31204  0.23497  0.26511  1.0000
  C   C24       1.0  0.28026  0.20317  0.26513  1.0000
  N   N21       1.0  0.32779  0.25156  0.18649  1.0000
  H   H28       1.0  0.34825  0.27405  0.18681  1.0000
  H   H29       1.0  0.31831  0.24340  0.12708  1.0000
  N   N22       1.0  0.26374  0.18736  0.18649  1.0000
  H   H30       1.0  0.27210  0.19660  0.12700  1.0000
  C   C25       1.0  0.32845  0.08268  0.34943  1.0000
  C   C26       1.0  0.31209  0.08106  0.43358  1.0000
  C   C27       1.0  0.28030  0.08104  0.43357  1.0000
  C   C28       1.0  0.26560  0.08272  0.34941  1.0000
  N   N23       1.0  0.26378  0.08034  0.51219  1.0000
  H   H31       1.0  0.27202  0.07923  0.57166  1.0000
  N   N24       1.0  0.32797  0.08048  0.51223  1.0000
  H   H32       1.0  0.34847  0.07853  0.51203  1.0000
  H   H33       1.0  0.31876  0.07967  0.57172  1.0000
  C   C29       1.0  0.26562  0.18673  0.34928  1.0000
  C   C30       1.0  0.28038  0.20307  0.43346  1.0000
  C   C31       1.0  0.31216  0.23488  0.43343  1.0000
  C   C32       1.0  0.32851  0.24960  0.34924  1.0000
  N   N25       1.0  0.32799  0.25140  0.51206  1.0000
  H   H34       1.0  0.31856  0.24322  0.57149  1.0000
  H   H35       1.0  0.34841  0.27392  0.51172  1.0000
  N   N26       1.0  0.26397  0.18719  0.51214  1.0000
  H   H36       1.0  0.27243  0.19634  0.57164  1.0000
  C   C33       1.0  0.28027  0.58096  0.26524  1.0000
  C   C34       1.0  0.31202  0.58089  0.26526  1.0000
  N   N27       1.0  0.26378  0.58030  0.18658  1.0000
  H   H37       1.0  0.27218  0.57947  0.12709  1.0000
  N   N28       1.0  0.32775  0.58002  0.18664  1.0000
  H   H38       1.0  0.34817  0.57792  0.18696  1.0000
  H   H39       1.0  0.31829  0.57871  0.12720  1.0000
  C   C35       1.0  0.31204  0.73497  0.26511  1.0000
  C   C36       1.0  0.28026  0.70317  0.26513  1.0000
  N   N29       1.0  0.32779  0.75156  0.18649  1.0000
  H   H40       1.0  0.34824  0.77405  0.18681  1.0000
  H   H41       1.0  0.31831  0.74340  0.12708  1.0000
  N   N30       1.0  0.26374  0.68736  0.18649  1.0000
  H   H42       1.0  0.27210  0.69661  0.12700  1.0000
  C   C37       1.0  0.32845  0.58268  0.34943  1.0000
  C   C38       1.0  0.31210  0.58106  0.43358  1.0000
  C   C39       1.0  0.28030  0.58104  0.43357  1.0000
  C   C40       1.0  0.26560  0.58271  0.34941  1.0000
  N   N31       1.0  0.26378  0.58034  0.51219  1.0000
  H   H43       1.0  0.27202  0.57923  0.57166  1.0000
  N   N32       1.0  0.32797  0.58048  0.51223  1.0000
  H   H44       1.0  0.34847  0.57853  0.51203  1.0000
  H   H45       1.0  0.31876  0.57968  0.57172  1.0000
  C   C41       1.0  0.26562  0.68673  0.34928  1.0000
  C   C42       1.0  0.28038  0.70307  0.43346  1.0000
  C   C43       1.0  0.31216  0.73488  0.43343  1.0000
  C   C44       1.0  0.32851  0.74960  0.34924  1.0000
  N   N33       1.0  0.32799  0.75140  0.51206  1.0000
  H   H46       1.0  0.31856  0.74322  0.57149  1.0000
  H   H47       1.0  0.34841  0.77393  0.51172  1.0000
  N   N34       1.0  0.26396  0.68719  0.51214  1.0000
  H   H48       1.0  0.27243  0.69634  0.57164  1.0000
  C   C45       1.0  0.47276  0.04247  0.34738  1.0000
  C   C46       1.0  0.46356  0.05165  0.26344  1.0000
  C   C47       1.0  0.44513  0.07007  0.26385  1.0000
  C   C48       1.0  0.43607  0.07911  0.34822  1.0000
  N   N35       1.0  0.43588  0.07937  0.18477  1.0000
  H   H49       1.0  0.44106  0.07436  0.12536  1.0000
  H   H50       1.0  0.42346  0.09178  0.18370  1.0000
  N   N36       1.0  0.47268  0.04248  0.18394  1.0000
  H   H51       1.0  0.48510  0.03008  0.18230  1.0000
  H   H52       1.0  0.46741  0.04759  0.12475  1.0000
  C   C49       1.0  0.47272  0.43416  0.34738  1.0000
  C   C50       1.0  0.46356  0.41578  0.26343  1.0000
  C   C51       1.0  0.44514  0.37892  0.26384  1.0000
  C   C52       1.0  0.43612  0.36082  0.34820  1.0000
  N   N37       1.0  0.43580  0.36038  0.18476  1.0000
  H   H53       1.0  0.44065  0.37057  0.12535  1.0000
  H   H54       1.0  0.42340  0.33555  0.18369  1.0000
  N   N38       1.0  0.47278  0.43407  0.18394  1.0000
  H   H55       1.0  0.48518  0.45890  0.18230  1.0000
  H   H56       1.0  0.46783  0.42369  0.12475  1.0000
  C   C53       1.0  0.43424  0.20317  0.26529  1.0000
  C   C54       1.0  0.43436  0.23501  0.26532  1.0000
  N   N39       1.0  0.43491  0.18736  0.18660  1.0000
  H   H57       1.0  0.43678  0.16682  0.18675  1.0000
  H   H58       1.0  0.43578  0.19661  0.12713  1.0000
  N   N40       1.0  0.43529  0.25165  0.18671  1.0000
  H   H59       1.0  0.43740  0.27417  0.18704  1.0000
  H   H60       1.0  0.43664  0.24352  0.12730  1.0000
  C   C55       1.0  0.49120  0.47109  0.34698  1.0000
  N   N41       1.0  0.47420  0.48904  0.34703  1.0000
  C   C56       1.0  0.49122  0.02400  0.34698  1.0000
  C   C57       1.0  0.36488  0.09770  0.34924  1.0000
  N   N42       1.0  0.38254  0.08039  0.34884  1.0000
  C   C58       1.0  0.41760  0.09756  0.34864  1.0000
  N   N43       1.0  0.43476  0.13262  0.34886  1.0000
  C   C59       1.0  0.41743  0.15026  0.34929  1.0000
  N   N44       1.0  0.38280  0.13233  0.34945  1.0000
  C   C60       1.0  0.41750  0.27104  0.34921  1.0000
  N   N45       1.0  0.43482  0.30601  0.34886  1.0000
  C   C61       1.0  0.41766  0.32390  0.34862  1.0000
  N   N46       1.0  0.38259  0.30599  0.34878  1.0000
  C   C62       1.0  0.36494  0.27102  0.34918  1.0000
  N   N47       1.0  0.38287  0.25433  0.34937  1.0000
  C   C63       1.0  0.44527  0.06994  0.43216  1.0000
  C   C64       1.0  0.46370  0.05151  0.43174  1.0000
  N   N48       1.0  0.43615  0.07910  0.51166  1.0000
  H   H61       1.0  0.42374  0.09151  0.51330  1.0000
  H   H62       1.0  0.44142  0.07400  0.57084  1.0000
  N   N49       1.0  0.47294  0.04222  0.51082  1.0000
  H   H63       1.0  0.48536  0.02981  0.51191  1.0000
  H   H64       1.0  0.46777  0.04723  0.57024  1.0000
  C   C65       1.0  0.44528  0.37920  0.43215  1.0000
  C   C66       1.0  0.46370  0.41605  0.43173  1.0000
  N   N50       1.0  0.43605  0.36091  0.51164  1.0000
  H   H65       1.0  0.42365  0.33608  0.51329  1.0000
  H   H66       1.0  0.44099  0.37129  0.57082  1.0000
  N   N51       1.0  0.47305  0.43459  0.51082  1.0000
  H   H67       1.0  0.48545  0.45942  0.51191  1.0000
  H   H68       1.0  0.46821  0.42440  0.57023  1.0000
  C   C67       1.0  0.43250  0.24963  0.34948  1.0000
  C   C68       1.0  0.43415  0.23488  0.43357  1.0000
  C   C69       1.0  0.43421  0.20313  0.43350  1.0000
  C   C70       1.0  0.43240  0.18667  0.34939  1.0000
  N   N52       1.0  0.43505  0.18737  0.51210  1.0000
  H   H69       1.0  0.43658  0.19694  0.57149  1.0000
  H   H70       1.0  0.43712  0.16693  0.51172  1.0000
  N   N53       1.0  0.43462  0.25126  0.51225  1.0000
  H   H71       1.0  0.43652  0.27369  0.51212  1.0000
  H   H72       1.0  0.43519  0.24273  0.57176  1.0000
  C   C71       1.0  0.47276  0.54247  0.34738  1.0000
  C   C72       1.0  0.46356  0.55165  0.26344  1.0000
  C   C73       1.0  0.44513  0.57007  0.26385  1.0000
  C   C74       1.0  0.43607  0.57911  0.34822  1.0000
  N   N54       1.0  0.43588  0.57937  0.18477  1.0000
  H   H73       1.0  0.44106  0.57436  0.12536  1.0000
  H   H74       1.0  0.42346  0.59178  0.18370  1.0000
  N   N55       1.0  0.47268  0.54248  0.18394  1.0000
  H   H75       1.0  0.48510  0.53008  0.18230  1.0000
  H   H76       1.0  0.46741  0.54759  0.12475  1.0000
  C   C75       1.0  0.47272  0.93416  0.34738  1.0000
  C   C76       1.0  0.46356  0.91578  0.26343  1.0000
  C   C77       1.0  0.44514  0.87892  0.26384  1.0000
  C   C78       1.0  0.43613  0.86083  0.34820  1.0000
  N   N56       1.0  0.43580  0.86038  0.18476  1.0000
  H   H77       1.0  0.44065  0.87057  0.12535  1.0000
  H   H78       1.0  0.42340  0.83555  0.18369  1.0000
  N   N57       1.0  0.47278  0.93407  0.18394  1.0000
  H   H79       1.0  0.48518  0.95890  0.18230  1.0000
  H   H80       1.0  0.46783  0.92369  0.12475  1.0000
  C   C79       1.0  0.43424  0.70317  0.26529  1.0000
  C   C80       1.0  0.43436  0.73501  0.26532  1.0000
  N   N58       1.0  0.43491  0.68736  0.18660  1.0000
  H   H81       1.0  0.43678  0.66682  0.18675  1.0000
  H   H82       1.0  0.43578  0.69661  0.12713  1.0000
  N   N59       1.0  0.43529  0.75165  0.18671  1.0000
  H   H83       1.0  0.43740  0.77417  0.18704  1.0000
  H   H84       1.0  0.43664  0.74352  0.12730  1.0000
  C   C81       1.0  0.49120  0.97109  0.34698  1.0000
  N   N60       1.0  0.47420  0.98904  0.34703  1.0000
  C   C82       1.0  0.49122  0.52400  0.34698  1.0000
  C   C83       1.0  0.36488  0.59770  0.34924  1.0000
  N   N61       1.0  0.38254  0.58039  0.34884  1.0000
  C   C84       1.0  0.41760  0.59757  0.34864  1.0000
  N   N62       1.0  0.43476  0.63262  0.34886  1.0000
  C   C85       1.0  0.41743  0.65026  0.34929  1.0000
  N   N63       1.0  0.38280  0.63233  0.34945  1.0000
  C   C86       1.0  0.41750  0.77104  0.34921  1.0000
  N   N64       1.0  0.43482  0.80601  0.34886  1.0000
  C   C87       1.0  0.41766  0.82390  0.34862  1.0000
  N   N65       1.0  0.38259  0.80599  0.34878  1.0000
  C   C88       1.0  0.36494  0.77102  0.34918  1.0000
  N   N66       1.0  0.38287  0.75433  0.34937  1.0000
  C   C89       1.0  0.44527  0.56994  0.43216  1.0000
  C   C90       1.0  0.46370  0.55151  0.43174  1.0000
  N   N67       1.0  0.43615  0.57910  0.51166  1.0000
  H   H85       1.0  0.42373  0.59152  0.51330  1.0000
  H   H86       1.0  0.44142  0.57400  0.57084  1.0000
  N   N68       1.0  0.47294  0.54222  0.51082  1.0000
  H   H87       1.0  0.48536  0.52981  0.51191  1.0000
  H   H88       1.0  0.46777  0.54723  0.57024  1.0000
  C   C91       1.0  0.44528  0.87920  0.43215  1.0000
  C   C92       1.0  0.46370  0.91606  0.43173  1.0000
  N   N69       1.0  0.43605  0.86091  0.51164  1.0000
  H   H89       1.0  0.42365  0.83608  0.51329  1.0000
  H   H90       1.0  0.44099  0.87129  0.57082  1.0000
  N   N70       1.0  0.47305  0.93459  0.51082  1.0000
  H   H91       1.0  0.48545  0.95942  0.51191  1.0000
  H   H92       1.0  0.46821  0.92440  0.57023  1.0000
  C   C93       1.0  0.43250  0.74963  0.34948  1.0000
  C   C94       1.0  0.43415  0.73488  0.43357  1.0000
  C   C95       1.0  0.43421  0.70313  0.43350  1.0000
  C   C96       1.0  0.43240  0.68667  0.34939  1.0000
  N   N71       1.0  0.43505  0.68737  0.51210  1.0000
  H   H93       1.0  0.43658  0.69694  0.57149  1.0000
  H   H94       1.0  0.43712  0.66694  0.51172  1.0000
  N   N72       1.0  0.43463  0.75126  0.51225  1.0000
  H   H95       1.0  0.43652  0.77369  0.51212  1.0000
  H   H96       1.0  0.43519  0.74273  0.57176  1.0000
  C   C97       1.0  0.58106  0.04246  0.34738  1.0000
  C   C98       1.0  0.59944  0.05165  0.26344  1.0000
  C   C99       1.0  0.63630  0.07008  0.26386  1.0000
  C   C100      1.0  0.65440  0.07912  0.34822  1.0000
  N   N73       1.0  0.65485  0.07936  0.18478  1.0000
  H   H97       1.0  0.64466  0.07430  0.12536  1.0000
  H   H98       1.0  0.67968  0.09177  0.18371  1.0000
  N   N74       1.0  0.58115  0.04250  0.18394  1.0000
  H   H99       1.0  0.55632  0.03008  0.18230  1.0000
  H   H100      1.0  0.59153  0.04765  0.12475  1.0000
  C   C101      1.0  0.97276  0.04247  0.34738  1.0000
  C   C102      1.0  0.96356  0.05165  0.26344  1.0000
  C   C103      1.0  0.94513  0.07007  0.26385  1.0000
  C   C104      1.0  0.93607  0.07911  0.34822  1.0000
  N   N75       1.0  0.93588  0.07937  0.18477  1.0000
  H   H101      1.0  0.94105  0.07436  0.12536  1.0000
  H   H102      1.0  0.92346  0.09178  0.18370  1.0000
  N   N76       1.0  0.97268  0.04248  0.18394  1.0000
  H   H103      1.0  0.98510  0.03008  0.18230  1.0000
  H   H104      1.0  0.96741  0.04759  0.12475  1.0000
  C   C105      1.0  0.97271  0.43416  0.34738  1.0000
  C   C106      1.0  0.96356  0.41578  0.26343  1.0000
  C   C107      1.0  0.94514  0.37892  0.26384  1.0000
  C   C108      1.0  0.93612  0.36082  0.34820  1.0000
  N   N77       1.0  0.93580  0.36038  0.18476  1.0000
  H   H105      1.0  0.94065  0.37057  0.12535  1.0000
  H   H106      1.0  0.92340  0.33555  0.18369  1.0000
  N   N78       1.0  0.97278  0.43407  0.18394  1.0000
  H   H107      1.0  0.98518  0.45890  0.18230  1.0000
  H   H108      1.0  0.96783  0.42369  0.12475  1.0000
  C   C109      1.0  0.78026  0.08096  0.26524  1.0000
  C   C110      1.0  0.81202  0.08089  0.26526  1.0000
  N   N79       1.0  0.76378  0.08030  0.18658  1.0000
  H   H109      1.0  0.74134  0.07838  0.18675  1.0000
  H   H110      1.0  0.77218  0.07947  0.12709  1.0000
  N   N80       1.0  0.82775  0.08002  0.18664  1.0000
  H   H111      1.0  0.84817  0.07792  0.18696  1.0000
  H   H112      1.0  0.81829  0.07871  0.12720  1.0000
  C   C111      1.0  0.93424  0.20317  0.26529  1.0000
  C   C112      1.0  0.93436  0.23501  0.26532  1.0000
  N   N81       1.0  0.93491  0.18736  0.18660  1.0000
  H   H113      1.0  0.93678  0.16682  0.18675  1.0000
  H   H114      1.0  0.93578  0.19661  0.12713  1.0000
  N   N82       1.0  0.93529  0.25165  0.18671  1.0000
  H   H115      1.0  0.93740  0.27417  0.18704  1.0000
  H   H116      1.0  0.93664  0.24352  0.12730  1.0000
  C   C113      1.0  0.81204  0.23497  0.26511  1.0000
  C   C114      1.0  0.78026  0.20317  0.26513  1.0000
  N   N83       1.0  0.82779  0.25156  0.18649  1.0000
  H   H117      1.0  0.84824  0.27405  0.18681  1.0000
  H   H118      1.0  0.81831  0.24340  0.12708  1.0000
  N   N84       1.0  0.76374  0.18736  0.18649  1.0000
  H   H119      1.0  0.74129  0.16685  0.18672  1.0000
  H   H120      1.0  0.77210  0.19660  0.12700  1.0000
  C   C115      1.0  0.99119  0.47109  0.34698  1.0000
  N   N85       1.0  0.97420  0.48904  0.34703  1.0000
  C   C116      1.0  0.99122  0.02400  0.34698  1.0000
  N   N86       1.0  0.52618  0.04101  0.34703  1.0000
  C   C117      1.0  0.54412  0.02400  0.34698  1.0000
  N   N87       1.0  0.52616  0.48904  0.34703  1.0000
  C   C118      1.0  0.74421  0.15030  0.34924  1.0000
  N   N88       1.0  0.70924  0.13264  0.34882  1.0000
  C   C119      1.0  0.69133  0.09759  0.34866  1.0000
  N   N89       1.0  0.70923  0.08042  0.34889  1.0000
  C   C120      1.0  0.74420  0.09774  0.34930  1.0000
  N   N90       1.0  0.76091  0.13237  0.34945  1.0000
  C   C121      1.0  0.86488  0.09770  0.34924  1.0000
  N   N91       1.0  0.88254  0.08039  0.34884  1.0000
  C   C122      1.0  0.91760  0.09756  0.34864  1.0000
  N   N92       1.0  0.93476  0.13262  0.34886  1.0000
  C   C123      1.0  0.91743  0.15026  0.34929  1.0000
  N   N93       1.0  0.88280  0.13233  0.34945  1.0000
  C   C124      1.0  0.91750  0.27104  0.34921  1.0000
  N   N94       1.0  0.93482  0.30601  0.34886  1.0000
  C   C125      1.0  0.91766  0.32390  0.34862  1.0000
  N   N95       1.0  0.88259  0.30599  0.34878  1.0000
  C   C126      1.0  0.86494  0.27102  0.34918  1.0000
  N   N96       1.0  0.88287  0.25433  0.34937  1.0000
  C   C127      1.0  0.63602  0.06994  0.43216  1.0000
  C   C128      1.0  0.59916  0.05151  0.43174  1.0000
  N   N97       1.0  0.65431  0.07909  0.51166  1.0000
  H   H121      1.0  0.67914  0.09151  0.51331  1.0000
  H   H122      1.0  0.64393  0.07394  0.57084  1.0000
  N   N98       1.0  0.58062  0.04222  0.51082  1.0000
  H   H123      1.0  0.55579  0.02981  0.51191  1.0000
  H   H124      1.0  0.59081  0.04727  0.57024  1.0000
  C   C129      1.0  0.94527  0.06994  0.43216  1.0000
  C   C130      1.0  0.96370  0.05151  0.43174  1.0000
  N   N99       1.0  0.93615  0.07910  0.51166  1.0000
  H   H125      1.0  0.92373  0.09151  0.51330  1.0000
  H   H126      1.0  0.94142  0.07400  0.57084  1.0000
  N   N100      1.0  0.97294  0.04222  0.51082  1.0000
  H   H127      1.0  0.98536  0.02981  0.51191  1.0000
  H   H128      1.0  0.96777  0.04723  0.57024  1.0000
  C   C131      1.0  0.94527  0.37920  0.43215  1.0000
  C   C132      1.0  0.96370  0.41605  0.43173  1.0000
  N   N101      1.0  0.93605  0.36091  0.51164  1.0000
  H   H129      1.0  0.92365  0.33608  0.51329  1.0000
  H   H130      1.0  0.94099  0.37129  0.57082  1.0000
  N   N102      1.0  0.97305  0.43459  0.51082  1.0000
  H   H131      1.0  0.98545  0.45942  0.51191  1.0000
  H   H132      1.0  0.96821  0.42440  0.57023  1.0000
  C   C133      1.0  0.82845  0.08268  0.34943  1.0000
  C   C134      1.0  0.81209  0.08106  0.43358  1.0000
  C   C135      1.0  0.78030  0.08104  0.43357  1.0000
  C   C136      1.0  0.76560  0.08272  0.34941  1.0000
  N   N103      1.0  0.76378  0.08034  0.51219  1.0000
  H   H133      1.0  0.77202  0.07923  0.57166  1.0000
  H   H134      1.0  0.74130  0.07834  0.51192  1.0000
  N   N104      1.0  0.82796  0.08048  0.51223  1.0000
  H   H135      1.0  0.84847  0.07853  0.51203  1.0000
  H   H136      1.0  0.81876  0.07967  0.57172  1.0000
  C   C137      1.0  0.93250  0.24963  0.34948  1.0000
  C   C138      1.0  0.93415  0.23488  0.43357  1.0000
  C   C139      1.0  0.93421  0.20313  0.43350  1.0000
  C   C140      1.0  0.93240  0.18667  0.34939  1.0000
  N   N105      1.0  0.93505  0.18737  0.51210  1.0000
  H   H137      1.0  0.93658  0.19694  0.57149  1.0000
  H   H138      1.0  0.93712  0.16693  0.51172  1.0000
  N   N106      1.0  0.93462  0.25126  0.51225  1.0000
  H   H139      1.0  0.93652  0.27369  0.51212  1.0000
  H   H140      1.0  0.93519  0.24273  0.57176  1.0000
  C   C141      1.0  0.76562  0.18673  0.34928  1.0000
  C   C142      1.0  0.78038  0.20307  0.43346  1.0000
  C   C143      1.0  0.81216  0.23488  0.43343  1.0000
  C   C144      1.0  0.82851  0.24960  0.34924  1.0000
  N   N107      1.0  0.82798  0.25140  0.51206  1.0000
  H   H141      1.0  0.81856  0.24322  0.57149  1.0000
  H   H142      1.0  0.84840  0.27392  0.51172  1.0000
  N   N108      1.0  0.76396  0.18719  0.51214  1.0000
  H   H143      1.0  0.74150  0.16668  0.51198  1.0000
  H   H144      1.0  0.77243  0.19634  0.57164  1.0000
  C   C145      1.0  0.58106  0.54246  0.34738  1.0000
  C   C146      1.0  0.59944  0.55165  0.26344  1.0000
  C   C147      1.0  0.63630  0.57008  0.26386  1.0000
  C   C148      1.0  0.65440  0.57912  0.34822  1.0000
  N   N109      1.0  0.65485  0.57936  0.18478  1.0000
  H   H145      1.0  0.64466  0.57430  0.12536  1.0000
  H   H146      1.0  0.67969  0.59177  0.18371  1.0000
  N   N110      1.0  0.58115  0.54250  0.18394  1.0000
  H   H147      1.0  0.55632  0.53008  0.18230  1.0000
  H   H148      1.0  0.59153  0.54766  0.12475  1.0000
  C   C149      1.0  0.97276  0.54247  0.34738  1.0000
  C   C150      1.0  0.96356  0.55165  0.26344  1.0000
  C   C151      1.0  0.94513  0.57007  0.26385  1.0000
  C   C152      1.0  0.93607  0.57911  0.34822  1.0000
  N   N111      1.0  0.93588  0.57937  0.18477  1.0000
  H   H149      1.0  0.94106  0.57436  0.12536  1.0000
  H   H150      1.0  0.92346  0.59178  0.18370  1.0000
  N   N112      1.0  0.97268  0.54248  0.18394  1.0000
  H   H151      1.0  0.98510  0.53008  0.18230  1.0000
  H   H152      1.0  0.96741  0.54759  0.12475  1.0000
  C   C153      1.0  0.97272  0.93416  0.34738  1.0000
  C   C154      1.0  0.96356  0.91578  0.26343  1.0000
  C   C155      1.0  0.94514  0.87892  0.26384  1.0000
  C   C156      1.0  0.93612  0.86083  0.34820  1.0000
  N   N113      1.0  0.93580  0.86038  0.18476  1.0000
  H   H153      1.0  0.94065  0.87057  0.12535  1.0000
  H   H154      1.0  0.92339  0.83555  0.18369  1.0000
  N   N114      1.0  0.97278  0.93407  0.18394  1.0000
  H   H155      1.0  0.98518  0.95890  0.18230  1.0000
  H   H156      1.0  0.96783  0.92369  0.12475  1.0000
  C   C157      1.0  0.78026  0.58096  0.26524  1.0000
  C   C158      1.0  0.81202  0.58089  0.26526  1.0000
  N   N115      1.0  0.76379  0.58030  0.18658  1.0000
  H   H157      1.0  0.74134  0.57838  0.18675  1.0000
  H   H158      1.0  0.77218  0.57947  0.12709  1.0000
  N   N116      1.0  0.82775  0.58002  0.18664  1.0000
  H   H159      1.0  0.84817  0.57792  0.18696  1.0000
  H   H160      1.0  0.81829  0.57871  0.12720  1.0000
  C   C159      1.0  0.93424  0.70317  0.26529  1.0000
  C   C160      1.0  0.93436  0.73501  0.26532  1.0000
  N   N117      1.0  0.93491  0.68736  0.18660  1.0000
  H   H161      1.0  0.93678  0.66682  0.18675  1.0000
  H   H162      1.0  0.93578  0.69661  0.12713  1.0000
  N   N118      1.0  0.93528  0.75165  0.18671  1.0000
  H   H163      1.0  0.93739  0.77417  0.18704  1.0000
  H   H164      1.0  0.93664  0.74352  0.12730  1.0000
  C   C161      1.0  0.81204  0.73497  0.26511  1.0000
  C   C162      1.0  0.78026  0.70317  0.26513  1.0000
  N   N119      1.0  0.82778  0.75156  0.18649  1.0000
  H   H165      1.0  0.84824  0.77405  0.18681  1.0000
  H   H166      1.0  0.81831  0.74340  0.12708  1.0000
  N   N120      1.0  0.76374  0.68736  0.18649  1.0000
  H   H167      1.0  0.74129  0.66685  0.18672  1.0000
  H   H168      1.0  0.77210  0.69661  0.12700  1.0000
  C   C163      1.0  0.99120  0.97109  0.34698  1.0000
  N   N121      1.0  0.97420  0.98904  0.34703  1.0000
  C   C164      1.0  0.99121  0.52400  0.34698  1.0000
  N   N122      1.0  0.52618  0.54101  0.34703  1.0000
  C   C165      1.0  0.54412  0.52400  0.34698  1.0000
  N   N123      1.0  0.52616  0.98904  0.34703  1.0000
  C   C166      1.0  0.74421  0.65030  0.34924  1.0000
  N   N124      1.0  0.70923  0.63264  0.34882  1.0000
  C   C167      1.0  0.69133  0.59759  0.34866  1.0000
  N   N125      1.0  0.70922  0.58042  0.34889  1.0000
  C   C168      1.0  0.74420  0.59774  0.34930  1.0000
  N   N126      1.0  0.76091  0.63237  0.34945  1.0000
  C   C169      1.0  0.86488  0.59770  0.34924  1.0000
  N   N127      1.0  0.88254  0.58039  0.34884  1.0000
  C   C170      1.0  0.91760  0.59757  0.34864  1.0000
  N   N128      1.0  0.93476  0.63262  0.34886  1.0000
  C   C171      1.0  0.91743  0.65026  0.34929  1.0000
  N   N129      1.0  0.88280  0.63233  0.34945  1.0000
  C   C172      1.0  0.91750  0.77104  0.34921  1.0000
  N   N130      1.0  0.93482  0.80601  0.34886  1.0000
  C   C173      1.0  0.91765  0.82390  0.34862  1.0000
  N   N131      1.0  0.88259  0.80599  0.34878  1.0000
  C   C174      1.0  0.86494  0.77102  0.34918  1.0000
  N   N132      1.0  0.88287  0.75433  0.34937  1.0000
  C   C175      1.0  0.63603  0.56994  0.43216  1.0000
  C   C176      1.0  0.59916  0.55151  0.43174  1.0000
  N   N133      1.0  0.65431  0.57909  0.51166  1.0000
  H   H169      1.0  0.67914  0.59151  0.51331  1.0000
  H   H170      1.0  0.64393  0.57395  0.57084  1.0000
  N   N134      1.0  0.58062  0.54222  0.51082  1.0000
  H   H171      1.0  0.55578  0.52981  0.51191  1.0000
  H   H172      1.0  0.59081  0.54727  0.57024  1.0000
  C   C177      1.0  0.94527  0.56994  0.43216  1.0000
  C   C178      1.0  0.96370  0.55151  0.43174  1.0000
  N   N135      1.0  0.93615  0.57910  0.51166  1.0000
  H   H173      1.0  0.92373  0.59152  0.51330  1.0000
  H   H174      1.0  0.94142  0.57400  0.57084  1.0000
  N   N136      1.0  0.97294  0.54222  0.51082  1.0000
  H   H175      1.0  0.98536  0.52981  0.51191  1.0000
  H   H176      1.0  0.96777  0.54723  0.57024  1.0000
  C   C179      1.0  0.94527  0.87920  0.43215  1.0000
  C   C180      1.0  0.96370  0.91606  0.43173  1.0000
  N   N137      1.0  0.93605  0.86091  0.51164  1.0000
  H   H177      1.0  0.92365  0.83608  0.51329  1.0000
  H   H178      1.0  0.94099  0.87129  0.57082  1.0000
  N   N138      1.0  0.97305  0.93459  0.51082  1.0000
  H   H179      1.0  0.98545  0.95942  0.51191  1.0000
  H   H180      1.0  0.96821  0.92440  0.57023  1.0000
  C   C181      1.0  0.82845  0.58268  0.34943  1.0000
  C   C182      1.0  0.81209  0.58106  0.43358  1.0000
  C   C183      1.0  0.78030  0.58104  0.43357  1.0000
  C   C184      1.0  0.76560  0.58271  0.34941  1.0000
  N   N139      1.0  0.76378  0.58034  0.51219  1.0000
  H   H181      1.0  0.77202  0.57923  0.57166  1.0000
  H   H182      1.0  0.74130  0.57834  0.51192  1.0000
  N   N140      1.0  0.82796  0.58048  0.51223  1.0000
  H   H183      1.0  0.84847  0.57853  0.51203  1.0000
  H   H184      1.0  0.81876  0.57968  0.57172  1.0000
  C   C185      1.0  0.93250  0.74963  0.34948  1.0000
  C   C186      1.0  0.93415  0.73488  0.43357  1.0000
  C   C187      1.0  0.93421  0.70313  0.43350  1.0000
  C   C188      1.0  0.93240  0.68667  0.34939  1.0000
  N   N141      1.0  0.93505  0.68737  0.51210  1.0000
  H   H185      1.0  0.93658  0.69694  0.57149  1.0000
  H   H186      1.0  0.93712  0.66694  0.51172  1.0000
  N   N142      1.0  0.93462  0.75126  0.51225  1.0000
  H   H187      1.0  0.93652  0.77369  0.51212  1.0000
  H   H188      1.0  0.93519  0.74273  0.57176  1.0000
  C   C189      1.0  0.76562  0.68673  0.34928  1.0000
  C   C190      1.0  0.78038  0.70307  0.43346  1.0000
  C   C191      1.0  0.81216  0.73488  0.43343  1.0000
  C   C192      1.0  0.82851  0.74960  0.34924  1.0000
  N   N143      1.0  0.82798  0.75140  0.51206  1.0000
  H   H189      1.0  0.81856  0.74322  0.57149  1.0000
  H   H190      1.0  0.84841  0.77393  0.51172  1.0000
  N   N144      1.0  0.76396  0.68719  0.51214  1.0000
  H   H191      1.0  0.74150  0.66668  0.51198  1.0000
  H   H192      1.0  0.77243  0.69634  0.57164  1.0000
