data_image0
_chemical_formula_structural       C5NC4H2NH2NHCNC4H2NH2NHCNC4H2NH2NHC5H3C2O3C5H3C2O3C4HCNHNH2NHC4HCNHNH2NHC4HCNHNH2NH
_chemical_formula_sum              "C48 N18 H36 O6"
_cell_length_a       29.5519
_cell_length_b       29.552
_cell_length_c       15.1344
_cell_angle_alpha    90
_cell_angle_beta     90
_cell_angle_gamma    120

_space_group_name_H-M_alt    "P 1"
_space_group_IT_number       1

loop_
  _space_group_symop_operation_xyz
  'x, y, z'

loop_
  _atom_site_type_symbol
  _atom_site_label
  _atom_site_symmetry_multiplicity
  _atom_site_fract_x
  _atom_site_fract_y
  _atom_site_fract_z
  _atom_site_occupancy
  C   C1        1.0  0.36451  0.64610  0.32687  1.0000
  C   C2        1.0  0.40204  0.62986  0.32875  1.0000
  C   C3        1.0  0.62220  0.34506  0.32209  1.0000
  C   C4        1.0  0.58469  0.36133  0.32027  1.0000
  C   C5        1.0  0.55026  0.43833  0.27556  1.0000
  N   N1        1.0  0.52427  0.46473  0.27025  1.0000
  C   C6        1.0  0.47982  0.50909  0.31113  1.0000
  C   C7        1.0  0.46807  0.51941  0.22335  1.0000
  C   C8        1.0  0.44017  0.54685  0.21571  1.0000
  C   C9        1.0  0.42506  0.56491  0.28976  1.0000
  H   H1        1.0  0.43071  0.55454  0.15452  1.0000
  H   H2        1.0  0.56238  0.42899  0.21873  1.0000
  N   N2        1.0  0.48036  0.50547  0.14465  1.0000
  H   H3        1.0  0.49871  0.48645  0.13940  1.0000
  H   H4        1.0  0.47061  0.51431  0.08841  1.0000
  N   N3        1.0  0.39573  0.58834  0.28035  1.0000
  H   H5        1.0  0.36858  0.57416  0.23502  1.0000
  C   C10       1.0  0.55088  0.10967  0.27550  1.0000
  N   N4        1.0  0.52439  0.05728  0.27020  1.0000
  C   C11       1.0  0.47977  0.96848  0.31109  1.0000
  C   C12       1.0  0.46931  0.94643  0.22331  1.0000
  C   C13       1.0  0.44198  0.89107  0.21567  1.0000
  C   C14       1.0  0.42409  0.85791  0.28973  1.0000
  H   H6        1.0  0.43417  0.87393  0.15447  1.0000
  H   H7        1.0  0.56029  0.13112  0.21865  1.0000
  N   N5        1.0  0.48296  0.97265  0.14460  1.0000
  H   H8        1.0  0.50154  0.01002  0.13932  1.0000
  H   H9        1.0  0.47405  0.95406  0.08835  1.0000
  N   N6        1.0  0.40064  0.80516  0.28031  1.0000
  H   H10       1.0  0.41476  0.79217  0.23489  1.0000
  C   C15       1.0  0.87923  0.43901  0.27548  1.0000
  N   N7        1.0  0.93162  0.46492  0.27018  1.0000
  C   C16       1.0  0.02042  0.50905  0.31110  1.0000
  C   C17       1.0  0.04248  0.52072  0.22332  1.0000
  C   C18       1.0  0.09784  0.54873  0.21572  1.0000
  C   C19       1.0  0.13100  0.56384  0.28978  1.0000
  H   H11       1.0  0.11499  0.55815  0.15453  1.0000
  H   H12       1.0  0.85778  0.42697  0.21861  1.0000
  N   N8        1.0  0.01628  0.50824  0.14460  1.0000
  H   H13       1.0  0.97891  0.48945  0.13932  1.0000
  H   H14       1.0  0.03487  0.51795  0.08837  1.0000
  N   N9        1.0  0.18376  0.59323  0.28041  1.0000
  H   H15       1.0  0.19672  0.62036  0.23505  1.0000
  C   C20       1.0  0.34285  0.71620  0.32686  1.0000
  C   C21       1.0  0.28931  0.67829  0.32759  1.0000
  C   C22       1.0  0.27274  0.62444  0.32689  1.0000
  C   C23       1.0  0.31065  0.60881  0.32759  1.0000
  C   C24       1.0  0.38013  0.69963  0.32755  1.0000
  H   H16       1.0  0.29882  0.56978  0.32906  1.0000
  H   H17       1.0  0.41917  0.72683  0.32901  1.0000
  H   H18       1.0  0.26211  0.69013  0.32905  1.0000
  C   C25       1.0  0.35910  0.76997  0.32869  1.0000
  C   C26       1.0  0.21897  0.58690  0.32878  1.0000
  O   O1        1.0  0.44546  0.65771  0.37861  1.0000
  O   O2        1.0  0.33134  0.78558  0.37871  1.0000
  O   O3        1.0  0.20340  0.54349  0.37866  1.0000
  C   C27       1.0  0.64384  0.27495  0.32201  1.0000
  C   C28       1.0  0.69738  0.31285  0.32129  1.0000
  C   C29       1.0  0.71396  0.36670  0.32201  1.0000
  C   C30       1.0  0.67606  0.38234  0.32135  1.0000
  C   C31       1.0  0.60656  0.29153  0.32135  1.0000
  H   H19       1.0  0.68790  0.42138  0.31991  1.0000
  H   H20       1.0  0.56753  0.26433  0.31992  1.0000
  H   H21       1.0  0.72458  0.30101  0.31979  1.0000
  C   C32       1.0  0.62760  0.22118  0.32012  1.0000
  C   C33       1.0  0.76773  0.40423  0.32012  1.0000
  O   O4        1.0  0.54133  0.33360  0.27022  1.0000
  O   O5        1.0  0.65542  0.20560  0.27016  1.0000
  O   O6        1.0  0.78331  0.44764  0.27022  1.0000
  C   C34       1.0  0.56180  0.42636  0.35921  1.0000
  C   C35       1.0  0.50685  0.48198  0.33783  1.0000
  C   C36       1.0  0.51835  0.47143  0.42562  1.0000
  C   C37       1.0  0.54644  0.44416  0.43326  1.0000
  H   H22       1.0  0.55570  0.43628  0.49447  1.0000
  C   C38       1.0  0.43687  0.55319  0.37339  1.0000
  N   N10       1.0  0.46281  0.52674  0.37871  1.0000
  H   H23       1.0  0.42501  0.56278  0.43026  1.0000
  N   N11       1.0  0.50558  0.48488  0.50433  1.0000
  H   H24       1.0  0.51521  0.47592  0.56058  1.0000
  H   H25       1.0  0.48652  0.50319  0.50961  1.0000
  N   N12       1.0  0.59108  0.40289  0.36865  1.0000
  H   H26       1.0  0.61817  0.41699  0.41408  1.0000
  C   C39       1.0  0.56272  0.13321  0.35913  1.0000
  C   C40       1.0  0.50690  0.02263  0.33779  1.0000
  C   C41       1.0  0.51731  0.04469  0.42557  1.0000
  C   C42       1.0  0.54472  0.10005  0.43318  1.0000
  H   H27       1.0  0.55245  0.11719  0.49438  1.0000
  C   C43       1.0  0.43600  0.88143  0.37337  1.0000
  N   N13       1.0  0.46241  0.93382  0.37868  1.0000
  H   H28       1.0  0.42657  0.85997  0.43022  1.0000
  N   N14       1.0  0.50351  0.01847  0.50427  1.0000
  H   H29       1.0  0.51240  0.03706  0.56051  1.0000
  H   H30       1.0  0.48467  0.98110  0.50955  1.0000
  N   N15       1.0  0.58609  0.18596  0.36853  1.0000
  H   H31       1.0  0.57193  0.19892  0.41391  1.0000
  C   C44       1.0  0.85569  0.42725  0.35911  1.0000
  C   C45       1.0  0.96627  0.48210  0.33778  1.0000
  C   C46       1.0  0.94421  0.47046  0.42555  1.0000
  C   C47       1.0  0.88884  0.44242  0.43316  1.0000
  H   H32       1.0  0.87170  0.43302  0.49436  1.0000
  C   C48       1.0  0.10746  0.55208  0.37340  1.0000
  N   N16       1.0  0.05507  0.52619  0.37869  1.0000
  H   H33       1.0  0.12890  0.56410  0.43026  1.0000
  N   N17       1.0  0.97041  0.48300  0.50427  1.0000
  H   H34       1.0  0.95182  0.47332  0.56051  1.0000
  H   H35       1.0  0.00778  0.50190  0.50957  1.0000
  N   N18       1.0  0.80294  0.39789  0.36848  1.0000
  H   H36       1.0  0.78997  0.37075  0.41383  1.0000
