data_image0
_chemical_formula_structural       C3NC3NC5NC4NC35H25C3NOCH3C3NOCH3C18H17CNHCNH
_chemical_formula_sum              "C78 N8 H50 O2"
_cell_length_a       29.9627
_cell_length_b       29.9623
_cell_length_c       14.8813
_cell_angle_alpha    90
_cell_angle_beta     90
_cell_angle_gamma    90.0717

_space_group_name_H-M_alt    "P 1"
_space_group_IT_number       1

loop_
  _space_group_symop_operation_xyz
  'x, y, z'

loop_
  _atom_site_type_symbol
  _atom_site_label
  _atom_site_symmetry_multiplicity
  _atom_site_fract_x
  _atom_site_fract_y
  _atom_site_fract_z
  _atom_site_occupancy
  C   C1        1.0  0.12188  0.08787  0.33995  1.0000
  C   C2        1.0  0.08928  0.12043  0.33997  1.0000
  C   C3        1.0  0.04759  0.09946  0.34071  1.0000
  N   N1        1.0  0.05657  0.05506  0.34137  1.0000
  C   C4        1.0  0.10098  0.04614  0.34091  1.0000
  C   C5        1.0  0.12363  0.00435  0.34093  1.0000
  C   C6        1.0  0.10208  0.96204  0.34095  1.0000
  N   N2        1.0  0.05777  0.95330  0.34085  1.0000
  C   C7        1.0  0.04909  0.90897  0.34089  1.0000
  C   C8        1.0  0.09064  0.88788  0.34092  1.0000
  C   C9        1.0  0.12323  0.92051  0.34117  1.0000
  C   C10       1.0  0.00681  0.88737  0.34072  1.0000
  C   C11       1.0  0.96498  0.90997  0.34046  1.0000
  N   N3        1.0  0.95601  0.95437  0.33993  1.0000
  C   C12       1.0  0.91160  0.96328  0.34013  1.0000
  C   C13       1.0  0.89068  0.92156  0.34074  1.0000
  C   C14       1.0  0.92328  0.88901  0.34109  1.0000
  C   C15       1.0  0.88896  0.00508  0.33985  1.0000
  N   N4        1.0  0.95480  0.05613  0.34036  1.0000
  C   C16       1.0  0.96348  0.10045  0.34046  1.0000
  C   C17       1.0  0.92193  0.12155  0.34007  1.0000
  C   C18       1.0  0.88934  0.08891  0.33978  1.0000
  C   C19       1.0  0.00576  0.12204  0.34062  1.0000
  C   C20       1.0  0.00612  0.16976  0.34027  1.0000
  C   C21       1.0  0.00697  0.19368  0.25856  1.0000
  C   C22       1.0  0.00704  0.24071  0.25838  1.0000
  C   C23       1.0  0.00616  0.26556  0.33954  1.0000
  C   C24       1.0  0.00595  0.31360  0.33909  1.0000
  C   C25       1.0  0.98104  0.38497  0.27356  1.0000
  C   C26       1.0  0.98112  0.33795  0.27450  1.0000
  C   C27       1.0  0.84124  0.00465  0.33951  1.0000
  C   C28       1.0  0.81733  0.00508  0.25777  1.0000
  C   C29       1.0  0.77030  0.00485  0.25755  1.0000
  C   C30       1.0  0.74544  0.00411  0.33870  1.0000
  C   C31       1.0  0.69741  0.00382  0.33820  1.0000
  C   C32       1.0  0.67303  0.97881  0.27384  1.0000
  C   C33       1.0  0.62601  0.97874  0.27276  1.0000
  C   C34       1.0  0.60127  0.00352  0.33640  1.0000
  C   C35       1.0  0.00646  0.83965  0.34079  1.0000
  C   C36       1.0  0.00638  0.74383  0.34068  1.0000
  C   C37       1.0  0.00268  0.76856  0.25970  1.0000
  C   C38       1.0  0.00278  0.81559  0.25955  1.0000
  C   C39       1.0  0.00646  0.69578  0.34058  1.0000
  C   C40       1.0  0.02837  0.67116  0.27231  1.0000
  C   C41       1.0  0.02818  0.62413  0.27174  1.0000
  C   C42       1.0  0.00645  0.59931  0.34001  1.0000
  C   C43       1.0  0.17135  0.00476  0.34061  1.0000
  C   C44       1.0  0.19533  0.00083  0.25933  1.0000
  C   C45       1.0  0.24235  0.00085  0.25926  1.0000
  C   C46       1.0  0.26717  0.00491  0.34007  1.0000
  C   C47       1.0  0.31522  0.00486  0.33980  1.0000
  C   C48       1.0  0.41168  0.00455  0.33890  1.0000
  C   C49       1.0  0.38694  0.02604  0.27033  1.0000
  C   C50       1.0  0.33991  0.02638  0.27104  1.0000
  H   H1        1.0  0.40293  0.04242  0.21928  1.0000
  H   H2        1.0  0.32384  0.04339  0.22102  1.0000
  H   H3        1.0  0.25832  0.99690  0.19904  1.0000
  H   H4        1.0  0.17867  0.99760  0.19961  1.0000
  H   H5        1.0  0.15539  0.09425  0.33905  1.0000
  H   H6        1.0  0.09560  0.15395  0.33917  1.0000
  H   H7        1.0  0.03392  0.03238  0.34230  1.0000
  H   H8        1.0  0.97866  0.97705  0.33919  1.0000
  H   H9        1.0  0.15678  0.91440  0.34141  1.0000
  H   H10       1.0  0.09680  0.85434  0.34084  1.0000
  H   H11       1.0  0.99999  0.83217  0.19968  1.0000
  H   H12       1.0  0.99902  0.75253  0.19947  1.0000
  H   H13       1.0  0.91695  0.85548  0.34187  1.0000
  H   H14       1.0  0.85717  0.91520  0.34117  1.0000
  H   H15       1.0  0.85579  0.09501  0.33949  1.0000
  H   H16       1.0  0.83403  0.00583  0.19777  1.0000
  H   H17       1.0  0.75436  0.00612  0.19683  1.0000
  H   H18       1.0  0.60995  0.95952  0.22604  1.0000
  H   H19       1.0  0.68933  0.95950  0.22767  1.0000
  H   H20       1.0  0.96190  0.32163  0.22814  1.0000
  H   H21       1.0  0.96195  0.40101  0.22667  1.0000
  H   H22       1.0  0.00850  0.25667  0.19769  1.0000
  H   H23       1.0  0.00767  0.17699  0.19856  1.0000
  H   H24       1.0  0.04555  0.68728  0.22253  1.0000
  H   H25       1.0  0.04483  0.60819  0.22104  1.0000
  C   C51       1.0  0.01715  0.48272  0.25958  1.0000
  C   C52       1.0  0.00562  0.45742  0.33667  1.0000
  C   C53       1.0  0.00615  0.55156  0.33926  1.0000
  N   N5        1.0  0.01782  0.52811  0.26455  1.0000
  O   O1        1.0  0.03196  0.46222  0.18281  1.0000
  C   C54       1.0  0.00686  0.47284  0.10324  1.0000
  H   H26       1.0  0.97148  0.46493  0.11140  1.0000
  H   H27       1.0  0.01989  0.45284  0.04798  1.0000
  H   H28       1.0  0.01053  0.50801  0.08531  1.0000
  C   C55       1.0  0.52832  0.01477  0.25825  1.0000
  C   C56       1.0  0.55358  0.00347  0.33548  1.0000
  C   C57       1.0  0.45944  0.00412  0.33807  1.0000
  N   N6        1.0  0.48293  0.01551  0.26320  1.0000
  O   O2        1.0  0.54886  0.02932  0.18128  1.0000
  C   C58       1.0  0.53818  0.00395  0.10206  1.0000
  H   H29       1.0  0.54602  0.96861  0.11070  1.0000
  H   H30       1.0  0.55821  0.01680  0.04662  1.0000
  H   H31       1.0  0.50301  0.00754  0.08409  1.0000
  C   C59       1.0  0.91049  0.04739  0.33994  1.0000
  C   C60       1.0  0.00538  0.24104  0.42108  1.0000
  C   C61       1.0  0.00536  0.19400  0.42162  1.0000
  C   C62       1.0  0.03039  0.33867  0.40325  1.0000
  C   C63       1.0  0.03008  0.38572  0.40286  1.0000
  C   C64       1.0  0.00566  0.40974  0.33751  1.0000
  C   C65       1.0  0.76996  0.00365  0.42026  1.0000
  C   C66       1.0  0.81699  0.00395  0.42084  1.0000
  C   C67       1.0  0.62530  0.02810  0.40155  1.0000
  C   C68       1.0  0.67235  0.02842  0.40206  1.0000
  C   C69       1.0  0.01005  0.81554  0.42197  1.0000
  C   C70       1.0  0.01005  0.76851  0.42173  1.0000
  C   C71       1.0  0.98479  0.62386  0.40866  1.0000
  C   C72       1.0  0.98463  0.67090  0.40867  1.0000
  C   C73       1.0  0.19555  0.00880  0.42161  1.0000
  C   C74       1.0  0.24258  0.00894  0.42115  1.0000
  C   C75       1.0  0.34003  0.98323  0.40817  1.0000
  C   C76       1.0  0.38708  0.98327  0.40800  1.0000
  H   H32       1.0  0.40317  0.96667  0.45857  1.0000
  H   H33       1.0  0.32405  0.96627  0.45840  1.0000
  H   H34       1.0  0.25871  0.01285  0.48120  1.0000
  H   H35       1.0  0.17906  0.01183  0.48154  1.0000
  H   H36       1.0  0.01300  0.83210  0.48185  1.0000
  H   H37       1.0  0.01374  0.75244  0.48190  1.0000
  H   H38       1.0  0.91579  0.15509  0.33995  1.0000
  H   H39       1.0  0.83345  0.00347  0.48112  1.0000
  H   H40       1.0  0.75376  0.00225  0.48070  1.0000
  H   H41       1.0  0.68816  0.04777  0.44891  1.0000
  H   H42       1.0  0.60868  0.04687  0.44823  1.0000
  H   H43       1.0  0.00450  0.17754  0.48187  1.0000
  H   H44       1.0  0.00380  0.25723  0.48150  1.0000
  H   H45       1.0  0.04870  0.40237  0.44981  1.0000
  H   H46       1.0  0.04958  0.32288  0.45033  1.0000
  H   H47       1.0  0.96740  0.68684  0.45855  1.0000
  H   H48       1.0  0.96805  0.60770  0.45900  1.0000
  C   C77       1.0  0.99400  0.48207  0.41421  1.0000
  N   N7        1.0  0.99427  0.52739  0.41296  1.0000
  H   H49       1.0  0.98466  0.46628  0.47212  1.0000
  C   C78       1.0  0.52888  0.99211  0.41316  1.0000
  N   N8        1.0  0.48357  0.99246  0.41191  1.0000
  H   H50       1.0  0.54464  0.98296  0.47122  1.0000
