data_image0
_chemical_formula_structural       C4N2O4C4N2O4C4N2O4C2H2C2H2C2H2NC18H12NC18H12NC18H12NC18H12C2H2C2H2C2H2C4N2O4C4N2O4C4N2O4
_chemical_formula_sum              "C108 N16 O24 H60"
_cell_length_a       38.8635
_cell_length_b       38.8636
_cell_length_c       14.7701
_cell_angle_alpha    90
_cell_angle_beta     90
_cell_angle_gamma    120

_space_group_name_H-M_alt    "P 1"
_space_group_IT_number       1

loop_
  _space_group_symop_operation_xyz
  'x, y, z'

loop_
  _atom_site_type_symbol
  _atom_site_label
  _atom_site_symmetry_multiplicity
  _atom_site_fract_x
  _atom_site_fract_y
  _atom_site_fract_z
  _atom_site_occupancy
  C   C1        1.0  0.26129  0.13289  0.32496  1.0000
  C   C2        1.0  0.17553  0.09047  0.32728  1.0000
  C   C3        1.0  0.19706  0.12545  0.27391  1.0000
  C   C4        1.0  0.23958  0.14656  0.27258  1.0000
  N   N1        1.0  0.17477  0.13916  0.22507  1.0000
  N   N2        1.0  0.25829  0.18198  0.22057  1.0000
  O   O1        1.0  0.18137  0.17266  0.25141  1.0000
  O   O2        1.0  0.28143  0.21221  0.26579  1.0000
  O   O3        1.0  0.18040  0.13999  0.14109  1.0000
  O   O4        1.0  0.27557  0.17925  0.15155  1.0000
  C   C5        1.0  0.87628  0.13221  0.32159  1.0000
  C   C6        1.0  0.91983  0.08901  0.32032  1.0000
  C   C7        1.0  0.90865  0.10018  0.23785  1.0000
  C   C8        1.0  0.88606  0.12005  0.23854  1.0000
  N   N3        1.0  0.92221  0.09617  0.15131  1.0000
  N   N4        1.0  0.87083  0.12280  0.15307  1.0000
  O   O5        1.0  0.95858  0.10761  0.14378  1.0000
  O   O6        1.0  0.83438  0.11136  0.14867  1.0000
  O   O7        1.0  0.90011  0.06425  0.11050  1.0000
  O   O8        1.0  0.89229  0.15383  0.10862  1.0000
  C   C9        1.0  0.87514  0.74453  0.34034  1.0000
  C   C10       1.0  0.92064  0.83034  0.34449  1.0000
  C   C11       1.0  0.92167  0.80888  0.26696  1.0000
  C   C12       1.0  0.89985  0.76648  0.26566  1.0000
  N   N5        1.0  0.94146  0.82769  0.18527  1.0000
  N   N6        1.0  0.90699  0.74838  0.18991  1.0000
  O   O9        1.0  0.97851  0.84328  0.18881  1.0000
  O   O10       1.0  0.91706  0.72315  0.20912  1.0000
  O   O11       1.0  0.93164  0.85160  0.15386  1.0000
  O   O12       1.0  0.88012  0.73559  0.13116  1.0000
  C   C13       1.0  0.57047  0.18080  0.28087  1.0000
  C   C14       1.0  0.60579  0.17972  0.27003  1.0000
  H   H1        1.0  0.61568  0.18032  0.20546  1.0000
  H   H2        1.0  0.55695  0.18311  0.22354  1.0000
  C   C15       1.0  0.82368  0.39165  0.29550  1.0000
  C   C16       1.0  0.82540  0.42834  0.28520  1.0000
  H   H3        1.0  0.82558  0.43811  0.22070  1.0000
  H   H4        1.0  0.82184  0.37622  0.23778  1.0000
  C   C17       1.0  0.61197  0.43641  0.29451  1.0000
  C   C18       1.0  0.57537  0.40148  0.28227  1.0000
  H   H5        1.0  0.56604  0.39252  0.21724  1.0000
  H   H6        1.0  0.62777  0.45054  0.23760  1.0000
  N   N7        1.0  0.00486  0.00239  0.34962  1.0000
  C   C19       1.0  0.04729  0.02504  0.34269  1.0000
  C   C20       1.0  0.98413  0.95922  0.35443  1.0000
  C   C21       1.0  0.98475  0.02483  0.34001  1.0000
  C   C22       1.0  0.99197  0.05594  0.40047  1.0000
  C   C23       1.0  0.97197  0.07768  0.39161  1.0000
  C   C24       1.0  0.94188  0.06794  0.32554  1.0000
  C   C25       1.0  0.93386  0.03559  0.26780  1.0000
  C   C26       1.0  0.95608  0.01594  0.27161  1.0000
  C   C27       1.0  0.06681  0.03430  0.25810  1.0000
  C   C28       1.0  0.10871  0.05532  0.25296  1.0000
  C   C29       1.0  0.13268  0.06841  0.33195  1.0000
  C   C30       1.0  0.11271  0.05855  0.41649  1.0000
  C   C31       1.0  0.07086  0.03701  0.42176  1.0000
  C   C32       1.0  0.00416  0.93733  0.34339  1.0000
  C   C33       1.0  0.98375  0.89543  0.34279  1.0000
  C   C34       1.0  0.94191  0.87300  0.35025  1.0000
  C   C35       1.0  0.92182  0.89436  0.36608  1.0000
  C   C36       1.0  0.94252  0.93627  0.36938  1.0000
  H   H7        1.0  0.12166  0.06055  0.19041  1.0000
  H   H8        1.0  0.05045  0.02513  0.19980  1.0000
  H   H9        1.0  0.05750  0.03023  0.48396  1.0000
  H   H10       1.0  0.12858  0.06733  0.47554  1.0000
  H   H11       1.0  0.01255  0.06351  0.45086  1.0000
  H   H12       1.0  0.97953  0.10079  0.43533  1.0000
  H   H13       1.0  0.03426  0.95173  0.33476  1.0000
  H   H14       1.0  0.99992  0.88137  0.33668  1.0000
  H   H15       1.0  0.89160  0.87948  0.37390  1.0000
  H   H16       1.0  0.92635  0.94993  0.38143  1.0000
  H   H17       1.0  0.94931  0.99307  0.22767  1.0000
  H   H18       1.0  0.91076  0.02494  0.22336  1.0000
  N   N8        1.0  0.43156  0.21738  0.33928  1.0000
  C   C37       1.0  0.45423  0.25934  0.32256  1.0000
  C   C38       1.0  0.38919  0.19576  0.33652  1.0000
  C   C39       1.0  0.45406  0.19875  0.36392  1.0000
  C   C40       1.0  0.48362  0.21616  0.43164  1.0000
  C   C41       1.0  0.51609  0.20959  0.43295  1.0000
  C   C42       1.0  0.51860  0.18247  0.37300  1.0000
  C   C43       1.0  0.48651  0.16195  0.31171  1.0000
  C   C44       1.0  0.45541  0.17063  0.30568  1.0000
  C   C45       1.0  0.45099  0.28652  0.38043  1.0000
  C   C46       1.0  0.48161  0.32653  0.38529  1.0000
  C   C47       1.0  0.51788  0.34014  0.33808  1.0000
  C   C48       1.0  0.51933  0.31361  0.27428  1.0000
  C   C49       1.0  0.48758  0.27443  0.26434  1.0000
  C   C50       1.0  0.36629  0.19220  0.41392  1.0000
  C   C51       1.0  0.32436  0.17153  0.41007  1.0000
  C   C52       1.0  0.30391  0.15329  0.32893  1.0000
  C   C53       1.0  0.32703  0.15560  0.25265  1.0000
  C   C54       1.0  0.36894  0.17698  0.25598  1.0000
  H   H19       1.0  0.47796  0.34503  0.42816  1.0000
  H   H20       1.0  0.42762  0.27677  0.42427  1.0000
  H   H21       1.0  0.49164  0.25540  0.22384  1.0000
  H   H22       1.0  0.54485  0.32153  0.23883  1.0000
  H   H23       1.0  0.48498  0.23841  0.47128  1.0000
  H   H24       1.0  0.53971  0.22791  0.47262  1.0000
  H   H25       1.0  0.38014  0.20512  0.47348  1.0000
  H   H26       1.0  0.30879  0.17031  0.46703  1.0000
  H   H27       1.0  0.31348  0.14171  0.19355  1.0000
  H   H28       1.0  0.38473  0.17871  0.19910  1.0000
  H   H29       1.0  0.43557  0.15867  0.25358  1.0000
  H   H30       1.0  0.48701  0.14250  0.26575  1.0000
  N   N9        1.0  0.78833  0.21624  0.34311  1.0000
  C   C55       1.0  0.74665  0.19777  0.32158  1.0000
  C   C56       1.0  0.81029  0.19555  0.33868  1.0000
  C   C57       1.0  0.80636  0.25719  0.37080  1.0000
  C   C58       1.0  0.78785  0.26794  0.43889  1.0000
  C   C59       1.0  0.79380  0.30677  0.44315  1.0000
  C   C60       1.0  0.82143  0.33758  0.38623  1.0000
  C   C61       1.0  0.84326  0.32750  0.32545  1.0000
  C   C62       1.0  0.83503  0.28804  0.31598  1.0000
  C   C63       1.0  0.71770  0.16665  0.37533  1.0000
  C   C64       1.0  0.67788  0.15793  0.37611  1.0000
  C   C65       1.0  0.66600  0.18199  0.32910  1.0000
  C   C66       1.0  0.69411  0.21060  0.26864  1.0000
  C   C67       1.0  0.73323  0.21737  0.26259  1.0000
  C   C68       1.0  0.80512  0.16650  0.40327  1.0000
  C   C69       1.0  0.82573  0.14524  0.39634  1.0000
  C   C70       1.0  0.85453  0.15357  0.32780  1.0000
  C   C71       1.0  0.86148  0.18482  0.26759  1.0000
  C   C72       1.0  0.83877  0.20393  0.27017  1.0000
  H   H31       1.0  0.65820  0.13527  0.41640  1.0000
  H   H32       1.0  0.72565  0.15184  0.41983  1.0000
  H   H33       1.0  0.75335  0.24089  0.22463  1.0000
  H   H34       1.0  0.68733  0.22906  0.23319  1.0000
  H   H35       1.0  0.76529  0.24625  0.47640  1.0000
  H   H36       1.0  0.77487  0.31116  0.48283  1.0000
  H   H37       1.0  0.78610  0.16038  0.45632  1.0000
  H   H38       1.0  0.81928  0.12332  0.44278  1.0000
  H   H39       1.0  0.88367  0.19455  0.22089  1.0000
  H   H40       1.0  0.84354  0.22436  0.22123  1.0000
  H   H41       1.0  0.84784  0.28183  0.26312  1.0000
  H   H42       1.0  0.86317  0.34831  0.28153  1.0000
  N   N10       1.0  0.78811  0.57359  0.35450  1.0000
  C   C73       1.0  0.80680  0.55054  0.33467  1.0000
  C   C74       1.0  0.80919  0.61607  0.35191  1.0000
  C   C75       1.0  0.74689  0.55103  0.37937  1.0000
  C   C76       1.0  0.73477  0.52091  0.44574  1.0000
  C   C77       1.0  0.69565  0.48855  0.44676  1.0000
  C   C78       1.0  0.66587  0.48678  0.38839  1.0000
  C   C79       1.0  0.67735  0.51952  0.32922  1.0000
  C   C80       1.0  0.71720  0.55036  0.32293  1.0000
  C   C81       1.0  0.83734  0.55276  0.39062  1.0000
  C   C82       1.0  0.84614  0.52172  0.39259  1.0000
  C   C83       1.0  0.82269  0.48591  0.34449  1.0000
  C   C84       1.0  0.79471  0.48551  0.28216  1.0000
  C   C85       1.0  0.78797  0.51780  0.27483  1.0000
  C   C86       1.0  0.83405  0.63889  0.42396  1.0000
  C   C87       1.0  0.85586  0.68078  0.41961  1.0000
  C   C88       1.0  0.85268  0.70172  0.34439  1.0000
  C   C89       1.0  0.82585  0.67863  0.27502  1.0000
  C   C90       1.0  0.80548  0.63674  0.27736  1.0000
  H   H43       1.0  0.86831  0.52461  0.43446  1.0000
  H   H44       1.0  0.85154  0.57558  0.43547  1.0000
  H   H45       1.0  0.76480  0.51448  0.23560  1.0000
  H   H46       1.0  0.77665  0.46036  0.24598  1.0000
  H   H47       1.0  0.75570  0.51907  0.48420  1.0000
  H   H48       1.0  0.69030  0.46459  0.48520  1.0000
  H   H49       1.0  0.83665  0.62509  0.48026  1.0000
  H   H50       1.0  0.87443  0.69598  0.47224  1.0000
  H   H51       1.0  0.82044  0.69211  0.22202  1.0000
  H   H52       1.0  0.78770  0.62134  0.22399  1.0000
  H   H53       1.0  0.72474  0.57049  0.27172  1.0000
  H   H54       1.0  0.65734  0.51962  0.28436  1.0000
  C   C91       1.0  0.23951  0.09858  0.37865  1.0000
  C   C92       1.0  0.19772  0.07785  0.37954  1.0000
  H   H55       1.0  0.18347  0.05282  0.41865  1.0000
  H   H56       1.0  0.25405  0.08801  0.41752  1.0000
  C   C93       1.0  0.88862  0.12184  0.40224  1.0000
  C   C94       1.0  0.90865  0.10012  0.40166  1.0000
  H   H57       1.0  0.91525  0.09264  0.46306  1.0000
  H   H58       1.0  0.88301  0.12996  0.46396  1.0000
  C   C95       1.0  0.87397  0.76648  0.41556  1.0000
  C   C96       1.0  0.89626  0.80820  0.41782  1.0000
  H   H59       1.0  0.89450  0.82242  0.47453  1.0000
  H   H60       1.0  0.85661  0.75211  0.47048  1.0000
  C   C97       1.0  0.55421  0.17964  0.36736  1.0000
  C   C98       1.0  0.62809  0.17926  0.34516  1.0000
  C   C99       1.0  0.61262  0.17891  0.43336  1.0000
  C   C100      1.0  0.57553  0.17767  0.44419  1.0000
  N   N11       1.0  0.63431  0.18435  0.51469  1.0000
  N   N12       1.0  0.56011  0.17092  0.53381  1.0000
  O   O13       1.0  0.66929  0.21316  0.51565  1.0000
  O   O14       1.0  0.52433  0.14450  0.54319  1.0000
  O   O15       1.0  0.63155  0.15332  0.54750  1.0000
  O   O16       1.0  0.56904  0.20163  0.57888  1.0000
  C   C101      1.0  0.82384  0.37585  0.38179  1.0000
  C   C102      1.0  0.82531  0.45068  0.36061  1.0000
  C   C103      1.0  0.82450  0.43482  0.44861  1.0000
  C   C104      1.0  0.82517  0.39864  0.45901  1.0000
  N   N13       1.0  0.81862  0.45074  0.52990  1.0000
  N   N14       1.0  0.83059  0.38906  0.54881  1.0000
  O   O17       1.0  0.79001  0.45723  0.52969  1.0000
  O   O18       1.0  0.85699  0.37976  0.55937  1.0000
  O   O19       1.0  0.84955  0.47885  0.56352  1.0000
  O   O20       1.0  0.79915  0.36622  0.59040  1.0000
  C   C105      1.0  0.62730  0.45139  0.38166  1.0000
  C   C106      1.0  0.55267  0.37813  0.35637  1.0000
  C   C107      1.0  0.56793  0.39237  0.44518  1.0000
  C   C108      1.0  0.60396  0.42918  0.45762  1.0000
  N   N15       1.0  0.55148  0.36984  0.52536  1.0000
  N   N16       1.0  0.61280  0.44345  0.54813  1.0000
  O   O21       1.0  0.54530  0.33486  0.52391  1.0000
  O   O22       1.0  0.62245  0.47917  0.56014  1.0000
  O   O23       1.0  0.52298  0.37215  0.55832  1.0000
  O   O24       1.0  0.63462  0.43386  0.59098  1.0000
