data_image0
_chemical_formula_structural       C3NC3NC5NC5NC20H18N4C3NC3NC5NC5NC20H18N4C3NC3NC5NC5NC20H18N5C2HCHNC2HCHNC2HCHNC2HCHNC2HCHNC2HCHC8H8C8H8C8H8CNC2NCHCNC2NCHCNC2NCHCNC2NCHCNC2NCHCNC2NCH
_chemical_formula_sum              "C174 N42 H96"
_cell_length_a       50.3831
_cell_length_b       50.3832
_cell_length_c       14.8113
_cell_angle_alpha    90.0974
_cell_angle_beta     89.9026
_cell_angle_gamma    120

_space_group_name_H-M_alt    "P 1"
_space_group_IT_number       1

loop_
  _space_group_symop_operation_xyz
  'x, y, z'

loop_
  _atom_site_type_symbol
  _atom_site_label
  _atom_site_symmetry_multiplicity
  _atom_site_fract_x
  _atom_site_fract_y
  _atom_site_fract_z
  _atom_site_occupancy
  C   C1        1.0  0.05358  0.65479  0.32387  1.0000
  C   C2        1.0  0.02189  0.63900  0.32558  1.0000
  C   C3        1.0  0.01179  0.60764  0.32669  1.0000
  N   N1        1.0  0.03766  0.60563  0.32600  1.0000
  C   C4        1.0  0.06359  0.63345  0.32438  1.0000
  C   C5        1.0  0.09479  0.64079  0.32350  1.0000
  C   C6        1.0  0.10465  0.61883  0.32507  1.0000
  N   N2        1.0  0.08729  0.58791  0.32574  1.0000
  C   C7        1.0  0.10458  0.57427  0.32762  1.0000
  C   C8        1.0  0.13504  0.59805  0.32817  1.0000
  C   C9        1.0  0.13509  0.62542  0.32668  1.0000
  C   C10       1.0  0.09462  0.54243  0.32834  1.0000
  C   C11       1.0  0.06339  0.51865  0.32672  1.0000
  N   N3        1.0  0.03752  0.52066  0.32595  1.0000
  C   C12       1.0  0.01159  0.49283  0.32436  1.0000
  C   C13       1.0  0.02160  0.47150  0.32387  1.0000
  C   C14       1.0  0.05329  0.48729  0.32566  1.0000
  C   C15       1.0  0.98039  0.48549  0.32350  1.0000
  C   C16       1.0  0.97053  0.50745  0.32504  1.0000
  N   N4        1.0  0.98789  0.53837  0.32566  1.0000
  C   C17       1.0  0.97060  0.55201  0.32757  1.0000
  C   C18       1.0  0.94014  0.52823  0.32820  1.0000
  C   C19       1.0  0.94010  0.50086  0.32672  1.0000
  C   C20       1.0  0.98056  0.58386  0.32825  1.0000
  C   C21       1.0  0.95722  0.59208  0.32955  1.0000
  C   C22       1.0  0.90410  0.59866  0.33069  1.0000
  C   C23       1.0  0.91853  0.59867  0.24850  1.0000
  C   C24       1.0  0.94463  0.59526  0.24790  1.0000
  C   C25       1.0  0.95700  0.45395  0.32241  1.0000
  C   C26       1.0  0.90406  0.39411  0.32354  1.0000
  C   C27       1.0  0.91579  0.41026  0.24185  1.0000
  C   C28       1.0  0.94186  0.43979  0.24109  1.0000
  C   C29       1.0  0.11795  0.53419  0.32971  1.0000
  C   C30       1.0  0.13044  0.53072  0.24806  1.0000
  C   C31       1.0  0.15648  0.52721  0.24866  1.0000
  C   C32       1.0  0.17089  0.52731  0.33083  1.0000
  C   C33       1.0  0.11820  0.67232  0.32238  1.0000
  C   C34       1.0  0.13335  0.68644  0.24103  1.0000
  C   C35       1.0  0.17129  0.73205  0.32356  1.0000
  C   C36       1.0  0.15949  0.71593  0.24182  1.0000
  H   H1        1.0  0.17051  0.72517  0.18210  1.0000
  H   H2        1.0  0.12619  0.67485  0.18110  1.0000
  H   H3        1.0  0.06688  0.67813  0.32271  1.0000
  H   H4        1.0  0.00865  0.64911  0.32568  1.0000
  H   H5        1.0  0.03763  0.58656  0.32694  1.0000
  H   H6        1.0  0.03755  0.53973  0.32694  1.0000
  H   H7        1.0  0.15444  0.64652  0.32712  1.0000
  H   H8        1.0  0.15435  0.59623  0.32937  1.0000
  H   H9        1.0  0.12136  0.53189  0.18742  1.0000
  H   H10       1.0  0.16525  0.52544  0.18819  1.0000
  H   H11       1.0  0.06653  0.47718  0.32585  1.0000
  H   H12       1.0  0.00830  0.44815  0.32281  1.0000
  H   H13       1.0  0.92083  0.53004  0.32948  1.0000
  H   H14       1.0  0.92074  0.47976  0.32726  1.0000
  H   H15       1.0  0.94901  0.45137  0.18118  1.0000
  H   H16       1.0  0.90483  0.40095  0.18214  1.0000
  H   H17       1.0  0.95372  0.59401  0.18725  1.0000
  H   H18       1.0  0.90969  0.60022  0.18801  1.0000
  N   N5        1.0  0.87814  0.36705  0.31879  1.0000
  N   N6        1.0  0.19661  0.52587  0.33703  1.0000
  N   N7        1.0  0.19729  0.75904  0.31883  1.0000
  N   N8        1.0  0.87828  0.59993  0.33692  1.0000
  C   C37       1.0  0.44542  0.48643  0.32324  1.0000
  C   C38       1.0  0.46122  0.47054  0.32491  1.0000
  C   C39       1.0  0.49258  0.49180  0.32593  1.0000
  N   N9        1.0  0.49458  0.51967  0.32524  1.0000
  C   C40       1.0  0.46675  0.51777  0.32369  1.0000
  C   C41       1.0  0.45940  0.54163  0.32284  1.0000
  C   C42       1.0  0.48136  0.57346  0.32435  1.0000
  N   N10       1.0  0.51228  0.58702  0.32500  1.0000
  C   C43       1.0  0.52592  0.61795  0.32681  1.0000
  C   C44       1.0  0.50214  0.62463  0.32735  1.0000
  C   C45       1.0  0.47477  0.59730  0.32594  1.0000
  C   C46       1.0  0.55776  0.63984  0.32751  1.0000
  C   C47       1.0  0.58154  0.63239  0.32598  1.0000
  N   N11       1.0  0.57954  0.60452  0.32523  1.0000
  C   C48       1.0  0.60737  0.60642  0.32367  1.0000
  C   C49       1.0  0.62870  0.63777  0.32325  1.0000
  C   C50       1.0  0.61290  0.65365  0.32500  1.0000
  C   C51       1.0  0.61472  0.58256  0.32275  1.0000
  C   C52       1.0  0.59276  0.55074  0.32425  1.0000
  N   N12       1.0  0.56184  0.53717  0.32487  1.0000
  C   C53       1.0  0.54820  0.50625  0.32672  1.0000
  C   C54       1.0  0.57198  0.49957  0.32732  1.0000
  C   C55       1.0  0.59936  0.52690  0.32588  1.0000
  C   C56       1.0  0.51636  0.48435  0.32744  1.0000
  C   C57       1.0  0.50814  0.45280  0.32873  1.0000
  C   C58       1.0  0.50154  0.39309  0.32986  1.0000
  C   C59       1.0  0.50155  0.40744  0.24766  1.0000
  C   C60       1.0  0.50493  0.43694  0.24705  1.0000
  C   C61       1.0  0.64625  0.59071  0.32175  1.0000
  C   C62       1.0  0.70608  0.59758  0.32321  1.0000
  C   C63       1.0  0.68999  0.59312  0.24143  1.0000
  C   C64       1.0  0.66047  0.58968  0.24051  1.0000
  C   C65       1.0  0.56599  0.67140  0.32886  1.0000
  C   C66       1.0  0.56945  0.68728  0.24722  1.0000
  C   C67       1.0  0.57297  0.71684  0.24780  1.0000
  C   C68       1.0  0.57289  0.73124  0.32997  1.0000
  C   C69       1.0  0.42787  0.53350  0.32184  1.0000
  C   C70       1.0  0.41370  0.53441  0.24055  1.0000
  C   C71       1.0  0.36814  0.52685  0.32327  1.0000
  C   C72       1.0  0.38423  0.53111  0.24148  1.0000
  H   H19       1.0  0.37495  0.53277  0.18179  1.0000
  H   H20       1.0  0.42528  0.53880  0.18058  1.0000
  H   H21       1.0  0.42207  0.47638  0.32213  1.0000
  H   H22       1.0  0.45111  0.44718  0.32502  1.0000
  H   H23       1.0  0.51365  0.53872  0.32611  1.0000
  H   H24       1.0  0.56047  0.58547  0.32604  1.0000
  H   H25       1.0  0.45367  0.59555  0.32632  1.0000
  H   H26       1.0  0.50395  0.64575  0.32849  1.0000
  H   H27       1.0  0.56826  0.67696  0.18657  1.0000
  H   H28       1.0  0.57472  0.72730  0.18733  1.0000
  H   H29       1.0  0.62301  0.67701  0.32516  1.0000
  H   H30       1.0  0.65204  0.64781  0.32217  1.0000
  H   H31       1.0  0.57018  0.47845  0.32859  1.0000
  H   H32       1.0  0.62046  0.52865  0.32641  1.0000
  H   H33       1.0  0.64892  0.58520  0.18055  1.0000
  H   H34       1.0  0.69933  0.59142  0.18177  1.0000
  H   H35       1.0  0.50619  0.44723  0.18642  1.0000
  H   H36       1.0  0.49995  0.39697  0.18718  1.0000
  N   N13       1.0  0.73315  0.59872  0.31861  1.0000
  N   N14       1.0  0.57431  0.75839  0.33618  1.0000
  N   N15       1.0  0.34116  0.52588  0.31866  1.0000
  N   N16       1.0  0.50027  0.36601  0.33608  1.0000
  C   C73       1.0  0.61376  0.04663  0.32279  1.0000
  C   C74       1.0  0.62966  0.07832  0.32456  1.0000
  C   C75       1.0  0.60840  0.08842  0.32560  1.0000
  N   N17       1.0  0.58052  0.06255  0.32485  1.0000
  C   C76       1.0  0.58242  0.03662  0.32325  1.0000
  C   C77       1.0  0.55856  0.00542  0.32232  1.0000
  C   C78       1.0  0.52673  0.99556  0.32388  1.0000
  N   N18       1.0  0.51317  0.01292  0.32459  1.0000
  C   C79       1.0  0.48225  0.99564  0.32649  1.0000
  C   C80       1.0  0.47556  0.96518  0.32701  1.0000
  C   C81       1.0  0.50289  0.96513  0.32551  1.0000
  C   C82       1.0  0.46036  0.00560  0.32724  1.0000
  C   C83       1.0  0.46781  0.03682  0.32564  1.0000
  N   N19       1.0  0.49569  0.06269  0.32485  1.0000
  C   C84       1.0  0.49380  0.08862  0.32324  1.0000
  C   C85       1.0  0.46245  0.07861  0.32280  1.0000
  C   C86       1.0  0.44656  0.04693  0.32461  1.0000
  C   C87       1.0  0.51766  0.11982  0.32231  1.0000
  C   C88       1.0  0.54948  0.12969  0.32386  1.0000
  N   N20       1.0  0.56304  0.11233  0.32452  1.0000
  C   C89       1.0  0.59396  0.12961  0.32640  1.0000
  C   C90       1.0  0.60065  0.16007  0.32698  1.0000
  C   C91       1.0  0.57332  0.16012  0.32551  1.0000
  C   C92       1.0  0.61585  0.11965  0.32715  1.0000
  C   C93       1.0  0.64741  0.14299  0.32851  1.0000
  C   C94       1.0  0.70713  0.19609  0.32995  1.0000
  C   C95       1.0  0.69281  0.18171  0.24768  1.0000
  C   C96       1.0  0.66331  0.15559  0.24693  1.0000
  C   C97       1.0  0.50952  0.14322  0.32123  1.0000
  C   C98       1.0  0.50259  0.19614  0.32255  1.0000
  C   C99       1.0  0.50710  0.18444  0.24082  1.0000
  C   C100      1.0  0.51055  0.15836  0.23995  1.0000
  C   C101      1.0  0.42880  0.98227  0.32867  1.0000
  C   C102      1.0  0.41288  0.96972  0.24711  1.0000
  C   C103      1.0  0.38332  0.94370  0.24784  1.0000
  C   C104      1.0  0.36896  0.92933  0.33009  1.0000
  C   C105      1.0  0.56668  0.98201  0.32127  1.0000
  C   C106      1.0  0.56572  0.96683  0.23997  1.0000
  C   C107      1.0  0.57332  0.92892  0.32261  1.0000
  C   C108      1.0  0.56905  0.94068  0.24083  1.0000
  H   H37       1.0  0.56738  0.92968  0.18113  1.0000
  H   H38       1.0  0.56135  0.97398  0.18001  1.0000
  H   H39       1.0  0.62381  0.03333  0.32163  1.0000
  H   H40       1.0  0.65301  0.09156  0.32464  1.0000
  H   H41       1.0  0.56148  0.06258  0.32574  1.0000
  H   H42       1.0  0.51473  0.06266  0.32572  1.0000
  H   H43       1.0  0.50463  0.94577  0.32591  1.0000
  H   H44       1.0  0.45443  0.94587  0.32822  1.0000
  H   H45       1.0  0.42316  0.97880  0.18642  1.0000
  H   H46       1.0  0.37282  0.93490  0.18742  1.0000
  H   H47       1.0  0.42320  0.03369  0.32477  1.0000
  H   H48       1.0  0.45241  0.09191  0.32168  1.0000
  H   H49       1.0  0.62177  0.17938  0.32823  1.0000
  H   H50       1.0  0.57158  0.17947  0.32596  1.0000
  H   H51       1.0  0.51509  0.15126  0.18003  1.0000
  H   H52       1.0  0.50885  0.19544  0.18115  1.0000
  H   H53       1.0  0.65305  0.14653  0.18625  1.0000
  H   H54       1.0  0.70331  0.19054  0.18726  1.0000
  N   N21       1.0  0.50146  0.22206  0.31790  1.0000
  N   N22       1.0  0.34181  0.90360  0.33643  1.0000
  N   N23       1.0  0.57428  0.90290  0.31795  1.0000
  N   N24       1.0  0.73420  0.22191  0.33632  1.0000
  N   N25       1.0  0.28822  0.52551  0.26816  1.0000
  C   C109      1.0  0.26303  0.52627  0.23941  1.0000
  C   C110      1.0  0.24163  0.52499  0.30353  1.0000
  H   H55       1.0  0.26010  0.52790  0.17177  1.0000
  C   C111      1.0  0.21566  0.52611  0.27849  1.0000
  H   H56       1.0  0.21214  0.52779  0.21334  1.0000
  N   N26       1.0  0.57466  0.85029  0.26738  1.0000
  C   C112      1.0  0.57392  0.82432  0.23861  1.0000
  C   C113      1.0  0.57520  0.80426  0.30270  1.0000
  H   H57       1.0  0.57231  0.81971  0.17096  1.0000
  C   C114      1.0  0.57411  0.77716  0.27764  1.0000
  H   H58       1.0  0.57248  0.77193  0.21247  1.0000
  N   N27       1.0  0.24990  0.81194  0.26807  1.0000
  C   C115      1.0  0.27584  0.83714  0.23918  1.0000
  C   C116      1.0  0.29593  0.85857  0.30317  1.0000
  H   H59       1.0  0.28043  0.84005  0.17150  1.0000
  C   C117      1.0  0.32301  0.88454  0.27798  1.0000
  H   H60       1.0  0.32822  0.88806  0.21280  1.0000
  N   N28       1.0  0.78628  0.59939  0.26811  1.0000
  C   C118      1.0  0.81158  0.59878  0.23935  1.0000
  C   C119      1.0  0.83306  0.60037  0.30344  1.0000
  H   H61       1.0  0.81453  0.59704  0.17173  1.0000
  C   C120      1.0  0.85914  0.59941  0.27840  1.0000
  H   H62       1.0  0.86266  0.59758  0.21328  1.0000
  N   N29       1.0  0.50078  0.27447  0.26732  1.0000
  C   C121      1.0  0.50140  0.30035  0.23855  1.0000
  C   C122      1.0  0.49982  0.32032  0.30262  1.0000
  H   H63       1.0  0.50314  0.30497  0.17092  1.0000
  C   C123      1.0  0.50079  0.34733  0.27757  1.0000
  H   H64       1.0  0.50261  0.35261  0.21244  1.0000
  N   N30       1.0  0.82574  0.31395  0.26800  1.0000
  C   C124      1.0  0.79989  0.28866  0.23911  1.0000
  C   C125      1.0  0.77990  0.26714  0.30309  1.0000
  H   H65       1.0  0.79529  0.28574  0.17147  1.0000
  C   C126      1.0  0.75291  0.24106  0.27790  1.0000
  H   H66       1.0  0.74766  0.23758  0.21275  1.0000
  C   C127      1.0  0.94331  0.59275  0.41181  1.0000
  C   C128      1.0  0.91719  0.59613  0.41217  1.0000
  C   C129      1.0  0.94570  0.43774  0.40419  1.0000
  C   C130      1.0  0.91966  0.40820  0.40469  1.0000
  C   C131      1.0  0.15789  0.53014  0.41229  1.0000
  C   C132      1.0  0.13185  0.53366  0.41194  1.0000
  C   C133      1.0  0.12952  0.68854  0.40421  1.0000
  C   C134      1.0  0.15563  0.71804  0.40472  1.0000
  H   H67       1.0  0.16358  0.72866  0.46551  1.0000
  H   H68       1.0  0.11955  0.67850  0.46438  1.0000
  H   H69       1.0  0.12380  0.53698  0.47192  1.0000
  H   H70       1.0  0.16793  0.53065  0.47282  1.0000
  H   H71       1.0  0.95567  0.44779  0.46434  1.0000
  H   H72       1.0  0.91176  0.39755  0.46544  1.0000
  H   H73       1.0  0.90711  0.59565  0.47270  1.0000
  H   H74       1.0  0.95138  0.58957  0.47181  1.0000
  C   C135      1.0  0.50746  0.43830  0.41100  1.0000
  C   C136      1.0  0.50410  0.40881  0.41134  1.0000
  C   C137      1.0  0.66243  0.59569  0.40363  1.0000
  C   C138      1.0  0.69196  0.59918  0.40428  1.0000
  C   C139      1.0  0.57007  0.71549  0.41144  1.0000
  C   C140      1.0  0.56654  0.68593  0.41110  1.0000
  C   C141      1.0  0.41169  0.52871  0.40374  1.0000
  C   C142      1.0  0.38220  0.52532  0.40438  1.0000
  H   H75       1.0  0.37161  0.52275  0.46521  1.0000
  H   H76       1.0  0.42177  0.52887  0.46387  1.0000
  H   H77       1.0  0.56320  0.67461  0.47108  1.0000
  H   H78       1.0  0.56954  0.72507  0.47196  1.0000
  H   H79       1.0  0.65232  0.59561  0.46373  1.0000
  H   H80       1.0  0.70255  0.60192  0.46510  1.0000
  H   H81       1.0  0.50454  0.39926  0.47187  1.0000
  H   H82       1.0  0.51066  0.44963  0.47099  1.0000
  C   C143      1.0  0.66186  0.15687  0.41085  1.0000
  C   C144      1.0  0.69137  0.18298  0.41136  1.0000
  C   C145      1.0  0.50451  0.15448  0.40307  1.0000
  C   C146      1.0  0.50096  0.18050  0.40365  1.0000
  C   C147      1.0  0.38474  0.94237  0.41148  1.0000
  C   C148      1.0  0.41431  0.96839  0.41098  1.0000
  C   C149      1.0  0.57150  0.97071  0.40313  1.0000
  C   C150      1.0  0.57485  0.94458  0.40373  1.0000
  H   H83       1.0  0.57748  0.93666  0.46454  1.0000
  H   H84       1.0  0.57135  0.98069  0.46328  1.0000
  H   H85       1.0  0.42565  0.97646  0.47091  1.0000
  H   H86       1.0  0.37521  0.93233  0.47204  1.0000
  H   H87       1.0  0.50453  0.14449  0.46319  1.0000
  H   H88       1.0  0.49819  0.18840  0.46444  1.0000
  H   H89       1.0  0.70088  0.19302  0.47194  1.0000
  H   H90       1.0  0.65051  0.14877  0.47080  1.0000
  C   C151      1.0  0.29456  0.52348  0.35646  1.0000
  N   N31       1.0  0.24789  0.52301  0.39180  1.0000
  C   C152      1.0  0.27300  0.52215  0.42110  1.0000
  C   C153      1.0  0.27553  0.52036  0.50805  1.0000
  N   N32       1.0  0.27785  0.51880  0.58471  1.0000
  C   C154      1.0  0.32132  0.52315  0.37838  1.0000
  H   H91       1.0  0.32545  0.52124  0.44276  1.0000
  C   C155      1.0  0.57669  0.85875  0.35570  1.0000
  N   N33       1.0  0.57716  0.81257  0.39098  1.0000
  C   C156      1.0  0.57801  0.83856  0.42031  1.0000
  C   C157      1.0  0.57979  0.84296  0.50727  1.0000
  N   N34       1.0  0.58135  0.84691  0.58393  1.0000
  C   C158      1.0  0.57700  0.88585  0.37764  1.0000
  H   H92       1.0  0.57890  0.89193  0.44203  1.0000
  C   C159      1.0  0.24148  0.80562  0.35642  1.0000
  N   N35       1.0  0.28766  0.85233  0.39149  1.0000
  C   C160      1.0  0.26169  0.82722  0.42094  1.0000
  C   C161      1.0  0.25734  0.82472  0.50792  1.0000
  N   N36       1.0  0.25342  0.82243  0.58460  1.0000
  C   C162      1.0  0.21441  0.77885  0.37849  1.0000
  H   H93       1.0  0.20841  0.77468  0.44293  1.0000
  C   C163      1.0  0.77990  0.60154  0.35639  1.0000
  N   N37       1.0  0.82676  0.60246  0.39169  1.0000
  C   C164      1.0  0.80154  0.60318  0.42100  1.0000
  C   C165      1.0  0.79899  0.60512  0.50792  1.0000
  N   N38       1.0  0.79665  0.60681  0.58456  1.0000
  C   C166      1.0  0.75303  0.60170  0.37830  1.0000
  H   H94       1.0  0.74888  0.60371  0.44265  1.0000
  C   C167      1.0  0.49861  0.26602  0.35561  1.0000
  N   N39       1.0  0.49771  0.31202  0.39087  1.0000
  C   C168      1.0  0.49699  0.28611  0.42020  1.0000
  C   C169      1.0  0.49504  0.28171  0.50713  1.0000
  N   N40       1.0  0.49333  0.27774  0.58377  1.0000
  C   C170      1.0  0.49843  0.23901  0.37755  1.0000
  H   H95       1.0  0.49639  0.23290  0.44189  1.0000
  C   C171      1.0  0.83416  0.32029  0.35633  1.0000
  N   N41       1.0  0.78817  0.27339  0.39138  1.0000
  C   C172      1.0  0.81405  0.29861  0.42082  1.0000
  C   C173      1.0  0.81842  0.30111  0.50777  1.0000
  N   N42       1.0  0.82236  0.30341  0.58442  1.0000
  C   C174      1.0  0.86114  0.34715  0.37839  1.0000
  H   H96       1.0  0.86719  0.35129  0.44278  1.0000
