data_image0
_chemical_formula_structural       C3NC3NC5NC5NC20H18C4H4C3NC3NC5NC5NC20H18C4H4C3NC3NC5NC5NC20H18C4H4NC2HN2C2HN2C2HN2C2HN2C2HN2C2HNC8H8C8H8C8H8CNC2N2CNC2N2CNC2N2CNC2N2CNC2N2CNC2N2
_chemical_formula_sum              "C174 N42 H96"
_cell_length_a       50.4852
_cell_length_b       50.4852
_cell_length_c       14.7728
_cell_angle_alpha    90.016
_cell_angle_beta     89.984
_cell_angle_gamma    120

_space_group_name_H-M_alt    "P 1"
_space_group_IT_number       1

loop_
  _space_group_symop_operation_xyz
  'x, y, z'

loop_
  _atom_site_type_symbol
  _atom_site_label
  _atom_site_symmetry_multiplicity
  _atom_site_fract_x
  _atom_site_fract_y
  _atom_site_fract_z
  _atom_site_occupancy
  C   C1        1.0  0.02374  0.63961  0.33901  1.0000
  C   C2        1.0  0.05538  0.65551  0.33925  1.0000
  C   C3        1.0  0.06555  0.63436  0.33819  1.0000
  N   N1        1.0  0.03971  0.60651  0.33838  1.0000
  C   C4        1.0  0.01376  0.60833  0.33792  1.0000
  C   C5        1.0  0.98258  0.58454  0.33559  1.0000
  C   C6        1.0  0.97277  0.55276  0.33492  1.0000
  N   N2        1.0  0.99002  0.53917  0.33942  1.0000
  C   C7        1.0  0.97284  0.50830  0.33514  1.0000
  C   C8        1.0  0.94255  0.50171  0.32770  1.0000
  C   C9        1.0  0.94250  0.52899  0.32777  1.0000
  C   C10       1.0  0.98277  0.48642  0.33608  1.0000
  C   C11       1.0  0.01402  0.49402  0.33826  1.0000
  N   N3        1.0  0.03987  0.52186  0.33850  1.0000
  C   C12       1.0  0.06581  0.52004  0.33802  1.0000
  C   C13       1.0  0.05583  0.48876  0.33933  1.0000
  C   C14       1.0  0.02420  0.47287  0.33953  1.0000
  C   C15       1.0  0.09699  0.54383  0.33552  1.0000
  C   C16       1.0  0.10680  0.57561  0.33500  1.0000
  N   N4        1.0  0.08955  0.58921  0.33952  1.0000
  C   C17       1.0  0.10674  0.62007  0.33533  1.0000
  C   C18       1.0  0.13703  0.62666  0.32791  1.0000
  C   C19       1.0  0.13707  0.59938  0.32783  1.0000
  C   C20       1.0  0.09681  0.64196  0.33611  1.0000
  C   C21       1.0  0.12000  0.67349  0.32877  1.0000
  C   C22       1.0  0.17158  0.73384  0.30647  1.0000
  C   C23       1.0  0.15210  0.71779  0.23282  1.0000
  C   C24       1.0  0.12689  0.68810  0.24352  1.0000
  C   C25       1.0  0.12029  0.53566  0.32821  1.0000
  C   C26       1.0  0.17262  0.52807  0.30751  1.0000
  C   C27       1.0  0.15431  0.52617  0.23227  1.0000
  C   C28       1.0  0.12869  0.53002  0.24224  1.0000
  C   C29       1.0  0.95959  0.45488  0.32865  1.0000
  C   C30       1.0  0.95277  0.44027  0.24339  1.0000
  C   C31       1.0  0.92761  0.41056  0.23266  1.0000
  C   C32       1.0  0.90815  0.39446  0.30631  1.0000
  C   C33       1.0  0.95927  0.59270  0.32831  1.0000
  C   C34       1.0  0.95093  0.59844  0.24242  1.0000
  C   C35       1.0  0.90687  0.60017  0.30771  1.0000
  C   C36       1.0  0.92528  0.60224  0.23251  1.0000
  H   H1        1.0  0.91965  0.60564  0.16866  1.0000
  H   H2        1.0  0.96286  0.59883  0.18590  1.0000
  H   H3        1.0  0.01045  0.64962  0.33902  1.0000
  H   H4        1.0  0.06854  0.67882  0.33949  1.0000
  H   H5        1.0  0.03976  0.58751  0.33634  1.0000
  H   H6        1.0  0.03982  0.54086  0.33575  1.0000
  H   H7        1.0  0.92329  0.53077  0.32137  1.0000
  H   H8        1.0  0.92338  0.48070  0.32135  1.0000
  H   H9        1.0  0.96555  0.45155  0.18777  1.0000
  H   H10       1.0  0.92318  0.40109  0.16924  1.0000
  H   H11       1.0  0.01103  0.44956  0.33976  1.0000
  H   H12       1.0  0.06913  0.47876  0.33924  1.0000
  H   H13       1.0  0.15620  0.64766  0.32129  1.0000
  H   H14       1.0  0.15628  0.59759  0.32124  1.0000
  H   H15       1.0  0.11680  0.52970  0.18571  1.0000
  H   H16       1.0  0.15995  0.52280  0.16839  1.0000
  H   H17       1.0  0.11410  0.67685  0.18788  1.0000
  H   H18       1.0  0.15658  0.72724  0.16940  1.0000
  C   C37       1.0  0.19874  0.52560  0.29394  1.0000
  C   C38       1.0  0.88276  0.36543  0.29185  1.0000
  C   C39       1.0  0.88070  0.60255  0.29416  1.0000
  C   C40       1.0  0.19706  0.76281  0.29202  1.0000
  H   H19       1.0  0.20255  0.52024  0.23227  1.0000
  H   H20       1.0  0.88145  0.35504  0.23344  1.0000
  H   H21       1.0  0.87694  0.60800  0.23258  1.0000
  H   H22       1.0  0.19842  0.77322  0.23362  1.0000
  C   C41       1.0  0.46396  0.47193  0.33945  1.0000
  C   C42       1.0  0.44806  0.48767  0.33967  1.0000
  C   C43       1.0  0.46922  0.51899  0.33825  1.0000
  N   N5        1.0  0.49706  0.52099  0.33846  1.0000
  C   C44       1.0  0.49524  0.49322  0.33807  1.0000
  C   C45       1.0  0.51902  0.48583  0.33548  1.0000
  C   C46       1.0  0.55080  0.50779  0.33472  1.0000
  N   N6        1.0  0.56440  0.53864  0.33925  1.0000
  C   C47       1.0  0.59527  0.55232  0.33489  1.0000
  C   C48       1.0  0.60185  0.52862  0.32736  1.0000
  C   C49       1.0  0.57456  0.50129  0.32735  1.0000
  C   C50       1.0  0.61715  0.58413  0.33583  1.0000
  C   C51       1.0  0.60956  0.60779  0.33812  1.0000
  N   N7        1.0  0.58172  0.60579  0.33836  1.0000
  C   C52       1.0  0.58355  0.63356  0.33797  1.0000
  C   C53       1.0  0.61482  0.65485  0.33921  1.0000
  C   C54       1.0  0.63072  0.63911  0.33945  1.0000
  C   C55       1.0  0.55976  0.64096  0.33555  1.0000
  C   C56       1.0  0.52798  0.61899  0.33474  1.0000
  N   N8        1.0  0.51438  0.58814  0.33923  1.0000
  C   C57       1.0  0.48351  0.57446  0.33493  1.0000
  C   C58       1.0  0.47693  0.59817  0.32745  1.0000
  C   C59       1.0  0.50422  0.62550  0.32749  1.0000
  C   C60       1.0  0.46163  0.54266  0.33588  1.0000
  C   C61       1.0  0.43009  0.53431  0.32854  1.0000
  C   C62       1.0  0.36973  0.52550  0.30638  1.0000
  C   C63       1.0  0.38577  0.52206  0.23270  1.0000
  C   C64       1.0  0.41545  0.52652  0.24335  1.0000
  C   C65       1.0  0.56794  0.67242  0.32817  1.0000
  C   C66       1.0  0.57554  0.73235  0.30744  1.0000
  C   C67       1.0  0.57742  0.71591  0.23221  1.0000
  C   C68       1.0  0.57354  0.68643  0.24218  1.0000
  C   C69       1.0  0.64869  0.59248  0.32844  1.0000
  C   C70       1.0  0.66334  0.60031  0.24325  1.0000
  C   C71       1.0  0.69306  0.60488  0.23260  1.0000
  C   C72       1.0  0.70913  0.60149  0.30626  1.0000
  C   C73       1.0  0.51085  0.45436  0.32822  1.0000
  C   C74       1.0  0.50512  0.44026  0.24233  1.0000
  C   C75       1.0  0.50342  0.39449  0.30759  1.0000
  C   C76       1.0  0.50134  0.41082  0.23240  1.0000
  H   H23       1.0  0.49794  0.40178  0.16855  1.0000
  H   H24       1.0  0.50471  0.45178  0.18581  1.0000
  H   H25       1.0  0.45394  0.44863  0.33932  1.0000
  H   H26       1.0  0.42475  0.47753  0.33972  1.0000
  H   H27       1.0  0.51606  0.54003  0.33556  1.0000
  H   H28       1.0  0.56272  0.58675  0.33590  1.0000
  H   H29       1.0  0.57279  0.48030  0.32104  1.0000
  H   H30       1.0  0.62286  0.53045  0.32096  1.0000
  H   H31       1.0  0.65209  0.60186  0.18764  1.0000
  H   H32       1.0  0.70257  0.60997  0.16924  1.0000
  H   H33       1.0  0.65403  0.64925  0.33952  1.0000
  H   H34       1.0  0.62484  0.67815  0.33917  1.0000
  H   H35       1.0  0.45593  0.59634  0.32121  1.0000
  H   H36       1.0  0.50600  0.64649  0.32135  1.0000
  H   H37       1.0  0.57384  0.67484  0.18565  1.0000
  H   H38       1.0  0.58075  0.72489  0.16830  1.0000
  H   H39       1.0  0.42670  0.52499  0.18768  1.0000
  H   H40       1.0  0.37629  0.51704  0.16931  1.0000
  C   C77       1.0  0.57805  0.76095  0.29386  1.0000
  C   C78       1.0  0.73816  0.60513  0.29187  1.0000
  C   C79       1.0  0.50106  0.36594  0.29403  1.0000
  C   C80       1.0  0.34076  0.52201  0.29198  1.0000
  H   H41       1.0  0.58342  0.77010  0.23220  1.0000
  H   H42       1.0  0.74858  0.61424  0.23353  1.0000
  H   H43       1.0  0.49561  0.35672  0.23246  1.0000
  H   H44       1.0  0.33033  0.51294  0.23361  1.0000
  C   C81       1.0  0.63166  0.07982  0.33900  1.0000
  C   C82       1.0  0.61592  0.04819  0.33926  1.0000
  C   C83       1.0  0.58460  0.03801  0.33803  1.0000
  N   N9        1.0  0.58260  0.06386  0.33828  1.0000
  C   C84       1.0  0.61036  0.08980  0.33789  1.0000
  C   C85       1.0  0.61775  0.12098  0.33556  1.0000
  C   C86       1.0  0.59579  0.13080  0.33489  1.0000
  N   N10       1.0  0.56493  0.11354  0.33934  1.0000
  C   C87       1.0  0.55125  0.13073  0.33516  1.0000
  C   C88       1.0  0.57496  0.16102  0.32773  1.0000
  C   C89       1.0  0.60229  0.16106  0.32769  1.0000
  C   C90       1.0  0.51945  0.12080  0.33602  1.0000
  C   C91       1.0  0.49579  0.08955  0.33805  1.0000
  N   N11       1.0  0.49779  0.06370  0.33828  1.0000
  C   C92       1.0  0.47002  0.03776  0.33774  1.0000
  C   C93       1.0  0.44872  0.04774  0.33877  1.0000
  C   C94       1.0  0.46446  0.07937  0.33904  1.0000
  C   C95       1.0  0.46263  0.00657  0.33540  1.0000
  C   C96       1.0  0.48460  0.99676  0.33468  1.0000
  N   N12       1.0  0.51545  0.01402  0.33908  1.0000
  C   C97       1.0  0.52913  0.99683  0.33488  1.0000
  C   C98       1.0  0.50543  0.96654  0.32753  1.0000
  C   C99       1.0  0.47810  0.96649  0.32758  1.0000
  C   C100      1.0  0.56094  0.00676  0.33583  1.0000
  C   C101      1.0  0.56929  0.98357  0.32846  1.0000
  C   C102      1.0  0.57812  0.93202  0.30631  1.0000
  C   C103      1.0  0.58152  0.95147  0.23260  1.0000
  C   C104      1.0  0.57703  0.97668  0.24324  1.0000
  C   C105      1.0  0.43117  0.98327  0.32800  1.0000
  C   C106      1.0  0.37124  0.93096  0.30738  1.0000
  C   C107      1.0  0.38768  0.94924  0.23210  1.0000
  C   C108      1.0  0.41715  0.97487  0.24204  1.0000
  C   C109      1.0  0.51109  0.14398  0.32853  1.0000
  C   C110      1.0  0.50335  0.15083  0.24327  1.0000
  C   C111      1.0  0.49877  0.17597  0.23255  1.0000
  C   C112      1.0  0.50212  0.19543  0.30621  1.0000
  C   C113      1.0  0.64922  0.14429  0.32825  1.0000
  C   C114      1.0  0.66331  0.15264  0.24234  1.0000
  C   C115      1.0  0.70910  0.19670  0.30762  1.0000
  C   C116      1.0  0.69275  0.17830  0.23241  1.0000
  H   H45       1.0  0.70179  0.18392  0.16856  1.0000
  H   H46       1.0  0.65177  0.14071  0.18582  1.0000
  H   H47       1.0  0.65496  0.09311  0.33902  1.0000
  H   H48       1.0  0.62607  0.03502  0.33933  1.0000
  H   H49       1.0  0.56355  0.06381  0.33593  1.0000
  H   H50       1.0  0.51684  0.06375  0.33633  1.0000
  H   H51       1.0  0.62328  0.18028  0.32145  1.0000
  H   H52       1.0  0.57312  0.18020  0.32144  1.0000
  H   H53       1.0  0.50184  0.13804  0.18765  1.0000
  H   H54       1.0  0.49376  0.18041  0.16913  1.0000
  H   H55       1.0  0.45431  0.09253  0.33914  1.0000
  H   H56       1.0  0.42542  0.03444  0.33861  1.0000
  H   H57       1.0  0.50725  0.94735  0.32150  1.0000
  H   H58       1.0  0.45710  0.94727  0.32157  1.0000
  H   H59       1.0  0.42875  0.98671  0.18548  1.0000
  H   H60       1.0  0.37869  0.94357  0.16821  1.0000
  H   H61       1.0  0.57856  0.98945  0.18758  1.0000
  H   H62       1.0  0.58653  0.94699  0.16921  1.0000
  C   C117      1.0  0.34265  0.90484  0.29383  1.0000
  C   C118      1.0  0.49848  0.22082  0.29177  1.0000
  C   C119      1.0  0.73764  0.22287  0.29406  1.0000
  C   C120      1.0  0.58165  0.90657  0.29194  1.0000
  H   H63       1.0  0.33351  0.90102  0.23215  1.0000
  H   H64       1.0  0.48942  0.22214  0.23335  1.0000
  H   H65       1.0  0.74687  0.22663  0.23249  1.0000
  H   H66       1.0  0.59079  0.90524  0.23367  1.0000
  N   N13       1.0  0.25642  0.52653  0.27404  1.0000
  C   C121      1.0  0.28305  0.52615  0.26713  1.0000
  C   C122      1.0  0.30022  0.52950  0.34619  1.0000
  H   H67       1.0  0.29035  0.52389  0.20470  1.0000
  N   N14       1.0  0.32707  0.53035  0.34928  1.0000
  N   N15       1.0  0.57712  0.81770  0.27394  1.0000
  C   C123      1.0  0.57752  0.84472  0.26705  1.0000
  C   C124      1.0  0.57415  0.85854  0.34611  1.0000
  H   H68       1.0  0.57976  0.85426  0.20462  1.0000
  N   N16       1.0  0.57327  0.88452  0.34918  1.0000
  N   N17       1.0  0.28591  0.84717  0.27399  1.0000
  C   C125      1.0  0.25890  0.82053  0.26712  1.0000
  C   C126      1.0  0.24508  0.80335  0.34618  1.0000
  H   H69       1.0  0.24935  0.81322  0.20469  1.0000
  N   N18       1.0  0.21908  0.77651  0.34930  1.0000
  N   N19       1.0  0.82285  0.60124  0.27410  1.0000
  C   C127      1.0  0.79614  0.60147  0.26715  1.0000
  C   C128      1.0  0.77885  0.59791  0.34613  1.0000
  H   H70       1.0  0.78887  0.60377  0.20473  1.0000
  N   N20       1.0  0.75194  0.59690  0.34918  1.0000
  N   N21       1.0  0.50238  0.30940  0.27398  1.0000
  C   C129      1.0  0.50214  0.28246  0.26705  1.0000
  C   C130      1.0  0.50565  0.26872  0.34606  1.0000
  H   H71       1.0  0.49990  0.27291  0.20461  1.0000
  N   N22       1.0  0.50666  0.24281  0.34912  1.0000
  N   N23       1.0  0.79419  0.28073  0.27403  1.0000
  C   C131      1.0  0.82113  0.30744  0.26711  1.0000
  C   C132      1.0  0.83486  0.32470  0.34611  1.0000
  H   H72       1.0  0.83069  0.31473  0.20468  1.0000
  N   N24       1.0  0.86076  0.35162  0.34918  1.0000
  C   C133      1.0  0.13895  0.68951  0.40306  1.0000
  C   C134      1.0  0.16429  0.71918  0.39209  1.0000
  C   C135      1.0  0.13805  0.53708  0.40397  1.0000
  C   C136      1.0  0.16373  0.53327  0.39378  1.0000
  C   C137      1.0  0.91538  0.40912  0.39192  1.0000
  C   C138      1.0  0.94064  0.43884  0.40292  1.0000
  C   C139      1.0  0.94145  0.59117  0.40408  1.0000
  C   C140      1.0  0.91574  0.59493  0.39393  1.0000
  H   H73       1.0  0.90307  0.59300  0.45023  1.0000
  H   H74       1.0  0.94647  0.58623  0.46679  1.0000
  H   H75       1.0  0.94461  0.44910  0.46508  1.0000
  H   H76       1.0  0.90197  0.39851  0.44710  1.0000
  H   H77       1.0  0.13299  0.54194  0.46674  1.0000
  H   H78       1.0  0.17632  0.53506  0.45012  1.0000
  H   H79       1.0  0.17772  0.72976  0.44725  1.0000
  H   H80       1.0  0.13497  0.67924  0.46519  1.0000
  C   C141      1.0  0.41410  0.53726  0.40288  1.0000
  C   C142      1.0  0.38441  0.53291  0.39196  1.0000
  C   C143      1.0  0.56654  0.68879  0.40393  1.0000
  C   C144      1.0  0.57037  0.71829  0.39373  1.0000
  C   C145      1.0  0.69443  0.59402  0.39182  1.0000
  C   C146      1.0  0.66470  0.58956  0.40276  1.0000
  C   C147      1.0  0.51243  0.43809  0.40395  1.0000
  C   C148      1.0  0.50867  0.40862  0.39381  1.0000
  H   H81       1.0  0.51061  0.39790  0.45011  1.0000
  H   H82       1.0  0.51734  0.44804  0.46667  1.0000
  H   H83       1.0  0.65441  0.58323  0.46486  1.0000
  H   H84       1.0  0.70501  0.59119  0.44700  1.0000
  H   H85       1.0  0.56173  0.67890  0.46673  1.0000
  H   H86       1.0  0.56861  0.72911  0.45007  1.0000
  H   H87       1.0  0.37385  0.53578  0.44715  1.0000
  H   H88       1.0  0.42439  0.54358  0.46498  1.0000
  C   C149      1.0  0.56639  0.96466  0.40282  1.0000
  C   C150      1.0  0.57075  0.93934  0.39191  1.0000
  C   C151      1.0  0.41480  0.96555  0.40381  1.0000
  C   C152      1.0  0.38529  0.93989  0.39366  1.0000
  C   C153      1.0  0.50951  0.18818  0.39184  1.0000
  C   C154      1.0  0.51397  0.16292  0.40282  1.0000
  C   C155      1.0  0.66551  0.16211  0.40401  1.0000
  C   C156      1.0  0.69497  0.18784  0.39384  1.0000
  H   H89       1.0  0.70571  0.20048  0.45015  1.0000
  H   H90       1.0  0.65555  0.15709  0.46672  1.0000
  H   H91       1.0  0.52024  0.15895  0.46499  1.0000
  H   H92       1.0  0.51230  0.20159  0.44701  1.0000
  H   H93       1.0  0.42470  0.97064  0.46660  1.0000
  H   H94       1.0  0.37449  0.92732  0.45001  1.0000
  H   H95       1.0  0.56792  0.92594  0.44713  1.0000
  H   H96       1.0  0.56010  0.96866  0.46496  1.0000
  C   C157      1.0  0.24474  0.52989  0.35363  1.0000
  N   N25       1.0  0.28879  0.53324  0.42546  1.0000
  C   C158      1.0  0.26206  0.53353  0.43286  1.0000
  C   C159      1.0  0.25372  0.53712  0.51313  1.0000
  N   N26       1.0  0.24629  0.54021  0.58397  1.0000
  N   N27       1.0  0.21858  0.53058  0.35622  1.0000
  C   C160      1.0  0.57374  0.80266  0.35353  1.0000
  N   N28       1.0  0.57037  0.84336  0.42536  1.0000
  C   C161      1.0  0.57008  0.81634  0.43274  1.0000
  C   C162      1.0  0.56646  0.80442  0.51301  1.0000
  N   N29       1.0  0.56334  0.79389  0.58383  1.0000
  N   N30       1.0  0.57304  0.77581  0.35612  1.0000
  C   C163      1.0  0.30094  0.85885  0.35357  1.0000
  N   N31       1.0  0.26024  0.81480  0.42544  1.0000
  C   C164      1.0  0.28726  0.84154  0.43281  1.0000
  C   C165      1.0  0.29917  0.84988  0.51307  1.0000
  N   N32       1.0  0.30969  0.85732  0.58390  1.0000
  N   N33       1.0  0.32779  0.88501  0.35614  1.0000
  C   C166      1.0  0.83450  0.59785  0.35367  1.0000
  N   N34       1.0  0.79027  0.59414  0.42538  1.0000
  C   C167      1.0  0.81707  0.59401  0.43282  1.0000
  C   C168      1.0  0.82537  0.59037  0.51306  1.0000
  N   N35       1.0  0.83278  0.58724  0.58388  1.0000
  N   N36       1.0  0.86074  0.59731  0.35630  1.0000
  C   C169      1.0  0.50572  0.32444  0.35357  1.0000
  N   N37       1.0  0.50937  0.28389  0.42531  1.0000
  C   C170      1.0  0.50951  0.31084  0.43274  1.0000
  C   C171      1.0  0.51311  0.32277  0.51300  1.0000
  N   N38       1.0  0.51621  0.33331  0.58382  1.0000
  N   N39       1.0  0.50627  0.35121  0.35619  1.0000
  C   C172      1.0  0.77915  0.26905  0.35361  1.0000
  N   N40       1.0  0.81967  0.31327  0.42536  1.0000
  C   C173      1.0  0.79273  0.28646  0.43278  1.0000
  C   C174      1.0  0.78079  0.27815  0.51302  1.0000
  N   N41       1.0  0.77024  0.27073  0.58384  1.0000
  N   N42       1.0  0.75237  0.24282  0.35621  1.0000
