data_image0
_chemical_formula_structural       C2NC2O2HC2NC2O2HC2NC2O2HC2NC2O2HC2NC2O2HC2NC2O2HNCHNCHNCHNCHNCHNCHNCHNCHNCHNCHNCHNCHC2NC2O2HC2NC2O2HC2NC2O2HC2NC2O2HC2NC2O2HC2NC2O2HNCHNCHNCHNCHNCHNCHNCHNCHNCHNCHNCHNCHC6H3C6H3C6H3C6H3C6H3C6H3C6H3C6H3C6H3C6H3C6H3C6H3C6H3C6H3C6H3C6H3C6H3C6H3C6H3C6H3C6H3C6H3C6H3C6H3NCHNCHNCHNCHNCHNCHC2NC2O2HC2NC2O2HC2NC2O2HC2NC2O2HC2NC2O2HC2NC2O2HC2NC2O2HC2NC2O2HC2NC2O2HC2NC2O2HC2NC2O2HC2NC2O2HNCHNCHNCHNCHNCHNCHC2NC2O2HC2NC2O2HC2NC2O2HC2NC2O2HC2NC2O2HC2NC2O2HC2NC2O2HC2NC2O2HC2NC2O2HC2NC2O2HC2NC2O2HC2NC2O2H
_chemical_formula_sum              "C324 N72 O72 H144"
_cell_length_a       54.0689
_cell_length_b       54.0688
_cell_length_c       14.8694
_cell_angle_alpha    90
_cell_angle_beta     90
_cell_angle_gamma    120

_space_group_name_H-M_alt    "P 1"
_space_group_IT_number       1

loop_
  _space_group_symop_operation_xyz
  'x, y, z'

loop_
  _atom_site_type_symbol
  _atom_site_label
  _atom_site_symmetry_multiplicity
  _atom_site_fract_x
  _atom_site_fract_y
  _atom_site_fract_z
  _atom_site_occupancy
  C   C1        1.0  0.14216  0.45770  0.33897  1.0000
  C   C2        1.0  0.11612  0.39802  0.33449  1.0000
  N   N1        1.0  0.11323  0.41295  0.26548  1.0000
  C   C3        1.0  0.12499  0.44197  0.26465  1.0000
  C   C4        1.0  0.12275  0.45493  0.18710  1.0000
  O   O1        1.0  0.09876  0.44596  0.15671  1.0000
  O   O2        1.0  0.14209  0.46452  0.13044  1.0000
  H   H1        1.0  0.16014  0.46962  0.14128  1.0000
  C   C5        1.0  0.55320  0.68598  0.33683  1.0000
  C   C6        1.0  0.61282  0.72008  0.33231  1.0000
  N   N2        1.0  0.59786  0.70383  0.26056  1.0000
  C   C7        1.0  0.56892  0.68653  0.25955  1.0000
  C   C8        1.0  0.55659  0.67353  0.17886  1.0000
  O   O3        1.0  0.54492  0.64750  0.17704  1.0000
  O   O4        1.0  0.54538  0.68357  0.12951  1.0000
  H   H2        1.0  0.55031  0.70186  0.12770  1.0000
  C   C9        1.0  0.32455  0.86886  0.33808  1.0000
  C   C10       1.0  0.29086  0.89482  0.33352  1.0000
  N   N3        1.0  0.30797  0.89697  0.26322  1.0000
  C   C11       1.0  0.32516  0.88519  0.26234  1.0000
  C   C12       1.0  0.33922  0.88699  0.18283  1.0000
  O   O5        1.0  0.36505  0.90302  0.18462  1.0000
  O   O6        1.0  0.33133  0.86592  0.13380  1.0000
  H   H3        1.0  0.31348  0.85163  0.13000  1.0000
  C   C13       1.0  0.87031  0.55105  0.33961  1.0000
  C   C14       1.0  0.89670  0.61078  0.33561  1.0000
  N   N4        1.0  0.90029  0.59588  0.26793  1.0000
  C   C15       1.0  0.88842  0.56684  0.26702  1.0000
  C   C16       1.0  0.89155  0.55396  0.19066  1.0000
  O   O7        1.0  0.91584  0.56309  0.16271  1.0000
  O   O8        1.0  0.87273  0.54407  0.13234  1.0000
  H   H4        1.0  0.85455  0.53884  0.14120  1.0000
  C   C17       1.0  0.46009  0.32216  0.33759  1.0000
  C   C18       1.0  0.40042  0.28849  0.33339  1.0000
  N   N5        1.0  0.41535  0.30570  0.26320  1.0000
  C   C19       1.0  0.44432  0.32287  0.26219  1.0000
  C   C20       1.0  0.45655  0.33703  0.18287  1.0000
  O   O9        1.0  0.46683  0.36293  0.18384  1.0000
  O   O10       1.0  0.46902  0.32865  0.13241  1.0000
  H   H5        1.0  0.46512  0.31068  0.12849  1.0000
  C   C21       1.0  0.68952  0.14094  0.33989  1.0000
  C   C22       1.0  0.72285  0.11448  0.33586  1.0000
  N   N6        1.0  0.70397  0.11049  0.26902  1.0000
  C   C23       1.0  0.68682  0.12240  0.26817  1.0000
  C   C24       1.0  0.67027  0.11870  0.19271  1.0000
  O   O11       1.0  0.65507  0.09425  0.16624  1.0000
  O   O12       1.0  0.67860  0.13722  0.13349  1.0000
  H   H6        1.0  0.69152  0.15548  0.14114  1.0000
  N   N7        1.0  0.44618  0.12566  0.28476  1.0000
  C   C25       1.0  0.41724  0.11110  0.27674  1.0000
  H   H7        1.0  0.40815  0.10126  0.21729  1.0000
  N   N8        1.0  0.68832  0.56490  0.28512  1.0000
  C   C26       1.0  0.70276  0.59385  0.27713  1.0000
  H   H8        1.0  0.70184  0.60294  0.21787  1.0000
  N   N9        1.0  0.88549  0.32282  0.28486  1.0000
  C   C27       1.0  0.89998  0.30836  0.27698  1.0000
  H   H9        1.0  0.91016  0.30939  0.21800  1.0000
  N   N10       1.0  0.56702  0.88317  0.28387  1.0000
  C   C28       1.0  0.59596  0.89763  0.27564  1.0000
  H   H10       1.0  0.60503  0.90719  0.21585  1.0000
  N   N11       1.0  0.32483  0.44396  0.28396  1.0000
  C   C29       1.0  0.31028  0.41502  0.27585  1.0000
  H   H11       1.0  0.31093  0.40590  0.21632  1.0000
  N   N12       1.0  0.12770  0.68602  0.28440  1.0000
  C   C30       1.0  0.11318  0.70045  0.27645  1.0000
  H   H12       1.0  0.10340  0.69979  0.21695  1.0000
  N   N13       1.0  0.26159  0.54180  0.29455  1.0000
  C   C31       1.0  0.28743  0.54338  0.29004  1.0000
  H   H13       1.0  0.30029  0.55281  0.23557  1.0000
  N   N14       1.0  0.46943  0.72214  0.29438  1.0000
  C   C32       1.0  0.46770  0.74633  0.29027  1.0000
  H   H14       1.0  0.45793  0.74963  0.23649  1.0000
  N   N15       1.0  0.28887  0.74928  0.29405  1.0000
  C   C33       1.0  0.26467  0.72339  0.28982  1.0000
  H   H15       1.0  0.26116  0.71054  0.23527  1.0000
  N   N16       1.0  0.75123  0.46672  0.29354  1.0000
  C   C34       1.0  0.72539  0.46513  0.28905  1.0000
  H   H16       1.0  0.71271  0.45609  0.23394  1.0000
  N   N17       1.0  0.54422  0.28676  0.29347  1.0000
  C   C35       1.0  0.54585  0.26252  0.28931  1.0000
  H   H17       1.0  0.55525  0.25900  0.23492  1.0000
  N   N18       1.0  0.72424  0.25996  0.29275  1.0000
  C   C36       1.0  0.74854  0.28577  0.28821  1.0000
  H   H18       1.0  0.75230  0.29840  0.23290  1.0000
  C   C37       1.0  0.17365  0.56212  0.34457  1.0000
  C   C38       1.0  0.17426  0.61434  0.35212  1.0000
  N   N19       1.0  0.15957  0.59459  0.28721  1.0000
  C   C39       1.0  0.15781  0.56850  0.28166  1.0000
  C   C40       1.0  0.14366  0.55109  0.20893  1.0000
  O   O13       1.0  0.12018  0.54784  0.19054  1.0000
  O   O14       1.0  0.15677  0.54892  0.14417  1.0000
  H   H19       1.0  0.17485  0.55313  0.14525  1.0000
  C   C41       1.0  0.44872  0.61389  0.34423  1.0000
  C   C42       1.0  0.39651  0.56228  0.35205  1.0000
  N   N20       1.0  0.41637  0.56715  0.28780  1.0000
  C   C43       1.0  0.44247  0.59147  0.28218  1.0000
  C   C44       1.0  0.45996  0.59444  0.20994  1.0000
  O   O15       1.0  0.46348  0.57432  0.19269  1.0000
  O   O16       1.0  0.46252  0.60992  0.14524  1.0000
  H   H20       1.0  0.45826  0.62375  0.14580  1.0000
  C   C45       1.0  0.39714  0.83705  0.34336  1.0000
  C   C46       1.0  0.44880  0.83658  0.35073  1.0000
  N   N21       1.0  0.44348  0.85076  0.28474  1.0000
  C   C47       1.0  0.41908  0.85231  0.27902  1.0000
  C   C48       1.0  0.41645  0.86616  0.20467  1.0000
  O   O17       1.0  0.42615  0.89187  0.21219  1.0000
  O   O18       1.0  0.39644  0.85420  0.15092  1.0000
  H   H21       1.0  0.38680  0.83554  0.14120  1.0000
  C   C49       1.0  0.83962  0.44683  0.34450  1.0000
  C   C50       1.0  0.83924  0.39473  0.35167  1.0000
  N   N22       1.0  0.85349  0.41431  0.28594  1.0000
  C   C51       1.0  0.85512  0.44035  0.28054  1.0000
  C   C52       1.0  0.86881  0.45757  0.20699  1.0000
  O   O19       1.0  0.89236  0.46123  0.18751  1.0000
  O   O20       1.0  0.85511  0.45947  0.14339  1.0000
  H   H22       1.0  0.83697  0.45503  0.14568  1.0000
  C   C53       1.0  0.56430  0.39502  0.34334  1.0000
  C   C54       1.0  0.61633  0.44678  0.35102  1.0000
  N   N23       1.0  0.59709  0.44119  0.28393  1.0000
  C   C55       1.0  0.57117  0.41676  0.27810  1.0000
  C   C56       1.0  0.55502  0.41380  0.20258  1.0000
  O   O21       1.0  0.53859  0.42305  0.20853  1.0000
  O   O22       1.0  0.54750  0.39373  0.14937  1.0000
  H   H23       1.0  0.55684  0.38434  0.14081  1.0000
  C   C57       1.0  0.61595  0.17152  0.34362  1.0000
  C   C58       1.0  0.56424  0.17188  0.35064  1.0000
  N   N24       1.0  0.56995  0.15841  0.28325  1.0000
  C   C59       1.0  0.59439  0.15694  0.27763  1.0000
  C   C60       1.0  0.59754  0.14395  0.20194  1.0000
  O   O23       1.0  0.58866  0.11833  0.20771  1.0000
  O   O24       1.0  0.61760  0.15678  0.14886  1.0000
  H   H24       1.0  0.62679  0.17552  0.14052  1.0000
  N   N25       1.0  0.02137  0.27901  0.27592  1.0000
  C   C61       1.0  0.99223  0.26301  0.27319  1.0000
  H   H25       1.0  0.98259  0.24878  0.22188  1.0000
  N   N26       1.0  0.73195  0.74462  0.27670  1.0000
  C   C62       1.0  0.74804  0.73158  0.27415  1.0000
  H   H26       1.0  0.76227  0.73618  0.22285  1.0000
  N   N27       1.0  0.26652  0.98959  0.27610  1.0000
  C   C63       1.0  0.27958  0.01872  0.27347  1.0000
  H   H27       1.0  0.27492  0.02835  0.22233  1.0000
  N   N28       1.0  0.99181  0.72982  0.27632  1.0000
  C   C64       1.0  0.02094  0.74592  0.27372  1.0000
  H   H28       1.0  0.03056  0.76010  0.22230  1.0000
  N   N29       1.0  0.28129  0.26423  0.27642  1.0000
  C   C65       1.0  0.26520  0.27728  0.27384  1.0000
  H   H29       1.0  0.25093  0.27262  0.22263  1.0000
  N   N30       1.0  0.74668  0.01926  0.27610  1.0000
  C   C66       1.0  0.73363  0.99013  0.27341  1.0000
  H   H30       1.0  0.73833  0.98052  0.22227  1.0000
  N   N31       1.0  0.17470  0.31408  0.27051  1.0000
  C   C67       1.0  0.14857  0.31215  0.26510  1.0000
  H   H31       1.0  0.13819  0.30736  0.20466  1.0000
  N   N32       1.0  0.69665  0.86265  0.26984  1.0000
  C   C68       1.0  0.69846  0.83839  0.26444  1.0000
  H   H32       1.0  0.70325  0.83281  0.20398  1.0000
  N   N33       1.0  0.14836  0.83632  0.27006  1.0000
  C   C69       1.0  0.17262  0.86239  0.26466  1.0000
  H   H33       1.0  0.17817  0.87285  0.20435  1.0000
  N   N34       1.0  0.83849  0.69468  0.27001  1.0000
  C   C70       1.0  0.86462  0.69663  0.26474  1.0000
  H   H34       1.0  0.87490  0.70115  0.20414  1.0000
  N   N35       1.0  0.31640  0.14608  0.26992  1.0000
  C   C71       1.0  0.31458  0.17033  0.26453  1.0000
  H   H35       1.0  0.30971  0.17592  0.20420  1.0000
  N   N36       1.0  0.86497  0.17247  0.26986  1.0000
  C   C72       1.0  0.84081  0.14632  0.26458  1.0000
  H   H36       1.0  0.83512  0.13600  0.20404  1.0000
  C   C73       1.0  0.21415  0.52269  0.34894  1.0000
  C   C74       1.0  0.19176  0.49425  0.34165  1.0000
  C   C75       1.0  0.16292  0.48728  0.33690  1.0000
  C   C76       1.0  0.15666  0.50978  0.33477  1.0000
  C   C77       1.0  0.17886  0.53874  0.34002  1.0000
  C   C78       1.0  0.20754  0.54475  0.34631  1.0000
  H   H37       1.0  0.13579  0.50496  0.33384  1.0000
  H   H38       1.0  0.22390  0.56544  0.35154  1.0000
  H   H39       1.0  0.19663  0.47817  0.34160  1.0000
  C   C79       1.0  0.48875  0.69387  0.34814  1.0000
  C   C80       1.0  0.51710  0.69967  0.34054  1.0000
  C   C81       1.0  0.52376  0.67759  0.33568  1.0000
  C   C82       1.0  0.50110  0.64891  0.33427  1.0000
  C   C83       1.0  0.47223  0.64240  0.33969  1.0000
  C   C84       1.0  0.46650  0.66526  0.34584  1.0000
  H   H40       1.0  0.50573  0.63273  0.33366  1.0000
  H   H41       1.0  0.44588  0.66112  0.35118  1.0000
  H   H42       1.0  0.53335  0.72054  0.34036  1.0000
  C   C85       1.0  0.31723  0.79674  0.34826  1.0000
  C   C86       1.0  0.31126  0.81918  0.34102  1.0000
  C   C87       1.0  0.33320  0.84798  0.33624  1.0000
  C   C88       1.0  0.36192  0.85415  0.33429  1.0000
  C   C89       1.0  0.36859  0.83189  0.33924  1.0000
  C   C90       1.0  0.34588  0.80325  0.34552  1.0000
  H   H43       1.0  0.37803  0.87500  0.33380  1.0000
  H   H44       1.0  0.35017  0.78686  0.35072  1.0000
  H   H45       1.0  0.29034  0.81441  0.34119  1.0000
  C   C91       1.0  0.79854  0.48564  0.34869  1.0000
  C   C92       1.0  0.82077  0.51416  0.34169  1.0000
  C   C93       1.0  0.84969  0.52140  0.33711  1.0000
  C   C94       1.0  0.85619  0.49905  0.33473  1.0000
  C   C95       1.0  0.83415  0.47002  0.33994  1.0000
  C   C96       1.0  0.80539  0.46375  0.34615  1.0000
  H   H46       1.0  0.87710  0.50403  0.33399  1.0000
  H   H47       1.0  0.78916  0.44300  0.35135  1.0000
  H   H48       1.0  0.81571  0.53009  0.34184  1.0000
  C   C97       1.0  0.52509  0.31512  0.34787  1.0000
  C   C98       1.0  0.49663  0.30902  0.34048  1.0000
  C   C99       1.0  0.48963  0.33086  0.33565  1.0000
  C   C100      1.0  0.51210  0.35963  0.33391  1.0000
  C   C101      1.0  0.54106  0.36642  0.33900  1.0000
  C   C102      1.0  0.54714  0.34381  0.34538  1.0000
  H   H49       1.0  0.50728  0.37568  0.33332  1.0000
  H   H50       1.0  0.56785  0.34821  0.35072  1.0000
  H   H51       1.0  0.48055  0.28808  0.34059  1.0000
  C   C103      1.0  0.69577  0.21270  0.34818  1.0000
  C   C104      1.0  0.70210  0.19049  0.34139  1.0000
  C   C105      1.0  0.68046  0.16154  0.33709  1.0000
  C   C106      1.0  0.65162  0.15502  0.33470  1.0000
  C   C107      1.0  0.64460  0.17704  0.33933  1.0000
  C   C108      1.0  0.66703  0.20581  0.34551  1.0000
  H   H52       1.0  0.63568  0.13410  0.33408  1.0000
  H   H53       1.0  0.66246  0.22202  0.35057  1.0000
  H   H54       1.0  0.72312  0.19559  0.34149  1.0000
  C   C109      1.0  0.52537  0.21275  0.34574  1.0000
  C   C110      1.0  0.49683  0.19032  0.34782  1.0000
  C   C111      1.0  0.48975  0.16140  0.34947  1.0000
  C   C112      1.0  0.51213  0.15498  0.34568  1.0000
  C   C113      1.0  0.54110  0.17721  0.34423  1.0000
  C   C114      1.0  0.54733  0.20599  0.34280  1.0000
  H   H55       1.0  0.50737  0.13415  0.34957  1.0000
  H   H56       1.0  0.56812  0.22231  0.34336  1.0000
  H   H57       1.0  0.48078  0.19522  0.34986  1.0000
  C   C115      1.0  0.69606  0.48551  0.34570  1.0000
  C   C116      1.0  0.70226  0.51409  0.34789  1.0000
  C   C117      1.0  0.68048  0.52125  0.34966  1.0000
  C   C118      1.0  0.65164  0.49890  0.34596  1.0000
  C   C119      1.0  0.64481  0.46990  0.34453  1.0000
  C   C120      1.0  0.66732  0.46361  0.34291  1.0000
  H   H58       1.0  0.63560  0.50372  0.34994  1.0000
  H   H59       1.0  0.66281  0.44281  0.34332  1.0000
  H   H60       1.0  0.72323  0.53008  0.34992  1.0000
  C   C121      1.0  0.79826  0.31500  0.34494  1.0000
  C   C122      1.0  0.82062  0.30879  0.34725  1.0000
  C   C123      1.0  0.84956  0.33057  0.34937  1.0000
  C   C124      1.0  0.85606  0.35941  0.34606  1.0000
  C   C125      1.0  0.83390  0.36625  0.34465  1.0000
  C   C126      1.0  0.80510  0.34375  0.34241  1.0000
  H   H61       1.0  0.87691  0.37543  0.35034  1.0000
  H   H62       1.0  0.78881  0.34825  0.34288  1.0000
  H   H63       1.0  0.81563  0.28782  0.34905  1.0000
  C   C127      1.0  0.48823  0.79622  0.34582  1.0000
  C   C128      1.0  0.51670  0.81881  0.34779  1.0000
  C   C129      1.0  0.52354  0.84766  0.34930  1.0000
  C   C130      1.0  0.50099  0.85385  0.34549  1.0000
  C   C131      1.0  0.47209  0.83145  0.34445  1.0000
  C   C132      1.0  0.46612  0.80275  0.34295  1.0000
  H   H64       1.0  0.50560  0.87463  0.34953  1.0000
  H   H65       1.0  0.44539  0.78631  0.34356  1.0000
  H   H66       1.0  0.53288  0.81410  0.34977  1.0000
  C   C133      1.0  0.31672  0.52282  0.34574  1.0000
  C   C134      1.0  0.31082  0.49435  0.34783  1.0000
  C   C135      1.0  0.33282  0.48749  0.34963  1.0000
  C   C136      1.0  0.36157  0.51004  0.34624  1.0000
  C   C137      1.0  0.36810  0.53896  0.34539  1.0000
  C   C138      1.0  0.34537  0.54492  0.34325  1.0000
  H   H67       1.0  0.37773  0.50542  0.35052  1.0000
  H   H68       1.0  0.34964  0.56564  0.34374  1.0000
  H   H69       1.0  0.28991  0.47819  0.34973  1.0000
  C   C139      1.0  0.21483  0.69412  0.34573  1.0000
  C   C140      1.0  0.19232  0.70011  0.34765  1.0000
  C   C141      1.0  0.16344  0.67818  0.34957  1.0000
  C   C142      1.0  0.15714  0.64940  0.34629  1.0000
  C   C143      1.0  0.17946  0.64277  0.34534  1.0000
  C   C144      1.0  0.20819  0.66543  0.34334  1.0000
  H   H70       1.0  0.13634  0.63329  0.35049  1.0000
  H   H71       1.0  0.22459  0.66109  0.34389  1.0000
  H   H72       1.0  0.19713  0.72103  0.34941  1.0000
  C   C145      1.0  0.10636  0.36839  0.32677  1.0000
  C   C146      1.0  0.12590  0.35831  0.33159  1.0000
  C   C147      1.0  0.11682  0.32881  0.33070  1.0000
  C   C148      1.0  0.08695  0.30904  0.32867  1.0000
  C   C149      1.0  0.06663  0.31849  0.32756  1.0000
  C   C150      1.0  0.07697  0.34829  0.32238  1.0000
  H   H73       1.0  0.07996  0.28767  0.33358  1.0000
  H   H74       1.0  0.06281  0.35566  0.32109  1.0000
  H   H75       1.0  0.14731  0.37291  0.33518  1.0000
  C   C151      1.0  0.64242  0.74003  0.32557  1.0000
  C   C152      1.0  0.65241  0.76961  0.33071  1.0000
  C   C153      1.0  0.68192  0.79006  0.33043  1.0000
  C   C154      1.0  0.70172  0.77999  0.32892  1.0000
  C   C155      1.0  0.69233  0.75024  0.32777  1.0000
  C   C156      1.0  0.66255  0.73076  0.32200  1.0000
  H   H76       1.0  0.72309  0.79439  0.33403  1.0000
  H   H77       1.0  0.65520  0.70923  0.32050  1.0000
  H   H78       1.0  0.63777  0.77637  0.33404  1.0000
  C   C157      1.0  0.27099  0.90458  0.32627  1.0000
  C   C158      1.0  0.24138  0.88506  0.33124  1.0000
  C   C159      1.0  0.22097  0.89417  0.33067  1.0000
  C   C160      1.0  0.23110  0.92404  0.32870  1.0000
  C   C161      1.0  0.26086  0.94435  0.32756  1.0000
  C   C162      1.0  0.28031  0.93399  0.32220  1.0000
  H   H79       1.0  0.21673  0.93105  0.33354  1.0000
  H   H80       1.0  0.30184  0.94814  0.32079  1.0000
  H   H81       1.0  0.23456  0.86364  0.33474  1.0000
  C   C163      1.0  0.90665  0.64046  0.32771  1.0000
  C   C164      1.0  0.88723  0.65070  0.33212  1.0000
  C   C165      1.0  0.89644  0.68023  0.33108  1.0000
  C   C166      1.0  0.92633  0.69988  0.32896  1.0000
  C   C167      1.0  0.94655  0.69030  0.32795  1.0000
  C   C168      1.0  0.93607  0.66046  0.32319  1.0000
  H   H82       1.0  0.93342  0.72129  0.33352  1.0000
  H   H83       1.0  0.95016  0.65301  0.32189  1.0000
  H   H84       1.0  0.86579  0.63619  0.33563  1.0000
  C   C169      1.0  0.37077  0.26865  0.32622  1.0000
  C   C170      1.0  0.36065  0.23903  0.33116  1.0000
  C   C171      1.0  0.33113  0.21865  0.33067  1.0000
  C   C172      1.0  0.31141  0.22880  0.32880  1.0000
  C   C173      1.0  0.32088  0.25857  0.32761  1.0000
  C   C174      1.0  0.35070  0.27799  0.32218  1.0000
  H   H85       1.0  0.29002  0.21444  0.33371  1.0000
  H   H86       1.0  0.35810  0.29953  0.32084  1.0000
  H   H87       1.0  0.37523  0.23219  0.33459  1.0000
  C   C175      1.0  0.74254  0.10447  0.32782  1.0000
  C   C176      1.0  0.77221  0.12383  0.33206  1.0000
  C   C177      1.0  0.79249  0.11457  0.33091  1.0000
  C   C178      1.0  0.78220  0.08467  0.32855  1.0000
  C   C179      1.0  0.75239  0.06450  0.32779  1.0000
  C   C180      1.0  0.73307  0.07504  0.32311  1.0000
  H   H88       1.0  0.79648  0.07754  0.33318  1.0000
  H   H89       1.0  0.71152  0.06097  0.32209  1.0000
  H   H90       1.0  0.77919  0.14528  0.33555  1.0000
  C   C181      1.0  0.37119  0.10424  0.33710  1.0000
  C   C182      1.0  0.36165  0.12422  0.33985  1.0000
  C   C183      1.0  0.33228  0.11573  0.33644  1.0000
  C   C184      1.0  0.31212  0.08604  0.32988  1.0000
  C   C185      1.0  0.32094  0.06524  0.33018  1.0000
  C   C186      1.0  0.35066  0.07496  0.33235  1.0000
  H   H91       1.0  0.29078  0.07945  0.33112  1.0000
  H   H92       1.0  0.35759  0.06044  0.33317  1.0000
  H   H93       1.0  0.37654  0.14552  0.34454  1.0000
  C   C187      1.0  0.74196  0.63990  0.33745  1.0000
  C   C188      1.0  0.77150  0.64951  0.34019  1.0000
  C   C189      1.0  0.79232  0.67890  0.33660  1.0000
  C   C190      1.0  0.78273  0.69900  0.33018  1.0000
  C   C191      1.0  0.75309  0.69012  0.33047  1.0000
  C   C192      1.0  0.73315  0.66038  0.33270  1.0000
  H   H94       1.0  0.79744  0.72035  0.33130  1.0000
  H   H95       1.0  0.71169  0.65341  0.33350  1.0000
  H   H96       1.0  0.77798  0.63468  0.34493  1.0000
  C   C193      1.0  0.90673  0.26908  0.33721  1.0000
  C   C194      1.0  0.88677  0.23955  0.33993  1.0000
  C   C195      1.0  0.89527  0.21868  0.33629  1.0000
  C   C196      1.0  0.92497  0.22823  0.32981  1.0000
  C   C197      1.0  0.94574  0.25786  0.33003  1.0000
  C   C198      1.0  0.93601  0.27784  0.33239  1.0000
  H   H97       1.0  0.93156  0.21349  0.33089  1.0000
  H   H98       1.0  0.95052  0.29929  0.33321  1.0000
  H   H99       1.0  0.86546  0.23310  0.34467  1.0000
  C   C199      1.0  0.64199  0.90464  0.33648  1.0000
  C   C200      1.0  0.65148  0.88462  0.33937  1.0000
  C   C201      1.0  0.68084  0.89307  0.33608  1.0000
  C   C202      1.0  0.70103  0.92276  0.32984  1.0000
  C   C203      1.0  0.69225  0.94359  0.32982  1.0000
  C   C204      1.0  0.66254  0.93390  0.33187  1.0000
  H   H100      1.0  0.72237  0.92933  0.33107  1.0000
  H   H101      1.0  0.65563  0.94844  0.33256  1.0000
  H   H102      1.0  0.63656  0.86333  0.34402  1.0000
  C   C205      1.0  0.27139  0.36898  0.33707  1.0000
  C   C206      1.0  0.24187  0.35945  0.33996  1.0000
  C   C207      1.0  0.22098  0.33007  0.33666  1.0000
  C   C208      1.0  0.23051  0.30991  0.33025  1.0000
  C   C209      1.0  0.26013  0.31872  0.33021  1.0000
  C   C210      1.0  0.28012  0.34844  0.33235  1.0000
  H   H103      1.0  0.21576  0.28857  0.33142  1.0000
  H   H104      1.0  0.30158  0.35538  0.33299  1.0000
  H   H105      1.0  0.23546  0.37434  0.34465  1.0000
  C   C211      1.0  0.10637  0.73963  0.33707  1.0000
  C   C212      1.0  0.12640  0.76914  0.33980  1.0000
  C   C213      1.0  0.11797  0.79006  0.33646  1.0000
  C   C214      1.0  0.08829  0.78059  0.33009  1.0000
  C   C215      1.0  0.06744  0.75098  0.33019  1.0000
  C   C216      1.0  0.07711  0.73094  0.33239  1.0000
  H   H106      1.0  0.08173  0.79537  0.33117  1.0000
  H   H107      1.0  0.06256  0.70949  0.33309  1.0000
  H   H108      1.0  0.14769  0.77551  0.34442  1.0000
  N   N37       1.0  0.14474  0.44249  0.40772  1.0000
  C   C217      1.0  0.13198  0.41369  0.40989  1.0000
  H   H109      1.0  0.13565  0.40403  0.46327  1.0000
  N   N38       1.0  0.56842  0.70257  0.40776  1.0000
  C   C218      1.0  0.59725  0.71870  0.40996  1.0000
  H   H110      1.0  0.60696  0.73111  0.46506  1.0000
  N   N39       1.0  0.30733  0.86685  0.40786  1.0000
  C   C219      1.0  0.29129  0.87963  0.40994  1.0000
  H   H111      1.0  0.27840  0.87647  0.46417  1.0000
  N   N40       1.0  0.86713  0.56623  0.40720  1.0000
  C   C220      1.0  0.88003  0.59503  0.40971  1.0000
  H   H112      1.0  0.87577  0.60464  0.46196  1.0000
  N   N41       1.0  0.44492  0.30479  0.40716  1.0000
  C   C221      1.0  0.41610  0.28878  0.40946  1.0000
  H   H113      1.0  0.40643  0.27576  0.46347  1.0000
  N   N42       1.0  0.70825  0.14448  0.40670  1.0000
  C   C222      1.0  0.72422  0.13164  0.40911  1.0000
  H   H114      1.0  0.73825  0.13610  0.46097  1.0000
  C   C223      1.0  0.46033  0.14062  0.35949  1.0000
  C   C224      1.0  0.40072  0.11365  0.34568  1.0000
  N   N43       1.0  0.41481  0.12881  0.41977  1.0000
  C   C225      1.0  0.44357  0.14172  0.43166  1.0000
  C   C226      1.0  0.45515  0.15713  0.51049  1.0000
  O   O25       1.0  0.44356  0.16894  0.54692  1.0000
  O   O26       1.0  0.47168  0.15351  0.55890  1.0000
  H   H115      1.0  0.47966  0.14321  0.54433  1.0000
  C   C227      1.0  0.68920  0.55069  0.35962  1.0000
  C   C228      1.0  0.72189  0.61034  0.34591  1.0000
  N   N44       1.0  0.72301  0.59622  0.41986  1.0000
  C   C229      1.0  0.70717  0.56746  0.43163  1.0000
  C   C230      1.0  0.71098  0.55585  0.51042  1.0000
  O   O27       1.0  0.73442  0.56738  0.54667  1.0000
  O   O28       1.0  0.69086  0.53944  0.55905  1.0000
  H   H116      1.0  0.67256  0.53152  0.54462  1.0000
  C   C231      1.0  0.87027  0.32181  0.35913  1.0000
  C   C232      1.0  0.89727  0.28918  0.34571  1.0000
  N   N45       1.0  0.88192  0.28798  0.41946  1.0000
  C   C233      1.0  0.86898  0.30381  0.43117  1.0000
  C   C234      1.0  0.85347  0.29989  0.50984  1.0000
  O   O29       1.0  0.84114  0.27627  0.54488  1.0000
  O   O30       1.0  0.85694  0.31995  0.55836  1.0000
  H   H117      1.0  0.86748  0.33826  0.54440  1.0000
  C   C235      1.0  0.55291  0.86858  0.35914  1.0000
  C   C236      1.0  0.61248  0.89529  0.34500  1.0000
  N   N46       1.0  0.59843  0.88050  0.41965  1.0000
  C   C237      1.0  0.56969  0.86771  0.43166  1.0000
  C   C238      1.0  0.55810  0.85262  0.51097  1.0000
  O   O31       1.0  0.56967  0.84091  0.54823  1.0000
  O   O32       1.0  0.54158  0.85642  0.55879  1.0000
  H   H118      1.0  0.53362  0.86669  0.54354  1.0000
  C   C239      1.0  0.32432  0.45809  0.35912  1.0000
  C   C240      1.0  0.29153  0.39850  0.34541  1.0000
  N   N47       1.0  0.29079  0.41260  0.41998  1.0000
  C   C241      1.0  0.30671  0.44136  0.43180  1.0000
  C   C242      1.0  0.30331  0.45301  0.51115  1.0000
  O   O33       1.0  0.28002  0.44134  0.54840  1.0000
  O   O34       1.0  0.32365  0.46924  0.55932  1.0000
  H   H119      1.0  0.34188  0.47718  0.54396  1.0000
  C   C243      1.0  0.14259  0.68674  0.35916  1.0000
  C   C244      1.0  0.11571  0.71946  0.34555  1.0000
  N   N48       1.0  0.13077  0.72040  0.41977  1.0000
  C   C245      1.0  0.14362  0.70450  0.43159  1.0000
  C   C246      1.0  0.15890  0.70820  0.51065  1.0000
  O   O35       1.0  0.17113  0.73172  0.54636  1.0000
  O   O36       1.0  0.15537  0.68801  0.55862  1.0000
  H   H120      1.0  0.14489  0.66974  0.54410  1.0000
  C   C247      1.0  0.24235  0.52806  0.36156  1.0000
  C   C248      1.0  0.29387  0.52824  0.35414  1.0000
  N   N49       1.0  0.27476  0.51481  0.42124  1.0000
  C   C249      1.0  0.24966  0.51453  0.43016  1.0000
  C   C250      1.0  0.23211  0.49978  0.50252  1.0000
  O   O37       1.0  0.23196  0.47847  0.53087  1.0000
  O   O38       1.0  0.22321  0.51105  0.55601  1.0000
  H   H121      1.0  0.22435  0.52783  0.54817  1.0000
  C   C251      1.0  0.48357  0.71684  0.36053  1.0000
  C   C252      1.0  0.48290  0.76796  0.35418  1.0000
  N   N50       1.0  0.49668  0.76241  0.42052  1.0000
  C   C253      1.0  0.49722  0.73772  0.42893  1.0000
  C   C254      1.0  0.51224  0.73507  0.50080  1.0000
  O   O39       1.0  0.53382  0.75626  0.52752  1.0000
  O   O40       1.0  0.50115  0.71497  0.55459  1.0000
  H   H122      1.0  0.48429  0.69938  0.54752  1.0000
  C   C255      1.0  0.29438  0.76855  0.36098  1.0000
  C   C256      1.0  0.24313  0.71692  0.35411  1.0000
  N   N51       1.0  0.24882  0.73610  0.42104  1.0000
  C   C257      1.0  0.27360  0.76123  0.42976  1.0000
  C   C258      1.0  0.27640  0.77883  0.50198  1.0000
  O   O41       1.0  0.25522  0.77891  0.53046  1.0000
  O   O42       1.0  0.29659  0.78779  0.55540  1.0000
  H   H123      1.0  0.31225  0.78670  0.54751  1.0000
  C   C259      1.0  0.77026  0.48003  0.36139  1.0000
  C   C260      1.0  0.71870  0.47979  0.35421  1.0000
  N   N52       1.0  0.73768  0.49290  0.42193  1.0000
  C   C261      1.0  0.76276  0.49316  0.43079  1.0000
  C   C262      1.0  0.78019  0.50760  0.50369  1.0000
  O   O43       1.0  0.78020  0.52872  0.53322  1.0000
  O   O44       1.0  0.78907  0.49613  0.55648  1.0000
  H   H124      1.0  0.78800  0.47942  0.54776  1.0000
  C   C263      1.0  0.53053  0.29233  0.36048  1.0000
  C   C264      1.0  0.53097  0.24110  0.35408  1.0000
  N   N53       1.0  0.51758  0.24687  0.42115  1.0000
  C   C265      1.0  0.51721  0.27164  0.42964  1.0000
  C   C266      1.0  0.50251  0.27450  0.50204  1.0000
  O   O45       1.0  0.48106  0.25340  0.52987  1.0000
  O   O46       1.0  0.51378  0.29481  0.55505  1.0000
  H   H125      1.0  0.53060  0.31039  0.54712  1.0000
  C   C267      1.0  0.71844  0.24099  0.36081  1.0000
  C   C268      1.0  0.76988  0.29237  0.35334  1.0000
  N   N54       1.0  0.76392  0.27348  0.42137  1.0000
  C   C269      1.0  0.73902  0.24848  0.43039  1.0000
  C   C270      1.0  0.73593  0.23109  0.50354  1.0000
  O   O47       1.0  0.75697  0.23102  0.53340  1.0000
  O   O48       1.0  0.71552  0.22228  0.55609  1.0000
  H   H126      1.0  0.69991  0.22339  0.54711  1.0000
  N   N55       1.0  0.18800  0.58188  0.40965  1.0000
  C   C271      1.0  0.18843  0.60699  0.41732  1.0000
  H   H127      1.0  0.20055  0.62093  0.46686  1.0000
  N   N56       1.0  0.42885  0.60862  0.40877  1.0000
  C   C272      1.0  0.40375  0.58394  0.41668  1.0000
  H   H128      1.0  0.38971  0.58229  0.46561  1.0000
  N   N57       1.0  0.40277  0.82312  0.40928  1.0000
  C   C273      1.0  0.42750  0.82276  0.41684  1.0000
  H   H129      1.0  0.42950  0.81093  0.46700  1.0000
  N   N58       1.0  0.82567  0.42719  0.41026  1.0000
  C   C274      1.0  0.82540  0.40215  0.41783  1.0000
  H   H130      1.0  0.81354  0.38828  0.46784  1.0000
  N   N59       1.0  0.58365  0.40086  0.41015  1.0000
  C   C275      1.0  0.60865  0.42568  0.41796  1.0000
  H   H131      1.0  0.62237  0.42781  0.46861  1.0000
  N   N60       1.0  0.60996  0.18484  0.41070  1.0000
  C   C276      1.0  0.58516  0.18506  0.41819  1.0000
  H   H132      1.0  0.58290  0.19647  0.46920  1.0000
  C   C277      1.0  0.03641  0.29967  0.33849  1.0000
  C   C278      1.0  0.97591  0.26872  0.33516  1.0000
  N   N61       1.0  0.99105  0.28908  0.39780  1.0000
  C   C279      1.0  0.02001  0.30427  0.40451  1.0000
  C   C280      1.0  0.03172  0.32380  0.47469  1.0000
  O   O49       1.0  0.02028  0.33747  0.49674  1.0000
  O   O50       1.0  0.04757  0.32235  0.53180  1.0000
  H   H133      1.0  0.05535  0.31135  0.52794  1.0000
  C   C281      1.0  0.71117  0.73886  0.33893  1.0000
  C   C282      1.0  0.74217  0.70938  0.33561  1.0000
  N   N62       1.0  0.72170  0.70403  0.39796  1.0000
  C   C283      1.0  0.70647  0.71777  0.40468  1.0000
  C   C284      1.0  0.68682  0.70983  0.47449  1.0000
  O   O51       1.0  0.67341  0.68475  0.49719  1.0000
  O   O52       1.0  0.68817  0.72700  0.53192  1.0000
  H   H134      1.0  0.69902  0.74580  0.52814  1.0000
  C   C285      1.0  0.27226  0.97458  0.33841  1.0000
  C   C286      1.0  0.30166  0.03506  0.33527  1.0000
  N   N63       1.0  0.30697  0.01995  0.39775  1.0000
  C   C287      1.0  0.29328  0.99098  0.40436  1.0000
  C   C288      1.0  0.30112  0.97923  0.47438  1.0000
  O   O53       1.0  0.32622  0.99099  0.49688  1.0000
  O   O54       1.0  0.28396  0.96368  0.53221  1.0000
  H   H135      1.0  0.26516  0.95576  0.52836  1.0000
  C   C289      1.0  0.97679  0.70907  0.33865  1.0000
  C   C290      1.0  0.03728  0.74014  0.33543  1.0000
  N   N64       1.0  0.02216  0.71971  0.39791  1.0000
  C   C291      1.0  0.99320  0.70447  0.40461  1.0000
  C   C292      1.0  0.98152  0.68491  0.47471  1.0000
  O   O55       1.0  0.99299  0.67123  0.49652  1.0000
  O   O56       1.0  0.96573  0.68635  0.53203  1.0000
  H   H136      1.0  0.95794  0.69735  0.52834  1.0000
  C   C293      1.0  0.30208  0.27000  0.33863  1.0000
  C   C294      1.0  0.27104  0.29945  0.33539  1.0000
  N   N65       1.0  0.29150  0.30478  0.39778  1.0000
  C   C295      1.0  0.30674  0.29107  0.40445  1.0000
  C   C296      1.0  0.32637  0.29898  0.47433  1.0000
  O   O57       1.0  0.33978  0.32405  0.49709  1.0000
  O   O58       1.0  0.32496  0.28179  0.53180  1.0000
  H   H137      1.0  0.31410  0.26299  0.52798  1.0000
  C   C297      1.0  0.74088  0.03425  0.33837  1.0000
  C   C298      1.0  0.71154  0.97376  0.33514  1.0000
  N   N66       1.0  0.70619  0.98886  0.39760  1.0000
  C   C299      1.0  0.71987  0.01782  0.40429  1.0000
  C   C300      1.0  0.71197  0.02948  0.47440  1.0000
  O   O59       1.0  0.68682  0.01799  0.49621  1.0000
  O   O60       1.0  0.72919  0.04524  0.53180  1.0000
  H   H138      1.0  0.74798  0.05303  0.52813  1.0000
  C   C301      1.0  0.19154  0.32247  0.34545  1.0000
  C   C302      1.0  0.13846  0.32105  0.33884  1.0000
  N   N67       1.0  0.15570  0.33021  0.41244  1.0000
  C   C303      1.0  0.18102  0.33060  0.42103  1.0000
  C   C304      1.0  0.19629  0.34105  0.50058  1.0000
  O   O61       1.0  0.19511  0.36017  0.54071  1.0000
  O   O62       1.0  0.20389  0.32701  0.54679  1.0000
  H   H139      1.0  0.20338  0.31110  0.52934  1.0000
  C   C305      1.0  0.68839  0.87121  0.34484  1.0000
  C   C306      1.0  0.68972  0.81945  0.33831  1.0000
  N   N68       1.0  0.68060  0.82761  0.41188  1.0000
  C   C307      1.0  0.68024  0.85255  0.42042  1.0000
  C   C308      1.0  0.66991  0.85746  0.50008  1.0000
  O   O63       1.0  0.65080  0.83720  0.54042  1.0000
  O   O64       1.0  0.68408  0.87909  0.54622  1.0000
  H   H140      1.0  0.70000  0.89445  0.52861  1.0000
  C   C309      1.0  0.13985  0.81949  0.34498  1.0000
  C   C310      1.0  0.19157  0.87260  0.33854  1.0000
  N   N69       1.0  0.18343  0.85530  0.41205  1.0000
  C   C311      1.0  0.15850  0.82999  0.42058  1.0000
  C   C312      1.0  0.15366  0.81475  0.50023  1.0000
  O   O65       1.0  0.17393  0.81556  0.53947  1.0000
  O   O66       1.0  0.13200  0.80713  0.54632  1.0000
  H   H141      1.0  0.11670  0.80785  0.52905  1.0000
  C   C313      1.0  0.82178  0.68659  0.34521  1.0000
  C   C314      1.0  0.87491  0.68811  0.33899  1.0000
  N   N70       1.0  0.85775  0.67922  0.41284  1.0000
  C   C315      1.0  0.83243  0.67881  0.42127  1.0000
  C   C316      1.0  0.81725  0.66865  0.50113  1.0000
  O   O67       1.0  0.81853  0.64971  0.54210  1.0000
  O   O68       1.0  0.80972  0.68287  0.54669  1.0000
  H   H142      1.0  0.81019  0.69870  0.52857  1.0000
  C   C317      1.0  0.32471  0.13760  0.34492  1.0000
  C   C318      1.0  0.32329  0.18924  0.33849  1.0000
  N   N71       1.0  0.33236  0.18110  0.41219  1.0000
  C   C319      1.0  0.33276  0.15617  0.42069  1.0000
  C   C320      1.0  0.34302  0.15119  0.50040  1.0000
  O   O69       1.0  0.36211  0.17153  0.54054  1.0000
  O   O70       1.0  0.32875  0.12966  0.54675  1.0000
  H   H143      1.0  0.31284  0.11430  0.52908  1.0000
  C   C321      1.0  0.87348  0.18923  0.34494  1.0000
  C   C322      1.0  0.82194  0.13605  0.33863  1.0000
  N   N72       1.0  0.83009  0.15328  0.41232  1.0000
  C   C323      1.0  0.85498  0.17863  0.42082  1.0000
  C   C324      1.0  0.85984  0.19385  0.50054  1.0000
  O   O71       1.0  0.83956  0.19289  0.54017  1.0000
  O   O72       1.0  0.88160  0.20162  0.54622  1.0000
  H   H144      1.0  0.89694  0.20101  0.52866  1.0000
