data_image0
_chemical_formula_structural       C3NC2NHNH2CH2C3NC2NHNH2CH2C3NC2NHNH2CH2C3H2CH3CH2C3H2CH3CH2C3H2CH3CH2C6H3NHNHNHC6H3NHNHNHC6H3NHNHNHC6H3NHNHNHC3H2CH2CH2C3H2CH2CH2C3H2CH2CH2C3NC2NHNHCH2C3NC2NHNHCH2C3NC2NHNHCH2
_chemical_formula_sum              "C90 N30 H90"
_cell_length_a       33.5027
_cell_length_b       33.5028
_cell_length_c       14.9937
_cell_angle_alpha    90
_cell_angle_beta     90
_cell_angle_gamma    120

_space_group_name_H-M_alt    "P 1"
_space_group_IT_number       1

loop_
  _space_group_symop_operation_xyz
  'x, y, z'

loop_
  _atom_site_type_symbol
  _atom_site_label
  _atom_site_symmetry_multiplicity
  _atom_site_fract_x
  _atom_site_fract_y
  _atom_site_fract_z
  _atom_site_occupancy
  C   C1        1.0  0.24090  0.12109  0.23191  1.0000
  C   C2        1.0  0.19193  0.09962  0.22828  1.0000
  C   C3        1.0  0.16402  0.06632  0.29276  1.0000
  N   N1        1.0  0.17289  0.11152  0.16043  1.0000
  C   C4        1.0  0.19776  0.14231  0.09590  1.0000
  C   C5        1.0  0.24598  0.16301  0.09780  1.0000
  N   N2        1.0  0.26510  0.15163  0.16599  1.0000
  H   H1        1.0  0.18137  0.14948  0.04635  1.0000
  N   N3        1.0  0.27307  0.19426  0.03055  1.0000
  H   H2        1.0  0.29650  0.22473  0.06010  1.0000
  H   H3        1.0  0.32235  0.17215  0.01244  1.0000
  C   C6        1.0  0.11260  0.04217  0.29168  1.0000
  H   H4        1.0  0.10046  0.00599  0.27626  1.0000
  H   H5        1.0  0.09976  0.05545  0.23911  1.0000
  C   C7        1.0  0.87153  0.11991  0.23194  1.0000
  C   C8        1.0  0.89301  0.09240  0.22832  1.0000
  C   C9        1.0  0.92629  0.09779  0.29281  1.0000
  N   N4        1.0  0.88110  0.06147  0.16048  1.0000
  C   C10       1.0  0.85031  0.05553  0.09595  1.0000
  C   C11       1.0  0.82963  0.08307  0.09781  1.0000
  N   N5        1.0  0.84101  0.11358  0.16600  1.0000
  H   H6        1.0  0.84318  0.03201  0.04635  1.0000
  N   N6        1.0  0.79841  0.07893  0.03053  1.0000
  H   H7        1.0  0.76793  0.07191  0.06003  1.0000
  H   H8        1.0  0.82057  0.15034  0.01239  1.0000
  C   C12       1.0  0.95046  0.07054  0.29173  1.0000
  H   H9        1.0  0.98664  0.09460  0.27628  1.0000
  H   H10       1.0  0.93718  0.04442  0.23916  1.0000
  C   C13       1.0  0.87275  0.75174  0.23204  1.0000
  C   C14       1.0  0.90026  0.80072  0.22842  1.0000
  C   C15       1.0  0.89486  0.82863  0.29289  1.0000
  N   N7        1.0  0.93122  0.81976  0.16061  1.0000
  C   C16       1.0  0.93717  0.79489  0.09612  1.0000
  C   C17       1.0  0.90962  0.74667  0.09796  1.0000
  N   N8        1.0  0.87909  0.72754  0.16612  1.0000
  H   H11       1.0  0.96071  0.81128  0.04653  1.0000
  N   N9        1.0  0.91377  0.71959  0.03070  1.0000
  H   H12       1.0  0.92077  0.69612  0.06023  1.0000
  H   H13       1.0  0.84237  0.67037  0.01247  1.0000
  C   C18       1.0  0.92212  0.88005  0.29180  1.0000
  H   H14       1.0  0.89806  0.89217  0.27635  1.0000
  H   H15       1.0  0.94824  0.89288  0.23922  1.0000
  C   C19       1.0  0.59750  0.13196  0.33930  1.0000
  C   C20       1.0  0.53095  0.14028  0.29809  1.0000
  C   C21       1.0  0.56345  0.12690  0.27732  1.0000
  H   H16       1.0  0.56220  0.11358  0.21528  1.0000
  H   H17       1.0  0.50743  0.13651  0.25041  1.0000
  C   C22       1.0  0.64180  0.13701  0.04016  1.0000
  H   H18       1.0  0.62268  0.10206  0.01327  1.0000
  H   H19       1.0  0.61916  0.14302  0.08352  1.0000
  H   H20       1.0  0.67036  0.13972  0.07987  1.0000
  C   C23       1.0  0.63070  0.11701  0.30976  1.0000
  H   H21       1.0  0.64442  0.13250  0.24458  1.0000
  H   H22       1.0  0.61075  0.07971  0.29908  1.0000
  C   C24       1.0  0.86063  0.46561  0.33922  1.0000
  C   C25       1.0  0.85232  0.39074  0.29805  1.0000
  C   C26       1.0  0.86568  0.43661  0.27724  1.0000
  H   H23       1.0  0.87898  0.44867  0.21518  1.0000
  H   H24       1.0  0.85608  0.37099  0.25037  1.0000
  C   C27       1.0  0.85565  0.50493  0.04007  1.0000
  H   H25       1.0  0.89060  0.52076  0.01315  1.0000
  H   H26       1.0  0.84966  0.47630  0.08344  1.0000
  H   H27       1.0  0.85295  0.53079  0.07977  1.0000
  C   C28       1.0  0.87555  0.51375  0.30962  1.0000
  H   H28       1.0  0.86002  0.51196  0.24450  1.0000
  H   H29       1.0  0.91284  0.53110  0.29884  1.0000
  C   C29       1.0  0.52699  0.39511  0.33928  1.0000
  C   C30       1.0  0.60186  0.46167  0.29810  1.0000
  C   C31       1.0  0.55599  0.42916  0.27730  1.0000
  H   H30       1.0  0.54392  0.43041  0.21526  1.0000
  H   H31       1.0  0.62161  0.48518  0.25042  1.0000
  C   C32       1.0  0.48770  0.35080  0.04012  1.0000
  H   H32       1.0  0.47186  0.36991  0.01321  1.0000
  H   H33       1.0  0.51633  0.37345  0.08349  1.0000
  H   H34       1.0  0.46184  0.32224  0.07983  1.0000
  C   C33       1.0  0.47885  0.36191  0.30972  1.0000
  H   H35       1.0  0.48061  0.34818  0.24455  1.0000
  H   H36       1.0  0.46149  0.38185  0.29903  1.0000
  C   C34       1.0  0.04411  0.02210  0.38095  1.0000
  C   C35       1.0  0.01922  0.04593  0.38197  1.0000
  C   C36       1.0  0.97057  0.02214  0.38097  1.0000
  C   C37       1.0  0.94674  0.97342  0.38202  1.0000
  C   C38       1.0  0.97053  0.94856  0.38101  1.0000
  C   C39       1.0  0.01924  0.97345  0.38205  1.0000
  H   H37       1.0  0.91149  0.95575  0.38182  1.0000
  H   H38       1.0  0.03691  0.95586  0.38178  1.0000
  H   H39       1.0  0.03680  0.08118  0.38172  1.0000
  N   N10       1.0  0.09314  0.04563  0.37883  1.0000
  H   H40       1.0  0.10671  0.07989  0.39444  1.0000
  N   N11       1.0  0.94502  0.89952  0.37893  1.0000
  H   H41       1.0  0.96572  0.88596  0.39458  1.0000
  N   N12       1.0  0.94703  0.04764  0.37887  1.0000
  H   H42       1.0  0.91278  0.02694  0.39453  1.0000
  C   C40       1.0  0.46713  0.22182  0.33008  1.0000
  C   C41       1.0  0.47532  0.26602  0.35518  1.0000
  C   C42       1.0  0.44098  0.27837  0.34541  1.0000
  C   C43       1.0  0.39770  0.24571  0.31014  1.0000
  C   C44       1.0  0.38853  0.20134  0.28564  1.0000
  C   C45       1.0  0.42352  0.18986  0.29487  1.0000
  H   H43       1.0  0.37245  0.25418  0.30305  1.0000
  H   H44       1.0  0.41721  0.15806  0.27469  1.0000
  H   H45       1.0  0.50689  0.28972  0.37973  1.0000
  N   N13       1.0  0.50245  0.21005  0.33217  1.0000
  H   H46       1.0  0.53434  0.23877  0.34126  1.0000
  N   N14       1.0  0.34407  0.16985  0.25319  1.0000
  H   H47       1.0  0.34682  0.15647  0.19334  1.0000
  N   N15       1.0  0.45037  0.32298  0.37148  1.0000
  H   H48       1.0  0.42096  0.32309  0.39052  1.0000
  C   C46       1.0  0.77080  0.24540  0.33015  1.0000
  C   C47       1.0  0.72659  0.20938  0.35524  1.0000
  C   C48       1.0  0.71423  0.16269  0.34546  1.0000
  C   C49       1.0  0.74689  0.15207  0.31018  1.0000
  C   C50       1.0  0.79126  0.18726  0.28568  1.0000
  C   C51       1.0  0.80275  0.23374  0.29493  1.0000
  H   H49       1.0  0.73842  0.11835  0.30309  1.0000
  H   H50       1.0  0.83455  0.25923  0.27472  1.0000
  H   H51       1.0  0.70289  0.21726  0.37978  1.0000
  N   N16       1.0  0.78256  0.29247  0.33221  1.0000
  H   H52       1.0  0.75385  0.29566  0.34132  1.0000
  N   N17       1.0  0.82275  0.17430  0.25323  1.0000
  H   H53       1.0  0.83612  0.19042  0.19337  1.0000
  N   N18       1.0  0.66963  0.12748  0.37152  1.0000
  H   H54       1.0  0.66952  0.09795  0.39058  1.0000
  C   C52       1.0  0.74721  0.52550  0.33013  1.0000
  C   C53       1.0  0.78323  0.51731  0.35518  1.0000
  C   C54       1.0  0.82992  0.55164  0.34541  1.0000
  C   C55       1.0  0.84054  0.59493  0.31018  1.0000
  C   C56       1.0  0.80535  0.60412  0.28573  1.0000
  C   C57       1.0  0.75887  0.56913  0.29497  1.0000
  H   H55       1.0  0.87426  0.62018  0.30308  1.0000
  H   H56       1.0  0.73338  0.57544  0.27480  1.0000
  H   H57       1.0  0.77535  0.48573  0.37969  1.0000
  N   N19       1.0  0.70013  0.49019  0.33221  1.0000
  H   H58       1.0  0.69695  0.45829  0.34128  1.0000
  N   N20       1.0  0.81832  0.64857  0.25329  1.0000
  H   H59       1.0  0.80219  0.64583  0.19344  1.0000
  N   N21       1.0  0.86513  0.54223  0.37141  1.0000
  H   H60       1.0  0.89467  0.57165  0.39043  1.0000
  C   C58       1.0  0.26285  0.11006  0.30099  1.0000
  C   C59       1.0  0.18607  0.05436  0.35912  1.0000
  C   C60       1.0  0.23432  0.07603  0.36351  1.0000
  H   H61       1.0  0.24866  0.06685  0.41412  1.0000
  H   H62       1.0  0.16700  0.03001  0.40608  1.0000
  C   C61       1.0  0.29778  0.17751  0.64039  1.0000
  H   H63       1.0  0.27336  0.14520  0.60778  1.0000
  H   H64       1.0  0.31665  0.20295  0.58855  1.0000
  C   C62       1.0  0.31377  0.13230  0.31559  1.0000
  H   H65       1.0  0.32348  0.10558  0.31375  1.0000
  H   H66       1.0  0.32021  0.14639  0.38339  1.0000
  C   C63       1.0  0.88255  0.15288  0.30102  1.0000
  C   C64       1.0  0.93827  0.13182  0.35916  1.0000
  C   C65       1.0  0.91658  0.15839  0.36355  1.0000
  H   H67       1.0  0.92576  0.18191  0.41416  1.0000
  H   H68       1.0  0.96261  0.13711  0.40612  1.0000
  C   C66       1.0  0.81520  0.12040  0.64036  1.0000
  H   H69       1.0  0.84751  0.12827  0.60779  1.0000
  H   H70       1.0  0.78978  0.11385  0.58849  1.0000
  C   C67       1.0  0.86031  0.18156  0.31562  1.0000
  H   H71       1.0  0.88703  0.21799  0.31377  1.0000
  H   H72       1.0  0.84622  0.17391  0.38342  1.0000
  C   C68       1.0  0.83974  0.72979  0.30108  1.0000
  C   C69       1.0  0.86083  0.80658  0.35923  1.0000
  C   C70       1.0  0.83425  0.75832  0.36362  1.0000
  H   H73       1.0  0.81072  0.74399  0.41422  1.0000
  H   H74       1.0  0.85554  0.82564  0.40618  1.0000
  C   C71       1.0  0.87232  0.69493  0.64047  1.0000
  H   H75       1.0  0.86449  0.71939  0.60788  1.0000
  H   H76       1.0  0.87889  0.67606  0.58863  1.0000
  C   C72       1.0  0.81108  0.67888  0.31571  1.0000
  H   H77       1.0  0.77465  0.66916  0.31391  1.0000
  H   H78       1.0  0.81875  0.67244  0.38350  1.0000
  C   C73       1.0  0.59649  0.14934  0.42519  1.0000
  C   C74       1.0  0.56353  0.16293  0.44653  1.0000
  C   C75       1.0  0.53087  0.15928  0.38217  1.0000
  N   N22       1.0  0.56425  0.17895  0.53036  1.0000
  C   C76       1.0  0.59436  0.18247  0.59454  1.0000
  C   C77       1.0  0.62694  0.16897  0.57406  1.0000
  N   N23       1.0  0.62630  0.15324  0.49065  1.0000
  H   H79       1.0  0.59326  0.19488  0.65614  1.0000
  N   N24       1.0  0.66043  0.17118  0.63381  1.0000
  H   H80       1.0  0.67872  0.20385  0.65972  1.0000
  C   C78       1.0  0.49650  0.17444  0.39851  1.0000
  H   H81       1.0  0.49930  0.18832  0.46566  1.0000
  H   H82       1.0  0.46219  0.14404  0.39274  1.0000
  C   C79       1.0  0.84328  0.44724  0.42513  1.0000
  C   C80       1.0  0.82971  0.40070  0.44649  1.0000
  C   C81       1.0  0.83335  0.37168  0.38215  1.0000
  N   N25       1.0  0.81370  0.38542  0.53034  1.0000
  C   C82       1.0  0.81019  0.41202  0.59451  1.0000
  C   C83       1.0  0.82368  0.45808  0.57401  1.0000
  N   N26       1.0  0.83939  0.47316  0.49057  1.0000
  H   H83       1.0  0.79780  0.39852  0.65613  1.0000
  N   N27       1.0  0.82148  0.48938  0.63374  1.0000
  H   H84       1.0  0.78881  0.47500  0.65967  1.0000
  C   C84       1.0  0.81819  0.32215  0.39851  1.0000
  H   H85       1.0  0.80433  0.31110  0.46568  1.0000
  H   H86       1.0  0.84859  0.31824  0.39272  1.0000
  C   C85       1.0  0.54537  0.39611  0.42518  1.0000
  C   C86       1.0  0.59191  0.42908  0.44653  1.0000
  C   C87       1.0  0.62093  0.46175  0.38218  1.0000
  N   N28       1.0  0.60721  0.42836  0.53037  1.0000
  C   C88       1.0  0.58061  0.39825  0.59454  1.0000
  C   C89       1.0  0.53454  0.36567  0.57406  1.0000
  N   N29       1.0  0.51945  0.36631  0.49063  1.0000
  H   H87       1.0  0.59411  0.39935  0.65616  1.0000
  N   N30       1.0  0.50325  0.33217  0.63379  1.0000
  H   H88       1.0  0.51763  0.31389  0.65972  1.0000
  C   C90       1.0  0.67046  0.49612  0.39854  1.0000
  H   H89       1.0  0.68152  0.49331  0.46570  1.0000
  H   H90       1.0  0.67437  0.53043  0.39277  1.0000
