data_image0
_chemical_formula_structural       C4NC4NH4N2C4NC4NH4N2C4NC4NH4N2C2HC6H3CHC2HC6H3CHC2HC6H3CHC2HC6H3CHC2HC6H3CHC2HC6H3CHC2HC2H3N2C2HC2H3N2C2HC2H3N2C2NCNC2H3CH3CHC2NCNC2H3CH3CHC2NCNC2H3CH3CHC2NCNC2H3CH3CHC2NCNC2H3CH3CHC2NCNC2H3CH3CH
_chemical_formula_sum              "C132 N30 H96"
_cell_length_a       38.7195
_cell_length_b       38.7196
_cell_length_c       14.9925
_cell_angle_alpha    90
_cell_angle_beta     90
_cell_angle_gamma    120

_space_group_name_H-M_alt    "P 1"
_space_group_IT_number       1

loop_
  _space_group_symop_operation_xyz
  'x, y, z'

loop_
  _atom_site_type_symbol
  _atom_site_label
  _atom_site_symmetry_multiplicity
  _atom_site_fract_x
  _atom_site_fract_y
  _atom_site_fract_z
  _atom_site_occupancy
  C   C1        1.0  0.97875  0.48967  0.32047  1.0000
  C   C2        1.0  0.89251  0.44796  0.31383  1.0000
  C   C3        1.0  0.91373  0.42693  0.30671  1.0000
  C   C4        1.0  0.95577  0.44784  0.30599  1.0000
  N   N1        1.0  0.85185  0.42823  0.30711  1.0000
  C   C5        1.0  0.02214  0.51089  0.32071  1.0000
  C   C6        1.0  0.04515  0.55272  0.30637  1.0000
  C   C7        1.0  0.08719  0.57363  0.30759  1.0000
  C   C8        1.0  0.10840  0.55260  0.31506  1.0000
  N   N2        1.0  0.14907  0.57232  0.30884  1.0000
  H   H1        1.0  0.16445  0.60066  0.29588  1.0000
  H   H2        1.0  0.83651  0.39991  0.29397  1.0000
  H   H3        1.0  0.96935  0.43148  0.29435  1.0000
  H   H4        1.0  0.03160  0.56908  0.29445  1.0000
  N   N3        1.0  0.10618  0.61322  0.30134  1.0000
  N   N4        1.0  0.89475  0.38733  0.30057  1.0000
  C   C9        1.0  0.51091  0.48898  0.32210  1.0000
  C   C10       1.0  0.55277  0.44459  0.31777  1.0000
  C   C11       1.0  0.57368  0.48678  0.30899  1.0000
  C   C12       1.0  0.55270  0.50782  0.30717  1.0000
  N   N5        1.0  0.57258  0.42370  0.31228  1.0000
  C   C13       1.0  0.48968  0.51112  0.32164  1.0000
  C   C14       1.0  0.44787  0.49220  0.30707  1.0000
  C   C15       1.0  0.42690  0.51326  0.30782  1.0000
  C   C16       1.0  0.44784  0.55551  0.31513  1.0000
  N   N6        1.0  0.42803  0.57636  0.30866  1.0000
  H   H5        1.0  0.39969  0.56333  0.29569  1.0000
  H   H6        1.0  0.60089  0.43665  0.29908  1.0000
  H   H7        1.0  0.56895  0.53768  0.29449  1.0000
  H   H8        1.0  0.43158  0.46225  0.29539  1.0000
  N   N7        1.0  0.38732  0.49259  0.30157  1.0000
  N   N8        1.0  0.61325  0.50743  0.30228  1.0000
  C   C17       1.0  0.51139  0.02192  0.32245  1.0000
  C   C18       1.0  0.55583  0.10815  0.31668  1.0000
  C   C19       1.0  0.51359  0.08689  0.30897  1.0000
  C   C20       1.0  0.49251  0.04485  0.30785  1.0000
  N   N9        1.0  0.57673  0.14882  0.31051  1.0000
  C   C21       1.0  0.48923  0.97854  0.32261  1.0000
  C   C22       1.0  0.50806  0.95558  0.30773  1.0000
  C   C23       1.0  0.48700  0.91355  0.30930  1.0000
  C   C24       1.0  0.44480  0.89229  0.31777  1.0000
  N   N10       1.0  0.42390  0.85160  0.31204  1.0000
  H   H9        1.0  0.43685  0.83621  0.29914  1.0000
  H   H10       1.0  0.56374  0.16420  0.29773  1.0000
  H   H11       1.0  0.46259  0.03122  0.29589  1.0000
  H   H12       1.0  0.53794  0.96919  0.29527  1.0000
  N   N11       1.0  0.50764  0.89462  0.30262  1.0000
  N   N12       1.0  0.49295  0.10583  0.30255  1.0000
  C   C25       1.0  0.26778  0.46710  0.26200  1.0000
  C   C26       1.0  0.30730  0.47492  0.27113  1.0000
  H   H13       1.0  0.32627  0.48709  0.21798  1.0000
  C   C27       1.0  0.20431  0.44981  0.33420  1.0000
  C   C28       1.0  0.13134  0.44912  0.33407  1.0000
  C   C29       1.0  0.15404  0.45786  0.25481  1.0000
  C   C30       1.0  0.19087  0.45870  0.25401  1.0000
  C   C31       1.0  0.21538  0.47015  0.17748  1.0000
  C   C32       1.0  0.25362  0.47446  0.18154  1.0000
  H   H14       1.0  0.20628  0.47702  0.11935  1.0000
  H   H15       1.0  0.27150  0.48436  0.12626  1.0000
  H   H16       1.0  0.14478  0.46586  0.19835  1.0000
  C   C33       1.0  0.09898  0.45493  0.33573  1.0000
  H   H17       1.0  0.07147  0.43180  0.33876  1.0000
  C   C34       1.0  0.53312  0.80059  0.26212  1.0000
  C   C35       1.0  0.52536  0.83233  0.27151  1.0000
  H   H18       1.0  0.51317  0.83919  0.21850  1.0000
  C   C36       1.0  0.55038  0.75431  0.33390  1.0000
  C   C37       1.0  0.55112  0.68205  0.33324  1.0000
  C   C38       1.0  0.54226  0.69603  0.25418  1.0000
  C   C39       1.0  0.54144  0.73204  0.25362  1.0000
  C   C40       1.0  0.52996  0.74517  0.17724  1.0000
  C   C41       1.0  0.52568  0.77912  0.18156  1.0000
  H   H19       1.0  0.52306  0.72926  0.11905  1.0000
  H   H20       1.0  0.51578  0.78716  0.12639  1.0000
  H   H21       1.0  0.53431  0.67885  0.19760  1.0000
  C   C42       1.0  0.54542  0.64392  0.33467  1.0000
  H   H22       1.0  0.56861  0.63960  0.33606  1.0000
  C   C43       1.0  0.19998  0.73292  0.26130  1.0000
  C   C44       1.0  0.16833  0.69337  0.27055  1.0000
  H   H23       1.0  0.16143  0.67444  0.21729  1.0000
  C   C45       1.0  0.24638  0.79635  0.33339  1.0000
  C   C46       1.0  0.31850  0.86947  0.33241  1.0000
  C   C47       1.0  0.30429  0.84683  0.25315  1.0000
  C   C48       1.0  0.26837  0.80991  0.25278  1.0000
  C   C49       1.0  0.25505  0.78547  0.17617  1.0000
  C   C50       1.0  0.22122  0.74718  0.18051  1.0000
  H   H24       1.0  0.27080  0.79464  0.11777  1.0000
  H   H25       1.0  0.21306  0.72934  0.12515  1.0000
  H   H26       1.0  0.32130  0.85619  0.19633  1.0000
  C   C51       1.0  0.35665  0.90182  0.33333  1.0000
  H   H27       1.0  0.36113  0.92921  0.32543  1.0000
  C   C52       1.0  0.73288  0.53321  0.26236  1.0000
  C   C53       1.0  0.69333  0.52532  0.27158  1.0000
  H   H28       1.0  0.67432  0.51302  0.21854  1.0000
  C   C54       1.0  0.79642  0.55069  0.33444  1.0000
  C   C55       1.0  0.86935  0.55128  0.33454  1.0000
  C   C56       1.0  0.84657  0.54234  0.25535  1.0000
  C   C57       1.0  0.80976  0.54156  0.25443  1.0000
  C   C58       1.0  0.78521  0.52998  0.17795  1.0000
  C   C59       1.0  0.74697  0.52567  0.18200  1.0000
  H   H29       1.0  0.79420  0.52285  0.12003  1.0000
  H   H30       1.0  0.72900  0.51553  0.12690  1.0000
  H   H31       1.0  0.85578  0.53423  0.19899  1.0000
  C   C60       1.0  0.90174  0.54551  0.33640  1.0000
  H   H32       1.0  0.92918  0.56857  0.34202  1.0000
  C   C61       1.0  0.46740  0.19979  0.26201  1.0000
  C   C62       1.0  0.47522  0.16809  0.27149  1.0000
  H   H33       1.0  0.48724  0.16111  0.21835  1.0000
  C   C63       1.0  0.45029  0.24619  0.33370  1.0000
  C   C64       1.0  0.44931  0.31832  0.33237  1.0000
  C   C65       1.0  0.45783  0.30410  0.25325  1.0000
  C   C66       1.0  0.45885  0.26819  0.25308  1.0000
  C   C67       1.0  0.47012  0.25489  0.17666  1.0000
  C   C68       1.0  0.47454  0.22104  0.18121  1.0000
  H   H34       1.0  0.47676  0.27062  0.11823  1.0000
  H   H35       1.0  0.48427  0.21286  0.12596  1.0000
  H   H36       1.0  0.46561  0.32114  0.19646  1.0000
  C   C69       1.0  0.45511  0.35647  0.33315  1.0000
  H   H37       1.0  0.43225  0.36096  0.32444  1.0000
  C   C70       1.0  0.80075  0.26763  0.26105  1.0000
  C   C71       1.0  0.83242  0.30719  0.27012  1.0000
  H   H38       1.0  0.83935  0.32607  0.21678  1.0000
  C   C72       1.0  0.75442  0.20427  0.33341  1.0000
  C   C73       1.0  0.68225  0.13117  0.33289  1.0000
  C   C74       1.0  0.69637  0.15379  0.25357  1.0000
  C   C75       1.0  0.73232  0.19066  0.25294  1.0000
  C   C76       1.0  0.74557  0.21506  0.17624  1.0000
  C   C77       1.0  0.77945  0.25333  0.18037  1.0000
  H   H39       1.0  0.72978  0.20585  0.11791  1.0000
  H   H40       1.0  0.78757  0.27112  0.12493  1.0000
  H   H41       1.0  0.67930  0.14437  0.19684  1.0000
  C   C78       1.0  0.64412  0.09877  0.33418  1.0000
  H   H42       1.0  0.63975  0.07126  0.33147  1.0000
  C   C79       1.0  0.95665  0.50954  0.33346  1.0000
  C   C80       1.0  0.91462  0.48985  0.32731  1.0000
  H   H43       1.0  0.97108  0.53923  0.34759  1.0000
  C   C81       1.0  0.08625  0.51069  0.32827  1.0000
  C   C82       1.0  0.04421  0.49100  0.33401  1.0000
  H   H44       1.0  0.02975  0.46130  0.34809  1.0000
  H   H45       1.0  0.16420  0.55855  0.31322  1.0000
  H   H46       1.0  0.83671  0.44199  0.31120  1.0000
  N   N13       1.0  0.10615  0.49100  0.33120  1.0000
  N   N14       1.0  0.89470  0.50952  0.33015  1.0000
  C   C83       1.0  0.49111  0.44710  0.33636  1.0000
  C   C84       1.0  0.51087  0.42479  0.33122  1.0000
  H   H47       1.0  0.46146  0.43189  0.35112  1.0000
  C   C85       1.0  0.48975  0.57537  0.32845  1.0000
  C   C86       1.0  0.50951  0.55309  0.33458  1.0000
  H   H48       1.0  0.53920  0.56838  0.34883  1.0000
  H   H49       1.0  0.44173  0.60526  0.31294  1.0000
  H   H50       1.0  0.55889  0.39483  0.31744  1.0000
  N   N15       1.0  0.50934  0.61496  0.33131  1.0000
  N   N16       1.0  0.49131  0.38522  0.33538  1.0000
  C   C87       1.0  0.55333  0.04401  0.33575  1.0000
  C   C88       1.0  0.57565  0.08606  0.32993  1.0000
  H   H51       1.0  0.56859  0.02958  0.35013  1.0000
  C   C89       1.0  0.42500  0.91440  0.33116  1.0000
  C   C90       1.0  0.44732  0.95646  0.33655  1.0000
  H   H52       1.0  0.43210  0.97090  0.35124  1.0000
  H   H53       1.0  0.39502  0.83642  0.31726  1.0000
  H   H54       1.0  0.60561  0.16401  0.31526  1.0000
  N   N17       1.0  0.38542  0.89440  0.33513  1.0000
  N   N18       1.0  0.61524  0.10604  0.33317  1.0000
  C   C91       1.0  0.32197  0.46976  0.35386  1.0000
  C   C92       1.0  0.29454  0.45408  0.42635  1.0000
  N   N19       1.0  0.25690  0.44757  0.41509  1.0000
  C   C93       1.0  0.24258  0.45381  0.33790  1.0000
  N   N20       1.0  0.18115  0.44045  0.40834  1.0000
  C   C94       1.0  0.14554  0.43941  0.41197  1.0000
  C   C95       1.0  0.30332  0.44498  0.51676  1.0000
  H   H55       1.0  0.33222  0.44668  0.52117  1.0000
  H   H56       1.0  0.28070  0.41472  0.53543  1.0000
  H   H57       1.0  0.30260  0.46579  0.56478  1.0000
  C   C96       1.0  0.12463  0.43030  0.49886  1.0000
  H   H58       1.0  0.14074  0.42391  0.55002  1.0000
  H   H59       1.0  0.09490  0.40428  0.49217  1.0000
  H   H60       1.0  0.12192  0.45569  0.52103  1.0000
  C   C97       1.0  0.36290  0.48622  0.36622  1.0000
  H   H61       1.0  0.37414  0.49808  0.42560  1.0000
  C   C98       1.0  0.53062  0.85213  0.35432  1.0000
  C   C99       1.0  0.54634  0.84031  0.42659  1.0000
  N   N21       1.0  0.55276  0.80914  0.41511  1.0000
  C   C100      1.0  0.54642  0.78861  0.33785  1.0000
  N   N22       1.0  0.55979  0.74046  0.40788  1.0000
  C   C101      1.0  0.56086  0.70590  0.41125  1.0000
  C   C102      1.0  0.55557  0.85813  0.51707  1.0000
  H   H62       1.0  0.55401  0.88540  0.52166  1.0000
  H   H63       1.0  0.58579  0.86562  0.53562  1.0000
  H   H64       1.0  0.53472  0.83661  0.56508  1.0000
  C   C103      1.0  0.57002  0.69404  0.49800  1.0000
  H   H65       1.0  0.57644  0.71649  0.54927  1.0000
  H   H66       1.0  0.59605  0.69035  0.49111  1.0000
  H   H67       1.0  0.54466  0.66591  0.52013  1.0000
  C   C104      1.0  0.51426  0.87667  0.36710  1.0000
  H   H68       1.0  0.50259  0.87613  0.42668  1.0000
  C   C105      1.0  0.14884  0.67861  0.35356  1.0000
  C   C106      1.0  0.16075  0.70600  0.42615  1.0000
  N   N23       1.0  0.19183  0.74365  0.41477  1.0000
  C   C107      1.0  0.21214  0.75805  0.33733  1.0000
  N   N24       1.0  0.26048  0.81943  0.40760  1.0000
  C   C108      1.0  0.29503  0.85508  0.41086  1.0000
  C   C109      1.0  0.14312  0.69717  0.51683  1.0000
  H   H69       1.0  0.11591  0.66829  0.52141  1.0000
  H   H70       1.0  0.13557  0.71980  0.53598  1.0000
  H   H71       1.0  0.16478  0.69783  0.56440  1.0000
  C   C110      1.0  0.30721  0.87593  0.49776  1.0000
  H   H72       1.0  0.28495  0.85978  0.54933  1.0000
  H   H73       1.0  0.31086  0.90566  0.49151  1.0000
  H   H74       1.0  0.33543  0.87867  0.51907  1.0000
  C   C111      1.0  0.12437  0.63766  0.36588  1.0000
  H   H75       1.0  0.12498  0.62640  0.42525  1.0000
  C   C112      1.0  0.67875  0.53067  0.35423  1.0000
  C   C113      1.0  0.70627  0.54659  0.42650  1.0000
  N   N25       1.0  0.74390  0.55311  0.41520  1.0000
  C   C114      1.0  0.75815  0.54671  0.33811  1.0000
  N   N26       1.0  0.81964  0.56023  0.40850  1.0000
  C   C115      1.0  0.85525  0.56127  0.41221  1.0000
  C   C116      1.0  0.69757  0.55588  0.51682  1.0000
  H   H76       1.0  0.66870  0.55424  0.52120  1.0000
  H   H77       1.0  0.72023  0.58615  0.53525  1.0000
  H   H78       1.0  0.69828  0.53512  0.56504  1.0000
  C   C117      1.0  0.87620  0.57057  0.49907  1.0000
  H   H79       1.0  0.86013  0.57709  0.55007  1.0000
  H   H80       1.0  0.90593  0.59657  0.49215  1.0000
  H   H81       1.0  0.87891  0.54522  0.52161  1.0000
  C   C118      1.0  0.63782  0.51414  0.36679  1.0000
  H   H82       1.0  0.62667  0.50265  0.42649  1.0000
  C   C119      1.0  0.47020  0.14848  0.35446  1.0000
  C   C120      1.0  0.45469  0.16047  0.42687  1.0000
  N   N27       1.0  0.44822  0.19160  0.41529  1.0000
  C   C121      1.0  0.45432  0.21194  0.33784  1.0000
  N   N28       1.0  0.44121  0.26029  0.40776  1.0000
  C   C122      1.0  0.44011  0.29485  0.41086  1.0000
  C   C123      1.0  0.44568  0.14279  0.51748  1.0000
  H   H83       1.0  0.44730  0.11556  0.52218  1.0000
  H   H84       1.0  0.41546  0.13526  0.53629  1.0000
  H   H85       1.0  0.46659  0.16440  0.56525  1.0000
  C   C124      1.0  0.43131  0.30704  0.49759  1.0000
  H   H86       1.0  0.42513  0.28478  0.54922  1.0000
  H   H87       1.0  0.40524  0.31069  0.49107  1.0000
  H   H88       1.0  0.45676  0.33526  0.51902  1.0000
  C   C125      1.0  0.48659  0.12394  0.36706  1.0000
  H   H89       1.0  0.49846  0.12462  0.42645  1.0000
  C   C126      1.0  0.85207  0.32199  0.35298  1.0000
  C   C127      1.0  0.84015  0.29466  0.42569  1.0000
  N   N29       1.0  0.80905  0.25701  0.41450  1.0000
  C   C128      1.0  0.78866  0.24256  0.33716  1.0000
  N   N30       1.0  0.74042  0.18121  0.40766  1.0000
  C   C129      1.0  0.70588  0.14555  0.41113  1.0000
  C   C130      1.0  0.85784  0.30355  0.51631  1.0000
  H   H90       1.0  0.88505  0.33244  0.52075  1.0000
  H   H91       1.0  0.86540  0.28094  0.53553  1.0000
  H   H92       1.0  0.83621  0.30294  0.56392  1.0000
  C   C131      1.0  0.69384  0.12475  0.49810  1.0000
  H   H93       1.0  0.71618  0.14094  0.54951  1.0000
  H   H94       1.0  0.69019  0.09502  0.49185  1.0000
  H   H95       1.0  0.66565  0.12201  0.51965  1.0000
  C   C132      1.0  0.87651  0.36295  0.36516  1.0000
  H   H96       1.0  0.87585  0.37424  0.42444  1.0000
