data_image0
_chemical_formula_structural       CNCNC2N2C2NC2NCNCNCNC18H12CNCNCNC18H12C2NC2NC2NC2NC2N2
_chemical_formula_sum              "C60 N18 H24"
_cell_length_a       29.3668
_cell_length_b       29.3669
_cell_length_c       14.9478
_cell_angle_alpha    90
_cell_angle_beta     90
_cell_angle_gamma    120

_space_group_name_H-M_alt    "P 1"
_space_group_IT_number       1

loop_
  _space_group_symop_operation_xyz
  'x, y, z'

loop_
  _atom_site_type_symbol
  _atom_site_label
  _atom_site_symmetry_multiplicity
  _atom_site_fract_x
  _atom_site_fract_y
  _atom_site_fract_z
  _atom_site_occupancy
  C   C1        1.0  0.02744  0.51415  0.41992  1.0000
  N   N1        1.0  0.03106  0.51597  0.26100  1.0000
  C   C2        1.0  0.04785  0.52436  0.49970  1.0000
  N   N2        1.0  0.48839  0.51596  0.26100  1.0000
  C   C3        1.0  0.51502  0.48934  0.25433  1.0000
  C   C4        1.0  0.52522  0.47913  0.17454  1.0000
  N   N3        1.0  0.53430  0.47004  0.10421  1.0000
  N   N4        1.0  0.48840  0.97330  0.26100  1.0000
  C   C5        1.0  0.51503  0.02656  0.25431  1.0000
  C   C6        1.0  0.52524  0.04697  0.17453  1.0000
  N   N5        1.0  0.53432  0.06513  0.10420  1.0000
  C   C7        1.0  0.97781  0.48934  0.25433  1.0000
  C   C8        1.0  0.95739  0.47914  0.17454  1.0000
  N   N6        1.0  0.93923  0.47006  0.10422  1.0000
  C   C9        1.0  0.36312  0.72274  0.33457  1.0000
  N   N7        1.0  0.38859  0.69473  0.33461  1.0000
  C   C10       1.0  0.36312  0.64125  0.33457  1.0000
  N   N8        1.0  0.30964  0.61578  0.33461  1.0000
  C   C11       1.0  0.28163  0.64125  0.33457  1.0000
  N   N9        1.0  0.30964  0.69473  0.33461  1.0000
  C   C12       1.0  0.39121  0.61316  0.33505  1.0000
  C   C13       1.0  0.44699  0.63996  0.33551  1.0000
  C   C14       1.0  0.47475  0.61237  0.33670  1.0000
  C   C15       1.0  0.44744  0.55693  0.33742  1.0000
  C   C16       1.0  0.39200  0.52962  0.33669  1.0000
  C   C17       1.0  0.36441  0.55738  0.33550  1.0000
  C   C18       1.0  0.39121  0.77893  0.33504  1.0000
  C   C19       1.0  0.44699  0.80790  0.33550  1.0000
  C   C20       1.0  0.47475  0.86325  0.33669  1.0000
  C   C21       1.0  0.44744  0.89138  0.33742  1.0000
  C   C22       1.0  0.39200  0.86325  0.33670  1.0000
  C   C23       1.0  0.36441  0.80790  0.33552  1.0000
  C   C24       1.0  0.22544  0.61316  0.33504  1.0000
  C   C25       1.0  0.19647  0.63996  0.33550  1.0000
  C   C26       1.0  0.14111  0.61237  0.33668  1.0000
  C   C27       1.0  0.11299  0.55693  0.33742  1.0000
  C   C28       1.0  0.14111  0.52962  0.33669  1.0000
  C   C29       1.0  0.19647  0.55738  0.33550  1.0000
  H   H1        1.0  0.51500  0.88282  0.33745  1.0000
  H   H2        1.0  0.46834  0.78905  0.33532  1.0000
  H   H3        1.0  0.37132  0.88282  0.33746  1.0000
  H   H4        1.0  0.32421  0.78905  0.33532  1.0000
  H   H5        1.0  0.21531  0.68015  0.33531  1.0000
  H   H6        1.0  0.12154  0.63305  0.33744  1.0000
  H   H7        1.0  0.21531  0.53603  0.33532  1.0000
  H   H8        1.0  0.12154  0.48937  0.33746  1.0000
  H   H9        1.0  0.32421  0.53603  0.33532  1.0000
  H   H10       1.0  0.37132  0.48937  0.33745  1.0000
  H   H11       1.0  0.51500  0.63305  0.33745  1.0000
  H   H12       1.0  0.46834  0.68015  0.33532  1.0000
  C   C30       1.0  0.64212  0.28075  0.33936  1.0000
  N   N10       1.0  0.61665  0.30876  0.33932  1.0000
  C   C31       1.0  0.64212  0.36224  0.33936  1.0000
  N   N11       1.0  0.69560  0.38771  0.33932  1.0000
  C   C32       1.0  0.72361  0.36224  0.33936  1.0000
  N   N12       1.0  0.69560  0.30876  0.33932  1.0000
  C   C33       1.0  0.61403  0.39034  0.33895  1.0000
  C   C34       1.0  0.55825  0.36353  0.33854  1.0000
  C   C35       1.0  0.53049  0.39113  0.33746  1.0000
  C   C36       1.0  0.55780  0.44656  0.33680  1.0000
  C   C37       1.0  0.61324  0.47387  0.33747  1.0000
  C   C38       1.0  0.64083  0.44611  0.33855  1.0000
  C   C39       1.0  0.61403  0.22456  0.33895  1.0000
  C   C40       1.0  0.55825  0.19559  0.33854  1.0000
  C   C41       1.0  0.53049  0.14024  0.33746  1.0000
  C   C42       1.0  0.55780  0.11211  0.33679  1.0000
  C   C43       1.0  0.61324  0.14024  0.33745  1.0000
  C   C44       1.0  0.64083  0.19559  0.33854  1.0000
  C   C45       1.0  0.77980  0.39034  0.33895  1.0000
  C   C46       1.0  0.80878  0.36353  0.33855  1.0000
  C   C47       1.0  0.86413  0.39113  0.33746  1.0000
  C   C48       1.0  0.89225  0.44656  0.33681  1.0000
  C   C49       1.0  0.86413  0.47387  0.33748  1.0000
  C   C50       1.0  0.80877  0.44611  0.33855  1.0000
  H   H13       1.0  0.49024  0.12067  0.33673  1.0000
  H   H14       1.0  0.53690  0.21444  0.33871  1.0000
  H   H15       1.0  0.63392  0.12067  0.33671  1.0000
  H   H16       1.0  0.68103  0.21444  0.33869  1.0000
  H   H17       1.0  0.78993  0.32334  0.33870  1.0000
  H   H18       1.0  0.88370  0.37045  0.33673  1.0000
  H   H19       1.0  0.78993  0.46746  0.33869  1.0000
  H   H20       1.0  0.88370  0.51413  0.33673  1.0000
  H   H21       1.0  0.68102  0.46746  0.33870  1.0000
  H   H22       1.0  0.63392  0.51412  0.33673  1.0000
  H   H23       1.0  0.49024  0.37045  0.33672  1.0000
  H   H24       1.0  0.53690  0.32334  0.33869  1.0000
  C   C51       1.0  0.47520  0.52916  0.34009  1.0000
  C   C52       1.0  0.53003  0.47433  0.33416  1.0000
  N   N13       1.0  0.51684  0.48753  0.41325  1.0000
  C   C53       1.0  0.49022  0.51416  0.41992  1.0000
  C   C54       1.0  0.48001  0.52437  0.49971  1.0000
  N   N14       1.0  0.47093  0.53345  0.57003  1.0000
  C   C55       1.0  0.47521  0.94692  0.34008  1.0000
  C   C56       1.0  0.53003  0.05657  0.33415  1.0000
  N   N15       1.0  0.51684  0.03019  0.41324  1.0000
  C   C57       1.0  0.49021  0.97694  0.41992  1.0000
  C   C58       1.0  0.48000  0.95652  0.49970  1.0000
  N   N16       1.0  0.47092  0.93836  0.57003  1.0000
  C   C59       1.0  0.05745  0.52916  0.34008  1.0000
  C   C60       1.0  0.94779  0.47433  0.33416  1.0000
  N   N17       1.0  0.97418  0.48753  0.41325  1.0000
  N   N18       1.0  0.06602  0.53344  0.57003  1.0000
