data_image0
_chemical_formula_structural       CNHC3NH2CHC3H2C4HNHC4HCNHNH2C4HCNHNH2CNC4H2NH2CNC4H2NH2CNC4H2NH2CNC4H2NH2CNC4H2NH2CNC4H2NH2CNCNCNC15H10CNCNCNC18H12CNCNCNC18H12CNCNCNC18H12CNCNCNC18H12CNCNCNC18H12CNH2CNC4H2NH2CNC4H2NH2C4HCNHNH2C4HCNHNH2C4HCNHNH2C4HCNHNH2C4HCNHNH2C4HCNHNH2
_chemical_formula_sum              "C216 N54 H144"
_cell_length_a       76.2927
_cell_length_b       76.2927
_cell_length_c       14.9639
_cell_angle_alpha    90
_cell_angle_beta     90
_cell_angle_gamma    120

_space_group_name_H-M_alt    "P 1"
_space_group_IT_number       1

loop_
  _space_group_symop_operation_xyz
  'x, y, z'

loop_
  _atom_site_type_symbol
  _atom_site_label
  _atom_site_symmetry_multiplicity
  _atom_site_fract_x
  _atom_site_fract_y
  _atom_site_fract_z
  _atom_site_occupancy
  C   C1        1.0  0.04383  0.53177  0.27470  1.0000
  N   N1        1.0  0.02334  0.52064  0.27569  1.0000
  H   H1        1.0  0.00479  0.48461  0.19164  1.0000
  C   C2        1.0  0.01247  0.50696  0.34035  1.0000
  C   C3        1.0  0.02294  0.50395  0.41201  1.0000
  C   C4        1.0  0.04438  0.51538  0.41135  1.0000
  N   N2        1.0  0.01340  0.49030  0.47864  1.0000
  H   H2        1.0  0.02101  0.48836  0.52603  1.0000
  H   H3        1.0  0.05069  0.54138  0.22223  1.0000
  C   C5        1.0  0.05532  0.52940  0.34268  1.0000
  H   H4        1.0  0.05219  0.51343  0.46234  1.0000
  C   C6        1.0  0.08805  0.56124  0.32212  1.0000
  C   C7        1.0  0.07698  0.54027  0.34103  1.0000
  C   C8        1.0  0.08810  0.53032  0.35784  1.0000
  H   H5        1.0  0.08075  0.51509  0.37025  1.0000
  H   H6        1.0  0.08066  0.56911  0.31054  1.0000
  C   C9        1.0  0.94827  0.47589  0.32883  1.0000
  C   C10       1.0  0.99112  0.49629  0.33112  1.0000
  C   C11       1.0  0.98065  0.48282  0.25945  1.0000
  C   C12       1.0  0.95921  0.47282  0.26013  1.0000
  H   H7        1.0  0.95139  0.46305  0.20914  1.0000
  N   N3        1.0  0.99018  0.47871  0.19281  1.0000
  H   H8        1.0  0.98257  0.46916  0.14540  1.0000
  C   C13       1.0  0.52718  0.47305  0.32877  1.0000
  C   C14       1.0  0.50680  0.49552  0.33108  1.0000
  C   C15       1.0  0.52027  0.49851  0.25941  1.0000
  C   C16       1.0  0.53026  0.48707  0.26007  1.0000
  H   H9        1.0  0.54002  0.48901  0.20906  1.0000
  C   C17       1.0  0.47130  0.51273  0.27463  1.0000
  N   N4        1.0  0.48244  0.50338  0.27561  1.0000
  H   H10       1.0  0.46169  0.50997  0.22216  1.0000
  N   N5        1.0  0.52438  0.51215  0.19274  1.0000
  H   H11       1.0  0.53394  0.51410  0.14540  1.0000
  H   H12       1.0  0.51850  0.52087  0.19165  1.0000
  C   C18       1.0  0.53002  0.05474  0.32880  1.0000
  C   C19       1.0  0.50759  0.01189  0.33107  1.0000
  C   C20       1.0  0.50458  0.02237  0.25942  1.0000
  C   C21       1.0  0.51601  0.04380  0.26010  1.0000
  H   H13       1.0  0.51406  0.05162  0.20912  1.0000
  C   C22       1.0  0.49037  0.95919  0.27466  1.0000
  N   N6        1.0  0.49973  0.97968  0.27564  1.0000
  H   H14       1.0  0.49312  0.95233  0.22217  1.0000
  N   N7        1.0  0.49094  0.01283  0.19277  1.0000
  H   H15       1.0  0.48900  0.02044  0.14538  1.0000
  H   H16       1.0  0.48225  0.99823  0.19159  1.0000
  C   C23       1.0  0.30314  0.53943  0.24934  1.0000
  N   N8        1.0  0.28374  0.53495  0.25995  1.0000
  C   C24       1.0  0.25362  0.52532  0.33868  1.0000
  C   C25       1.0  0.23927  0.51989  0.26824  1.0000
  C   C26       1.0  0.22399  0.52519  0.27727  1.0000
  C   C27       1.0  0.22296  0.53577  0.35286  1.0000
  H   H17       1.0  0.21417  0.52232  0.22534  1.0000
  H   H18       1.0  0.31071  0.54719  0.19329  1.0000
  N   N9        1.0  0.23977  0.51002  0.19346  1.0000
  H   H19       1.0  0.24937  0.50526  0.18699  1.0000
  H   H20       1.0  0.22964  0.50624  0.14669  1.0000
  C   C28       1.0  0.46357  0.76431  0.24934  1.0000
  N   N10       1.0  0.46804  0.74938  0.25998  1.0000
  C   C29       1.0  0.47767  0.72890  0.33871  1.0000
  C   C30       1.0  0.48310  0.71997  0.26828  1.0000
  C   C31       1.0  0.47777  0.69939  0.27729  1.0000
  C   C32       1.0  0.46722  0.68778  0.35294  1.0000
  H   H21       1.0  0.48069  0.69245  0.22545  1.0000
  H   H22       1.0  0.45581  0.76411  0.19329  1.0000
  N   N11       1.0  0.49298  0.73033  0.19353  1.0000
  H   H23       1.0  0.49775  0.74470  0.18708  1.0000
  H   H24       1.0  0.49676  0.72399  0.14675  1.0000
  C   C33       1.0  0.23871  0.69983  0.24919  1.0000
  N   N12       1.0  0.25364  0.71923  0.25979  1.0000
  C   C34       1.0  0.27416  0.74931  0.33862  1.0000
  C   C35       1.0  0.28307  0.76368  0.26825  1.0000
  C   C36       1.0  0.30365  0.77897  0.27729  1.0000
  C   C37       1.0  0.31525  0.78002  0.35294  1.0000
  H   H25       1.0  0.31058  0.78881  0.22541  1.0000
  H   H26       1.0  0.23886  0.69227  0.19305  1.0000
  N   N13       1.0  0.27270  0.76318  0.19346  1.0000
  H   H27       1.0  0.25831  0.75367  0.18735  1.0000
  H   H28       1.0  0.27901  0.77342  0.14708  1.0000
  C   C38       1.0  0.69848  0.46248  0.24994  1.0000
  N   N14       1.0  0.71797  0.46726  0.26052  1.0000
  C   C39       1.0  0.74810  0.47717  0.33928  1.0000
  C   C40       1.0  0.76256  0.48291  0.26910  1.0000
  C   C41       1.0  0.77806  0.47791  0.27816  1.0000
  C   C42       1.0  0.77923  0.46737  0.35359  1.0000
  H   H29       1.0  0.78796  0.48100  0.22638  1.0000
  H   H30       1.0  0.69098  0.45467  0.19389  1.0000
  N   N15       1.0  0.76197  0.49278  0.19455  1.0000
  H   H31       1.0  0.75220  0.49734  0.18805  1.0000
  H   H32       1.0  0.77217  0.49678  0.14796  1.0000
  C   C43       1.0  0.54054  0.23663  0.25006  1.0000
  N   N16       1.0  0.53577  0.25135  0.26067  1.0000
  C   C44       1.0  0.52577  0.27153  0.33950  1.0000
  C   C45       1.0  0.52010  0.28027  0.26918  1.0000
  C   C46       1.0  0.52509  0.30076  0.27820  1.0000
  C   C47       1.0  0.53561  0.31247  0.35369  1.0000
  H   H33       1.0  0.52203  0.30758  0.22635  1.0000
  H   H34       1.0  0.54833  0.23693  0.19396  1.0000
  N   N17       1.0  0.51027  0.26981  0.19452  1.0000
  H   H35       1.0  0.50571  0.25549  0.18808  1.0000
  H   H36       1.0  0.50630  0.27602  0.14784  1.0000
  C   C48       1.0  0.76639  0.30452  0.24996  1.0000
  N   N18       1.0  0.75167  0.28503  0.26059  1.0000
  C   C49       1.0  0.73149  0.25486  0.33945  1.0000
  C   C50       1.0  0.72275  0.24044  0.26914  1.0000
  C   C51       1.0  0.70225  0.22496  0.27814  1.0000
  C   C52       1.0  0.69054  0.22375  0.35367  1.0000
  H   H37       1.0  0.69544  0.21505  0.22638  1.0000
  H   H38       1.0  0.76609  0.31201  0.19385  1.0000
  N   N19       1.0  0.73322  0.24106  0.19452  1.0000
  H   H39       1.0  0.74754  0.25081  0.18810  1.0000
  H   H40       1.0  0.72700  0.23088  0.14784  1.0000
  C   C53       1.0  0.17366  0.60382  0.32807  1.0000
  N   N20       1.0  0.15306  0.59330  0.32961  1.0000
  C   C54       1.0  0.14222  0.57268  0.33659  1.0000
  N   N21       1.0  0.15285  0.56267  0.34279  1.0000
  C   C55       1.0  0.17343  0.57247  0.34277  1.0000
  N   N22       1.0  0.18313  0.59288  0.33509  1.0000
  C   C56       1.0  0.12057  0.56195  0.33777  1.0000
  C   C57       1.0  0.10937  0.57186  0.32109  1.0000
  C   C58       1.0  0.10940  0.54090  0.35584  1.0000
  C   C59       1.0  0.18559  0.62530  0.32094  1.0000
  C   C60       1.0  0.17772  0.63820  0.34043  1.0000
  C   C61       1.0  0.19026  0.65946  0.33880  1.0000
  C   C62       1.0  0.21096  0.66854  0.31535  1.0000
  C   C63       1.0  0.21870  0.65565  0.29418  1.0000
  C   C64       1.0  0.20631  0.63453  0.29706  1.0000
  C   C65       1.0  0.18509  0.56263  0.34956  1.0000
  C   C66       1.0  0.20585  0.57385  0.37310  1.0000
  C   C67       1.0  0.21794  0.56480  0.37605  1.0000
  C   C68       1.0  0.20986  0.54410  0.35518  1.0000
  C   C69       1.0  0.18912  0.53275  0.33193  1.0000
  C   C70       1.0  0.17688  0.54180  0.33035  1.0000
  H   H41       1.0  0.18410  0.66828  0.35488  1.0000
  H   H42       1.0  0.16292  0.63225  0.35911  1.0000
  H   H43       1.0  0.23371  0.66148  0.27931  1.0000
  H   H44       1.0  0.21284  0.62599  0.28206  1.0000
  H   H45       1.0  0.21260  0.58894  0.38792  1.0000
  H   H46       1.0  0.23299  0.57377  0.39073  1.0000
  H   H47       1.0  0.16204  0.53313  0.31191  1.0000
  H   H48       1.0  0.18274  0.51774  0.31606  1.0000
  H   H49       1.0  0.11664  0.53293  0.36840  1.0000
  H   H50       1.0  0.11662  0.58703  0.30748  1.0000
  C   C71       1.0  0.39916  0.57042  0.32818  1.0000
  N   N23       1.0  0.40969  0.56035  0.32971  1.0000
  C   C72       1.0  0.43031  0.57014  0.33666  1.0000
  N   N24       1.0  0.44031  0.59077  0.34285  1.0000
  C   C73       1.0  0.43051  0.60155  0.34281  1.0000
  N   N25       1.0  0.41010  0.59084  0.33517  1.0000
  C   C74       1.0  0.44106  0.55923  0.33784  1.0000
  C   C75       1.0  0.43116  0.53812  0.32114  1.0000
  C   C76       1.0  0.44180  0.52743  0.32213  1.0000
  C   C77       1.0  0.46277  0.53735  0.34104  1.0000
  C   C78       1.0  0.47270  0.55841  0.35788  1.0000
  C   C79       1.0  0.46210  0.56912  0.35590  1.0000
  C   C80       1.0  0.37768  0.56087  0.32107  1.0000
  C   C81       1.0  0.36478  0.54010  0.34065  1.0000
  C   C82       1.0  0.34353  0.53138  0.33896  1.0000
  C   C83       1.0  0.33444  0.54299  0.31549  1.0000
  C   C84       1.0  0.34733  0.56363  0.29435  1.0000
  C   C85       1.0  0.36845  0.57235  0.29718  1.0000
  C   C86       1.0  0.44035  0.62306  0.34958  1.0000
  C   C87       1.0  0.42913  0.63259  0.37307  1.0000
  C   C88       1.0  0.43817  0.65373  0.37599  1.0000
  C   C89       1.0  0.45888  0.66635  0.35519  1.0000
  C   C90       1.0  0.47023  0.65696  0.33203  1.0000
  C   C91       1.0  0.46119  0.63567  0.33043  1.0000
  H   H51       1.0  0.33471  0.51641  0.35504  1.0000
  H   H52       1.0  0.37074  0.53125  0.35923  1.0000
  H   H53       1.0  0.34150  0.57280  0.27950  1.0000
  H   H54       1.0  0.37699  0.58743  0.28220  1.0000
  H   H55       1.0  0.41403  0.62425  0.38786  1.0000
  H   H56       1.0  0.42920  0.65981  0.39068  1.0000
  H   H57       1.0  0.46985  0.62949  0.31208  1.0000
  H   H58       1.0  0.48524  0.66558  0.31624  1.0000
  H   H59       1.0  0.47007  0.58433  0.36847  1.0000
  H   H60       1.0  0.48793  0.56631  0.37026  1.0000
  H   H61       1.0  0.43394  0.51217  0.31052  1.0000
  H   H62       1.0  0.41599  0.53019  0.30752  1.0000
  C   C92       1.0  0.43260  0.82936  0.32814  1.0000
  N   N26       1.0  0.44267  0.84995  0.32964  1.0000
  C   C93       1.0  0.43289  0.86079  0.33659  1.0000
  N   N27       1.0  0.41226  0.85016  0.34283  1.0000
  C   C94       1.0  0.40148  0.82958  0.34285  1.0000
  N   N28       1.0  0.41218  0.81988  0.33520  1.0000
  C   C95       1.0  0.44381  0.88244  0.33775  1.0000
  C   C96       1.0  0.46492  0.89364  0.32105  1.0000
  C   C97       1.0  0.47562  0.91497  0.32208  1.0000
  C   C98       1.0  0.46572  0.92604  0.34098  1.0000
  C   C99       1.0  0.44466  0.91492  0.35780  1.0000
  C   C100      1.0  0.43394  0.89362  0.35582  1.0000
  C   C101      1.0  0.44215  0.81742  0.32104  1.0000
  C   C102      1.0  0.46292  0.82530  0.34045  1.0000
  C   C103      1.0  0.47164  0.81277  0.33884  1.0000
  C   C104      1.0  0.46002  0.79205  0.31549  1.0000
  C   C105      1.0  0.43938  0.78431  0.29440  1.0000
  C   C106      1.0  0.43065  0.79669  0.29727  1.0000
  C   C107      1.0  0.37998  0.81792  0.34968  1.0000
  C   C108      1.0  0.37045  0.79718  0.37337  1.0000
  C   C109      1.0  0.34930  0.78507  0.37633  1.0000
  C   C110      1.0  0.33668  0.79314  0.35532  1.0000
  C   C111      1.0  0.34607  0.81387  0.33193  1.0000
  C   C112      1.0  0.36735  0.82612  0.33034  1.0000
  H   H63       1.0  0.48662  0.81892  0.35484  1.0000
  H   H64       1.0  0.47178  0.84011  0.35906  1.0000
  H   H65       1.0  0.43021  0.76930  0.27961  1.0000
  H   H66       1.0  0.41558  0.79016  0.28233  1.0000
  H   H67       1.0  0.37880  0.79043  0.38829  1.0000
  H   H68       1.0  0.34324  0.77004  0.39110  1.0000
  H   H69       1.0  0.37353  0.84096  0.31179  1.0000
  H   H70       1.0  0.33744  0.82024  0.31593  1.0000
  H   H71       1.0  0.41872  0.88637  0.36838  1.0000
  H   H72       1.0  0.43677  0.92226  0.37020  1.0000
  H   H73       1.0  0.49089  0.92236  0.31048  1.0000
  H   H74       1.0  0.47284  0.88639  0.30745  1.0000
  C   C113      1.0  0.83017  0.40084  0.32873  1.0000
  N   N29       1.0  0.85075  0.41163  0.32873  1.0000
  C   C114      1.0  0.86137  0.43227  0.33492  1.0000
  N   N30       1.0  0.85053  0.44204  0.34182  1.0000
  C   C115      1.0  0.82993  0.43197  0.34331  1.0000
  N   N31       1.0  0.82046  0.41155  0.33632  1.0000
  C   C116      1.0  0.88302  0.44319  0.33375  1.0000
  C   C117      1.0  0.89420  0.43332  0.31569  1.0000
  C   C118      1.0  0.91550  0.44404  0.31371  1.0000
  C   C119      1.0  0.92662  0.46510  0.33050  1.0000
  C   C120      1.0  0.91555  0.47500  0.34943  1.0000
  C   C121      1.0  0.89422  0.46430  0.35044  1.0000
  C   C122      1.0  0.81851  0.37934  0.32196  1.0000
  C   C123      1.0  0.82672  0.36672  0.34125  1.0000
  C   C124      1.0  0.81449  0.34544  0.33957  1.0000
  C   C125      1.0  0.79375  0.33604  0.31630  1.0000
  C   C126      1.0  0.78566  0.34865  0.29548  1.0000
  C   C127      1.0  0.79776  0.36980  0.29840  1.0000
  C   C128      1.0  0.81799  0.44151  0.35036  1.0000
  C   C129      1.0  0.79726  0.43001  0.37407  1.0000
  C   C130      1.0  0.78487  0.43872  0.37689  1.0000
  C   C131      1.0  0.79261  0.45937  0.35589  1.0000
  C   C132      1.0  0.81333  0.47100  0.33264  1.0000
  C   C133      1.0  0.82587  0.46228  0.33099  1.0000
  H   H75       1.0  0.82088  0.33682  0.35542  1.0000
  H   H76       1.0  0.84158  0.37291  0.35957  1.0000
  H   H77       1.0  0.77062  0.34258  0.28076  1.0000
  H   H78       1.0  0.79100  0.37814  0.28358  1.0000
  H   H79       1.0  0.79072  0.41493  0.38896  1.0000
  H   H80       1.0  0.76985  0.42955  0.39164  1.0000
  H   H81       1.0  0.84068  0.47115  0.31255  1.0000
  H   H82       1.0  0.81949  0.48599  0.31673  1.0000
  H   H83       1.0  0.88697  0.47221  0.36404  1.0000
  H   H84       1.0  0.92294  0.49027  0.36098  1.0000
  H   H85       1.0  0.92285  0.43615  0.30129  1.0000
  H   H86       1.0  0.88696  0.41810  0.30314  1.0000
  C   C134      1.0  0.60216  0.42993  0.32874  1.0000
  N   N32       1.0  0.59138  0.43972  0.32869  1.0000
  C   C135      1.0  0.57075  0.42972  0.33487  1.0000
  N   N33       1.0  0.56096  0.40910  0.34182  1.0000
  C   C136      1.0  0.57103  0.39858  0.34336  1.0000
  N   N34       1.0  0.59145  0.40952  0.33638  1.0000
  C   C137      1.0  0.55984  0.44047  0.33366  1.0000
  C   C138      1.0  0.56972  0.46151  0.31560  1.0000
  C   C139      1.0  0.55901  0.47210  0.31362  1.0000
  C   C140      1.0  0.53795  0.46217  0.33042  1.0000
  C   C141      1.0  0.52804  0.44120  0.34932  1.0000
  C   C142      1.0  0.53873  0.43056  0.35034  1.0000
  C   C143      1.0  0.62367  0.43977  0.32198  1.0000
  C   C144      1.0  0.63628  0.46061  0.34109  1.0000
  C   C145      1.0  0.65756  0.46966  0.33949  1.0000
  C   C146      1.0  0.66697  0.45831  0.31636  1.0000
  C   C147      1.0  0.65435  0.43761  0.29561  1.0000
  C   C148      1.0  0.63321  0.42855  0.29855  1.0000
  C   C149      1.0  0.56148  0.37709  0.35045  1.0000
  C   C150      1.0  0.57297  0.36786  0.37429  1.0000
  C   C151      1.0  0.56424  0.34674  0.37718  1.0000
  C   C152      1.0  0.54360  0.33385  0.35605  1.0000
  C   C153      1.0  0.53199  0.34295  0.33262  1.0000
  C   C154      1.0  0.54071  0.36420  0.33097  1.0000
  H   H87       1.0  0.66619  0.48467  0.35527  1.0000
  H   H88       1.0  0.63009  0.46927  0.35943  1.0000
  H   H89       1.0  0.66043  0.42864  0.28096  1.0000
  H   H90       1.0  0.62487  0.41345  0.28381  1.0000
  H   H91       1.0  0.58804  0.37639  0.38926  1.0000
  H   H92       1.0  0.57341  0.34090  0.39198  1.0000
  H   H93       1.0  0.53186  0.37015  0.31237  1.0000
  H   H94       1.0  0.51701  0.33412  0.31658  1.0000
  H   H95       1.0  0.53080  0.41539  0.36395  1.0000
  H   H96       1.0  0.51277  0.43334  0.36089  1.0000
  H   H97       1.0  0.56691  0.48734  0.30122  1.0000
  H   H98       1.0  0.58494  0.46948  0.30306  1.0000
  C   C155      1.0  0.57308  0.17285  0.32875  1.0000
  N   N35       1.0  0.56329  0.15227  0.32875  1.0000
  C   C156      1.0  0.57330  0.14164  0.33492  1.0000
  N   N36       1.0  0.59392  0.15248  0.34182  1.0000
  C   C157      1.0  0.60444  0.17308  0.34332  1.0000
  N   N37       1.0  0.59349  0.18255  0.33634  1.0000
  C   C158      1.0  0.56256  0.11999  0.33374  1.0000
  C   C159      1.0  0.54152  0.10881  0.31569  1.0000
  C   C160      1.0  0.53094  0.08751  0.31369  1.0000
  C   C161      1.0  0.54089  0.07640  0.33048  1.0000
  C   C162      1.0  0.56186  0.08747  0.34941  1.0000
  C   C163      1.0  0.57248  0.10879  0.35043  1.0000
  C   C164      1.0  0.56324  0.18451  0.32200  1.0000
  C   C165      1.0  0.54241  0.17630  0.34132  1.0000
  C   C166      1.0  0.53337  0.18854  0.33968  1.0000
  C   C167      1.0  0.54471  0.20928  0.31640  1.0000
  C   C168      1.0  0.56541  0.21736  0.29554  1.0000
  C   C169      1.0  0.57446  0.20526  0.29843  1.0000
  C   C170      1.0  0.62592  0.18502  0.35037  1.0000
  C   C171      1.0  0.63516  0.20574  0.37412  1.0000
  C   C172      1.0  0.65627  0.21813  0.37697  1.0000
  C   C173      1.0  0.66916  0.21038  0.35595  1.0000
  C   C174      1.0  0.66007  0.18966  0.33266  1.0000
  C   C175      1.0  0.63882  0.17713  0.33098  1.0000
  H   H99       1.0  0.51836  0.18215  0.35556  1.0000
  H   H100      1.0  0.53375  0.16145  0.35965  1.0000
  H   H101      1.0  0.57438  0.23241  0.28082  1.0000
  H   H102      1.0  0.58955  0.21202  0.28360  1.0000
  H   H103      1.0  0.62662  0.21228  0.38903  1.0000
  H   H104      1.0  0.66211  0.23314  0.39176  1.0000
  H   H105      1.0  0.63286  0.16232  0.31252  1.0000
  H   H106      1.0  0.66889  0.18350  0.31673  1.0000
  H   H107      1.0  0.58765  0.11605  0.36402  1.0000
  H   H108      1.0  0.56973  0.08008  0.36095  1.0000
  H   H109      1.0  0.51571  0.08017  0.30127  1.0000
  H   H110      1.0  0.53354  0.11606  0.30313  1.0000
  C   C176      1.0  0.95977  0.48977  0.39676  1.0000
  N   N38       1.0  0.98026  0.49911  0.39579  1.0000
  H   H111      1.0  0.95291  0.49250  0.44931  1.0000
  H   H112      1.0  0.99880  0.48161  0.47980  1.0000
  C   C177      1.0  0.51332  0.47070  0.39676  1.0000
  N   N39       1.0  0.50397  0.48184  0.39577  1.0000
  C   C178      1.0  0.49613  0.50620  0.34029  1.0000
  C   C179      1.0  0.49912  0.51967  0.41197  1.0000
  C   C180      1.0  0.48767  0.52966  0.41134  1.0000
  C   C181      1.0  0.47366  0.52658  0.34265  1.0000
  H   H113      1.0  0.48961  0.53941  0.46237  1.0000
  H   H114      1.0  0.51057  0.46109  0.44926  1.0000
  N   N40       1.0  0.51275  0.52377  0.47866  1.0000
  H   H115      1.0  0.52150  0.51792  0.47961  1.0000
  H   H116      1.0  0.51473  0.53336  0.52590  1.0000
  C   C182      1.0  0.53241  0.04324  0.39673  1.0000
  N   N41       1.0  0.52127  0.02276  0.39575  1.0000
  C   C183      1.0  0.49691  0.99054  0.34030  1.0000
  C   C184      1.0  0.48344  0.98007  0.41197  1.0000
  C   C185      1.0  0.47343  0.95863  0.41131  1.0000
  C   C186      1.0  0.47651  0.94769  0.34263  1.0000
  H   H117      1.0  0.46367  0.95082  0.46231  1.0000
  H   H118      1.0  0.54200  0.05010  0.44927  1.0000
  N   N42       1.0  0.47933  0.98961  0.47861  1.0000
  H   H119      1.0  0.48523  0.00421  0.47977  1.0000
  H   H120      1.0  0.46978  0.98200  0.52601  1.0000
  C   C187      1.0  0.31306  0.53501  0.31789  1.0000
  C   C188      1.0  0.27214  0.52523  0.33219  1.0000
  C   C189      1.0  0.28086  0.51950  0.40242  1.0000
  C   C190      1.0  0.30135  0.52449  0.39338  1.0000
  H   H121      1.0  0.30817  0.52143  0.44522  1.0000
  C   C191      1.0  0.23721  0.53994  0.42154  1.0000
  N   N43       1.0  0.25192  0.53515  0.41095  1.0000
  H   H122      1.0  0.23752  0.54774  0.47760  1.0000
  N   N44       1.0  0.27040  0.50967  0.47707  1.0000
  H   H123      1.0  0.27657  0.50555  0.52335  1.0000
  H   H124      1.0  0.25605  0.50500  0.48318  1.0000
  C   C192      1.0  0.46802  0.77867  0.31781  1.0000
  C   C193      1.0  0.47777  0.74751  0.33221  1.0000
  C   C194      1.0  0.48350  0.76196  0.40241  1.0000
  C   C195      1.0  0.47850  0.77745  0.39337  1.0000
  H   H125      1.0  0.48162  0.78737  0.44511  1.0000
  C   C196      1.0  0.46301  0.69786  0.42148  1.0000
  N   N45       1.0  0.46782  0.71737  0.41096  1.0000
  H   H126      1.0  0.45524  0.69038  0.47764  1.0000
  N   N46       1.0  0.49336  0.76135  0.47701  1.0000
  H   H127      1.0  0.49735  0.77155  0.52363  1.0000
  H   H128      1.0  0.49791  0.75159  0.48351  1.0000
  C   C197      1.0  0.22435  0.68992  0.31768  1.0000
  C   C198      1.0  0.25553  0.73082  0.33209  1.0000
  C   C199      1.0  0.24109  0.72211  0.40235  1.0000
  C   C200      1.0  0.22558  0.70162  0.39327  1.0000
  H   H129      1.0  0.21568  0.69481  0.44506  1.0000
  C   C201      1.0  0.30517  0.76576  0.42158  1.0000
  N   N47       1.0  0.28568  0.75105  0.41100  1.0000
  H   H130      1.0  0.31264  0.76550  0.47782  1.0000
  N   N48       1.0  0.24172  0.73257  0.47701  1.0000
  H   H131      1.0  0.23149  0.72638  0.52350  1.0000
  H   H132      1.0  0.25145  0.74690  0.48333  1.0000
  C   C202      1.0  0.68839  0.46666  0.31858  1.0000
  C   C203      1.0  0.72951  0.47709  0.33279  1.0000
  C   C204      1.0  0.72058  0.48252  0.40324  1.0000
  C   C205      1.0  0.70000  0.47722  0.39424  1.0000
  H   H133      1.0  0.69306  0.48010  0.44614  1.0000
  C   C206      1.0  0.76485  0.46289  0.42201  1.0000
  N   N49       1.0  0.74995  0.46740  0.41145  1.0000
  H   H134      1.0  0.76467  0.45515  0.47807  1.0000
  N   N50       1.0  0.73095  0.49238  0.47803  1.0000
  H   H135      1.0  0.72460  0.49616  0.52483  1.0000
  H   H136      1.0  0.74531  0.49713  0.48449  1.0000
  C   C207      1.0  0.53638  0.22238  0.31874  1.0000
  C   C208      1.0  0.52598  0.25307  0.33302  1.0000
  C   C209      1.0  0.52051  0.23869  0.40337  1.0000
  C   C210      1.0  0.52580  0.22341  0.39434  1.0000
  H   H137      1.0  0.52292  0.21359  0.44626  1.0000
  C   C211      1.0  0.54003  0.30256  0.42224  1.0000
  N   N51       1.0  0.53554  0.28315  0.41166  1.0000
  H   H138      1.0  0.54780  0.31013  0.47825  1.0000
  N   N52       1.0  0.51063  0.23918  0.47815  1.0000
  H   H139      1.0  0.50670  0.22894  0.52452  1.0000
  H   H140      1.0  0.50575  0.24870  0.48427  1.0000
  C   C212      1.0  0.78065  0.31461  0.31860  1.0000
  C   C213      1.0  0.74995  0.27351  0.33294  1.0000
  C   C214      1.0  0.76433  0.28243  0.40329  1.0000
  C   C215      1.0  0.77960  0.30301  0.39426  1.0000
  H   H141      1.0  0.78946  0.30994  0.44609  1.0000
  C   C216      1.0  0.70045  0.23813  0.42208  1.0000
  N   N53       1.0  0.71987  0.25303  0.41157  1.0000
  H   H142      1.0  0.69289  0.23831  0.47818  1.0000
  N   N54       1.0  0.76386  0.27206  0.47802  1.0000
  H   H143      1.0  0.77401  0.27841  0.52474  1.0000
  H   H144      1.0  0.75426  0.25770  0.48453  1.0000
