data_image0
_chemical_formula_structural       HC8HC7HCH4C3H3C8HC7HCH4C4H4C5H2NH2NO2NC5H2NH2NO2NC5H2NH2NO2NC5H2NH2NO2NC5H2NH2NO2NC5H2NH2NO2NC8HC7HCH4C4H3CHC3HC4HN2H2O2NC3HC4HN2H2O2NC3HC4HN2H2O2NC3HC4HN2H2O2NC3HC4HN2H2O2NC3HC4HN2H2O2N
_chemical_formula_sum              "H78 C132 N36 O24"
_cell_length_a       38.4582
_cell_length_b       38.4583
_cell_length_c       14.9524
_cell_angle_alpha    90.0002
_cell_angle_beta     89.9998
_cell_angle_gamma    120

_space_group_name_H-M_alt    "P 1"
_space_group_IT_number       1

loop_
  _space_group_symop_operation_xyz
  'x, y, z'

loop_
  _atom_site_type_symbol
  _atom_site_label
  _atom_site_symmetry_multiplicity
  _atom_site_fract_x
  _atom_site_fract_y
  _atom_site_fract_z
  _atom_site_occupancy
  H   H1        1.0  0.13094  0.53839  0.27588  1.0000
  C   C1        1.0  0.51129  0.54234  0.34278  1.0000
  C   C2        1.0  0.51605  0.50781  0.34010  1.0000
  C   C3        1.0  0.48175  0.46851  0.33589  1.0000
  C   C4        1.0  0.44321  0.46433  0.34292  1.0000
  C   C5        1.0  0.43775  0.49784  0.35053  1.0000
  C   C6        1.0  0.47189  0.53717  0.34709  1.0000
  C   C7        1.0  0.55546  0.51389  0.34417  1.0000
  C   C8        1.0  0.46811  0.57188  0.34986  1.0000
  H   H2        1.0  0.41837  0.43610  0.34236  1.0000
  C   C9        1.0  0.54584  0.58193  0.34275  1.0000
  C   C10       1.0  0.58525  0.58710  0.34701  1.0000
  C   C11       1.0  0.61939  0.62642  0.35036  1.0000
  C   C12       1.0  0.61393  0.65994  0.34283  1.0000
  C   C13       1.0  0.57538  0.65576  0.33581  1.0000
  C   C14       1.0  0.54108  0.61646  0.34009  1.0000
  C   C15       1.0  0.58903  0.55239  0.34977  1.0000
  H   H3        1.0  0.63877  0.68817  0.34226  1.0000
  C   C16       1.0  0.50168  0.61038  0.34417  1.0000
  H   H4        1.0  0.61648  0.55441  0.35426  1.0000
  H   H5        1.0  0.56048  0.49020  0.34661  1.0000
  H   H6        1.0  0.49666  0.63407  0.34667  1.0000
  H   H7        1.0  0.44066  0.56986  0.35440  1.0000
  C   C17       1.0  0.57242  0.68998  0.32031  1.0000
  C   C18       1.0  0.65792  0.63409  0.36906  1.0000
  C   C19       1.0  0.48471  0.43428  0.32030  1.0000
  H   H8        1.0  0.55233  0.68826  0.27590  1.0000
  H   H9        1.0  0.66927  0.64545  0.42878  1.0000
  H   H10       1.0  0.50479  0.43601  0.27584  1.0000
  C   C20       1.0  0.54837  0.06465  0.34280  1.0000
  C   C21       1.0  0.58290  0.10395  0.34013  1.0000
  C   C22       1.0  0.62221  0.10895  0.33587  1.0000
  C   C23       1.0  0.62638  0.07458  0.34292  1.0000
  C   C24       1.0  0.59287  0.03562  0.35052  1.0000
  C   C25       1.0  0.55354  0.03042  0.34709  1.0000
  C   C26       1.0  0.57682  0.13727  0.34423  1.0000
  C   C27       1.0  0.51884  0.99193  0.34987  1.0000
  H   H11       1.0  0.65462  0.07797  0.34236  1.0000
  C   C28       1.0  0.50878  0.05962  0.34280  1.0000
  C   C29       1.0  0.50361  0.09385  0.34711  1.0000
  C   C30       1.0  0.46428  0.08866  0.35053  1.0000
  C   C31       1.0  0.43078  0.04969  0.34290  1.0000
  C   C32       1.0  0.43495  0.01532  0.33583  1.0000
  C   C33       1.0  0.47425  0.02033  0.34009  1.0000
  C   C34       1.0  0.53832  0.13234  0.34990  1.0000
  H   H12       1.0  0.40254  0.04630  0.34234  1.0000
  C   C35       1.0  0.48033  0.98700  0.34416  1.0000
  H   H13       1.0  0.53630  0.15777  0.35438  1.0000
  H   H14       1.0  0.60051  0.16598  0.34667  1.0000
  H   H15       1.0  0.45664  0.95829  0.34663  1.0000
  H   H16       1.0  0.52085  0.96650  0.35436  1.0000
  C   C36       1.0  0.60053  0.00474  0.36919  1.0000
  C   C37       1.0  0.40073  0.97814  0.32030  1.0000
  C   C38       1.0  0.45662  0.11953  0.36919  1.0000
  C   C39       1.0  0.65643  0.14614  0.32035  1.0000
  H   H17       1.0  0.61191  0.00476  0.42887  1.0000
  H   H18       1.0  0.40245  0.95978  0.27585  1.0000
  H   H19       1.0  0.44527  0.11953  0.42891  1.0000
  H   H20       1.0  0.65470  0.16450  0.27592  1.0000
  C   C40       1.0  0.34327  0.49624  0.31983  1.0000
  C   C41       1.0  0.33566  0.52219  0.26690  1.0000
  C   C42       1.0  0.29809  0.52039  0.27364  1.0000
  C   C43       1.0  0.20543  0.48413  0.26307  1.0000
  C   C44       1.0  0.16852  0.48388  0.26792  1.0000
  H   H21       1.0  0.21306  0.47547  0.20497  1.0000
  H   H22       1.0  0.29335  0.53998  0.23632  1.0000
  N   N1        1.0  0.14415  0.47176  0.19486  1.0000
  H   H23       1.0  0.15166  0.46344  0.14014  1.0000
  H   H24       1.0  0.11770  0.46913  0.19597  1.0000
  N   N2        1.0  0.36619  0.55000  0.20936  1.0000
  O   O1        1.0  0.37669  0.58558  0.23009  1.0000
  O   O2        1.0  0.35489  0.54427  0.12918  1.0000
  N   N3        1.0  0.37940  0.49933  0.31397  1.0000
  C   C45       1.0  0.59449  0.94274  0.31985  1.0000
  C   C46       1.0  0.56854  0.90916  0.26692  1.0000
  C   C47       1.0  0.57035  0.87340  0.27365  1.0000
  C   C48       1.0  0.60668  0.81704  0.26309  1.0000
  C   C49       1.0  0.60690  0.78037  0.26791  1.0000
  H   H25       1.0  0.61531  0.83333  0.20496  1.0000
  H   H26       1.0  0.55077  0.84907  0.23634  1.0000
  N   N4        1.0  0.61901  0.76811  0.19484  1.0000
  H   H27       1.0  0.62729  0.78393  0.14009  1.0000
  H   H28       1.0  0.62154  0.74424  0.19586  1.0000
  N   N5        1.0  0.54071  0.91187  0.20942  1.0000
  O   O3        1.0  0.50513  0.88677  0.23016  1.0000
  O   O4        1.0  0.54643  0.90631  0.12922  1.0000
  N   N6        1.0  0.59135  0.97575  0.31404  1.0000
  C   C50       1.0  0.14798  0.74744  0.31981  1.0000
  C   C51       1.0  0.18157  0.75504  0.26697  1.0000
  C   C52       1.0  0.21735  0.79260  0.27377  1.0000
  C   C53       1.0  0.27368  0.88530  0.26311  1.0000
  C   C54       1.0  0.31035  0.92220  0.26795  1.0000
  H   H29       1.0  0.25738  0.87766  0.20502  1.0000
  H   H30       1.0  0.24168  0.79734  0.23646  1.0000
  N   N7        1.0  0.32258  0.94659  0.19490  1.0000
  H   H31       1.0  0.30676  0.93904  0.14015  1.0000
  H   H32       1.0  0.34644  0.97300  0.19593  1.0000
  N   N8        1.0  0.17885  0.72449  0.20949  1.0000
  O   O5        1.0  0.20392  0.71399  0.23033  1.0000
  O   O6        1.0  0.18447  0.73578  0.12930  1.0000
  N   N9        1.0  0.11493  0.71132  0.31392  1.0000
  C   C55       1.0  0.71388  0.62803  0.31979  1.0000
  C   C56       1.0  0.72149  0.60205  0.26694  1.0000
  C   C57       1.0  0.75906  0.60386  0.27371  1.0000
  C   C58       1.0  0.85175  0.64019  0.26309  1.0000
  C   C59       1.0  0.88866  0.64045  0.26794  1.0000
  H   H33       1.0  0.84412  0.64886  0.20499  1.0000
  H   H34       1.0  0.76381  0.58426  0.23642  1.0000
  N   N10       1.0  0.91304  0.65259  0.19490  1.0000
  H   H35       1.0  0.90553  0.66092  0.14019  1.0000
  H   H36       1.0  0.93948  0.65522  0.19602  1.0000
  N   N11       1.0  0.69095  0.57421  0.20946  1.0000
  O   O7        1.0  0.68046  0.53864  0.23029  1.0000
  O   O8        1.0  0.70223  0.57989  0.12928  1.0000
  N   N12       1.0  0.67773  0.62491  0.31394  1.0000
  C   C60       1.0  0.46267  0.18154  0.31985  1.0000
  C   C61       1.0  0.48862  0.21510  0.26689  1.0000
  C   C62       1.0  0.48681  0.25087  0.27362  1.0000
  C   C63       1.0  0.45054  0.30726  0.26305  1.0000
  C   C64       1.0  0.45029  0.34392  0.26792  1.0000
  H   H37       1.0  0.44187  0.29097  0.20495  1.0000
  H   H38       1.0  0.50640  0.27520  0.23630  1.0000
  N   N13       1.0  0.43816  0.35617  0.19486  1.0000
  H   H39       1.0  0.42983  0.34033  0.14014  1.0000
  H   H40       1.0  0.43554  0.37999  0.19598  1.0000
  N   N14       1.0  0.51643  0.21238  0.20937  1.0000
  O   O9        1.0  0.55201  0.23747  0.23010  1.0000
  O   O10       1.0  0.51071  0.21794  0.12918  1.0000
  N   N15       1.0  0.46579  0.14851  0.31403  1.0000
  C   C65       1.0  0.90917  0.37683  0.31977  1.0000
  C   C66       1.0  0.87560  0.36920  0.26685  1.0000
  C   C67       1.0  0.83983  0.33162  0.27361  1.0000
  C   C68       1.0  0.78348  0.23894  0.26310  1.0000
  C   C69       1.0  0.74681  0.20204  0.26794  1.0000
  H   H41       1.0  0.79976  0.24658  0.20497  1.0000
  H   H42       1.0  0.81550  0.32686  0.23630  1.0000
  N   N16       1.0  0.73455  0.17767  0.19487  1.0000
  H   H43       1.0  0.75037  0.18521  0.14012  1.0000
  H   H44       1.0  0.71068  0.15127  0.19590  1.0000
  N   N17       1.0  0.87830  0.39972  0.20932  1.0000
  O   O11       1.0  0.85320  0.41020  0.23006  1.0000
  O   O12       1.0  0.87272  0.38842  0.12914  1.0000
  N   N18       1.0  0.94219  0.41297  0.31391  1.0000
  C   C70       1.0  0.02606  0.57943  0.34283  1.0000
  C   C71       1.0  0.98678  0.57467  0.34013  1.0000
  C   C72       1.0  0.98177  0.60897  0.33586  1.0000
  C   C73       1.0  0.01614  0.64752  0.34289  1.0000
  C   C74       1.0  0.05510  0.65297  0.35051  1.0000
  C   C75       1.0  0.06030  0.61884  0.34713  1.0000
  C   C76       1.0  0.95345  0.53527  0.34423  1.0000
  C   C77       1.0  0.09879  0.62262  0.34990  1.0000
  H   H45       1.0  0.01275  0.67236  0.34229  1.0000
  C   C78       1.0  0.03110  0.54488  0.34280  1.0000
  C   C79       1.0  0.99687  0.50547  0.34702  1.0000
  C   C80       1.0  0.00205  0.47133  0.35029  1.0000
  C   C81       1.0  0.04102  0.47680  0.34280  1.0000
  C   C82       1.0  0.07540  0.51534  0.33585  1.0000
  C   C83       1.0  0.07039  0.54964  0.34014  1.0000
  C   C84       1.0  0.95838  0.50169  0.34979  1.0000
  H   H46       1.0  0.04442  0.45196  0.34221  1.0000
  C   C85       1.0  0.10372  0.58905  0.34429  1.0000
  H   H47       1.0  0.93294  0.47424  0.35413  1.0000
  H   H48       1.0  0.92473  0.53024  0.34651  1.0000
  H   H49       1.0  0.13243  0.59407  0.34667  1.0000
  H   H50       1.0  0.12422  0.65007  0.35438  1.0000
  C   C86       1.0  0.08598  0.69151  0.36914  1.0000
  C   C87       1.0  0.11258  0.51831  0.32032  1.0000
  C   C88       1.0  0.97119  0.43280  0.36903  1.0000
  C   C89       1.0  0.94459  0.60601  0.32030  1.0000
  H   H51       1.0  0.08607  0.70279  0.42899  1.0000
  H   H52       1.0  0.97120  0.42147  0.42875  1.0000
  H   H53       1.0  0.92624  0.58594  0.27583  1.0000
  C   C90       1.0  0.39922  0.49018  0.36917  1.0000
  H   H54       1.0  0.38792  0.47894  0.42899  1.0000
  C   C91       1.0  0.26769  0.49316  0.33197  1.0000
  C   C92       1.0  0.27475  0.46616  0.38363  1.0000
  C   C93       1.0  0.31252  0.46836  0.37665  1.0000
  H   H55       1.0  0.31751  0.44876  0.41305  1.0000
  C   C94       1.0  0.23130  0.49436  0.33746  1.0000
  C   C95       1.0  0.15802  0.49551  0.34953  1.0000
  C   C96       1.0  0.18375  0.50593  0.42481  1.0000
  C   C97       1.0  0.22021  0.50551  0.41771  1.0000
  H   H56       1.0  0.23871  0.51320  0.47228  1.0000
  N   N19       1.0  0.17250  0.51672  0.50589  1.0000
  N   N20       1.0  0.24646  0.43770  0.43816  1.0000
  H   H57       1.0  0.25180  0.41913  0.47155  1.0000
  H   H58       1.0  0.21938  0.43337  0.44181  1.0000
  O   O13       1.0  0.16891  0.49325  0.56829  1.0000
  O   O14       1.0  0.19767  0.55195  0.52882  1.0000
  N   N21       1.0  0.12365  0.49568  0.35971  1.0000
  C   C98       1.0  0.59760  0.87025  0.33197  1.0000
  C   C99       1.0  0.62459  0.90430  0.38362  1.0000
  C   C100      1.0  0.62239  0.93989  0.37662  1.0000
  H   H59       1.0  0.64198  0.96447  0.41304  1.0000
  C   C101      1.0  0.59641  0.83267  0.33746  1.0000
  C   C102      1.0  0.59524  0.75822  0.34950  1.0000
  C   C103      1.0  0.58481  0.77352  0.42478  1.0000
  C   C104      1.0  0.58524  0.81042  0.41769  1.0000
  H   H60       1.0  0.57752  0.82120  0.47224  1.0000
  N   N22       1.0  0.57400  0.75147  0.50583  1.0000
  N   N23       1.0  0.65307  0.90450  0.43812  1.0000
  H   H61       1.0  0.67158  0.92838  0.47166  1.0000
  H   H62       1.0  0.65735  0.88172  0.44196  1.0000
  O   O15       1.0  0.59745  0.77133  0.56827  1.0000
  O   O16       1.0  0.53876  0.74141  0.52872  1.0000
  N   N24       1.0  0.59507  0.72368  0.35966  1.0000
  C   C105      1.0  0.22048  0.82301  0.33201  1.0000
  C   C106      1.0  0.18642  0.81597  0.38358  1.0000
  C   C107      1.0  0.15083  0.77821  0.37655  1.0000
  H   H63       1.0  0.12623  0.77323  0.41287  1.0000
  C   C108      1.0  0.25806  0.85941  0.33748  1.0000
  C   C109      1.0  0.33250  0.93270  0.34953  1.0000
  C   C110      1.0  0.31721  0.90695  0.42480  1.0000
  C   C111      1.0  0.28033  0.87048  0.41771  1.0000
  H   H64       1.0  0.26954  0.85198  0.47226  1.0000
  N   N25       1.0  0.33927  0.91819  0.50584  1.0000
  N   N26       1.0  0.18621  0.84427  0.43800  1.0000
  H   H65       1.0  0.16236  0.83890  0.47165  1.0000
  H   H66       1.0  0.20903  0.87130  0.44204  1.0000
  O   O17       1.0  0.31941  0.92177  0.56830  1.0000
  O   O18       1.0  0.34934  0.89302  0.52871  1.0000
  N   N27       1.0  0.36704  0.96707  0.35970  1.0000
  C   C112      1.0  0.78947  0.63113  0.33197  1.0000
  C   C113      1.0  0.78241  0.65814  0.38356  1.0000
  C   C114      1.0  0.74463  0.65594  0.37654  1.0000
  H   H67       1.0  0.73964  0.67555  0.41290  1.0000
  C   C115      1.0  0.82586  0.62994  0.33746  1.0000
  C   C116      1.0  0.89915  0.62880  0.34954  1.0000
  C   C117      1.0  0.87341  0.61835  0.42481  1.0000
  C   C118      1.0  0.83694  0.61877  0.41771  1.0000
  H   H68       1.0  0.81843  0.61106  0.47225  1.0000
  N   N28       1.0  0.88464  0.60754  0.50586  1.0000
  N   N29       1.0  0.81070  0.68664  0.43800  1.0000
  H   H69       1.0  0.80532  0.70511  0.47168  1.0000
  H   H70       1.0  0.83773  0.69086  0.44204  1.0000
  O   O19       1.0  0.88822  0.63099  0.56830  1.0000
  O   O20       1.0  0.85947  0.57230  0.52874  1.0000
  N   N30       1.0  0.93352  0.62863  0.35972  1.0000
  C   C119      1.0  0.45957  0.25403  0.33195  1.0000
  C   C120      1.0  0.43258  0.21998  0.38362  1.0000
  C   C121      1.0  0.43479  0.18440  0.37665  1.0000
  H   H71       1.0  0.41519  0.15982  0.41306  1.0000
  C   C122      1.0  0.46077  0.29162  0.33744  1.0000
  C   C123      1.0  0.46193  0.36606  0.34952  1.0000
  C   C124      1.0  0.47236  0.35075  0.42480  1.0000
  C   C125      1.0  0.47193  0.31386  0.41769  1.0000
  H   H72       1.0  0.47963  0.30306  0.47225  1.0000
  N   N31       1.0  0.48315  0.37279  0.50587  1.0000
  N   N32       1.0  0.40412  0.21979  0.43814  1.0000
  H   H73       1.0  0.38555  0.19590  0.47154  1.0000
  H   H74       1.0  0.39978  0.24254  0.44178  1.0000
  O   O21       1.0  0.45969  0.35291  0.56828  1.0000
  O   O22       1.0  0.51839  0.38285  0.52878  1.0000
  N   N33       1.0  0.46209  0.40059  0.35971  1.0000
  C   C126      1.0  0.83669  0.30123  0.33195  1.0000
  C   C127      1.0  0.87075  0.30831  0.38360  1.0000
  C   C128      1.0  0.90633  0.34608  0.37657  1.0000
  H   H75       1.0  0.93092  0.35109  0.41299  1.0000
  C   C129      1.0  0.79911  0.26484  0.33746  1.0000
  C   C130      1.0  0.72466  0.19156  0.34952  1.0000
  C   C131      1.0  0.73997  0.21730  0.42480  1.0000
  C   C132      1.0  0.77686  0.25376  0.41770  1.0000
  H   H76       1.0  0.78765  0.27227  0.47224  1.0000
  N   N34       1.0  0.71792  0.20606  0.50586  1.0000
  N   N35       1.0  0.87095  0.28004  0.43812  1.0000
  H   H77       1.0  0.89483  0.28541  0.47166  1.0000
  H   H78       1.0  0.84818  0.25297  0.44198  1.0000
  O   O23       1.0  0.73779  0.20247  0.56829  1.0000
  O   O24       1.0  0.70786  0.23124  0.52874  1.0000
  N   N36       1.0  0.69013  0.15719  0.35971  1.0000
