data_image0
_chemical_formula_structural       C3NOCH3C3NOCH3CNHCNHC3NOCH3C3NOCH3CNHCNHC3NOCH3C3NOCH3C3NOCH3C3NOCH3CNHCNHC3NOCH3C3NOCH3CNHCNHC3NOCH3C3NOCH3CNHCNHC3NOCH3C3NOCH3C6H3C6H3C6H3C6H3C6H3C6H3C6H3C6H3C6H3C6H3C6H3C6H3C6H3C6H3C6H3C6H3CNHCNHC3NOCH3C3NOCH3CNHCNHC3NOCH3C3NOCH3CNHCNHCNHCNHC3NOCH3C3NOCH3CNHCNHC3NOCH3C3NOCH3CNHCNHC3NOCH3C3NOCH3CNHCNH
_chemical_formula_sum              "C216 N48 O24 H144"
_cell_length_a       44.276
_cell_length_b       34.719
_cell_length_c       14.8679
_cell_angle_alpha    90
_cell_angle_beta     90
_cell_angle_gamma    90

_space_group_name_H-M_alt    "P 1"
_space_group_IT_number       1

loop_
  _space_group_symop_operation_xyz
  'x, y, z'

loop_
  _atom_site_type_symbol
  _atom_site_label
  _atom_site_symmetry_multiplicity
  _atom_site_fract_x
  _atom_site_fract_y
  _atom_site_fract_z
  _atom_site_occupancy
  C   C1        1.0  0.98339  0.02187  0.29152  1.0000
  C   C2        1.0  0.00518  0.04447  0.33834  1.0000
  C   C3        1.0  0.00556  0.96215  0.33992  1.0000
  N   N1        1.0  0.98413  0.98260  0.29496  1.0000
  O   O1        1.0  0.96103  0.03775  0.24004  1.0000
  C   C4        1.0  0.96953  0.04263  0.14739  1.0000
  H   H1        1.0  0.98889  0.06194  0.14057  1.0000
  H   H2        1.0  0.95050  0.05548  0.11185  1.0000
  H   H3        1.0  0.97469  0.01501  0.11565  1.0000
  C   C5        1.0  0.48344  0.52180  0.29130  1.0000
  C   C6        1.0  0.50519  0.54439  0.33825  1.0000
  C   C7        1.0  0.50557  0.46207  0.33985  1.0000
  N   N2        1.0  0.48416  0.48252  0.29475  1.0000
  O   O2        1.0  0.46114  0.53771  0.23967  1.0000
  C   C8        1.0  0.46973  0.54262  0.14710  1.0000
  H   H4        1.0  0.48910  0.56192  0.14048  1.0000
  H   H5        1.0  0.45073  0.55548  0.11141  1.0000
  H   H6        1.0  0.47492  0.51500  0.11535  1.0000
  C   C9        1.0  0.11272  0.18361  0.30763  1.0000
  N   N3        1.0  0.08738  0.16106  0.30427  1.0000
  H   H7        1.0  0.13098  0.17561  0.26999  1.0000
  C   C10       1.0  0.89835  0.82368  0.30520  1.0000
  N   N4        1.0  0.92368  0.84626  0.30255  1.0000
  H   H8        1.0  0.88012  0.83178  0.26756  1.0000
  C   C11       1.0  0.92473  0.22701  0.27745  1.0000
  C   C12       1.0  0.89792  0.21914  0.32685  1.0000
  C   C13       1.0  0.94978  0.17073  0.33414  1.0000
  N   N5        1.0  0.94920  0.20356  0.28437  1.0000
  O   O3        1.0  0.92796  0.25871  0.22362  1.0000
  C   C14       1.0  0.91867  0.25197  0.13231  1.0000
  H   H9        1.0  0.93221  0.22937  0.10078  1.0000
  H   H10       1.0  0.92202  0.27853  0.09450  1.0000
  H   H11       1.0  0.89476  0.24432  0.12845  1.0000
  C   C15       1.0  0.08637  0.78068  0.27868  1.0000
  C   C16       1.0  0.11310  0.78840  0.32854  1.0000
  C   C17       1.0  0.06130  0.83690  0.33562  1.0000
  N   N6        1.0  0.06193  0.80417  0.28549  1.0000
  O   O4        1.0  0.08322  0.74911  0.22440  1.0000
  C   C18       1.0  0.09246  0.75616  0.13318  1.0000
  H   H12       1.0  0.07882  0.77877  0.10201  1.0000
  H   H13       1.0  0.08919  0.72969  0.09498  1.0000
  H   H14       1.0  0.11634  0.76397  0.12939  1.0000
  C   C19       1.0  0.61269  0.68334  0.30577  1.0000
  N   N7        1.0  0.58733  0.66082  0.30316  1.0000
  H   H15       1.0  0.63083  0.67525  0.26775  1.0000
  C   C20       1.0  0.39838  0.32378  0.30331  1.0000
  N   N8        1.0  0.42374  0.34631  0.30135  1.0000
  H   H16       1.0  0.38027  0.33196  0.26525  1.0000
  C   C21       1.0  0.42449  0.72691  0.27905  1.0000
  C   C22       1.0  0.39778  0.71892  0.32890  1.0000
  C   C23       1.0  0.44974  0.67059  0.33475  1.0000
  N   N9        1.0  0.44901  0.70351  0.28531  1.0000
  O   O5        1.0  0.42763  0.75877  0.22569  1.0000
  C   C24       1.0  0.41832  0.75228  0.13432  1.0000
  H   H17       1.0  0.43190  0.72983  0.10236  1.0000
  H   H18       1.0  0.42159  0.77897  0.09695  1.0000
  H   H19       1.0  0.39442  0.74455  0.13046  1.0000
  C   C25       1.0  0.58659  0.28056  0.28046  1.0000
  C   C26       1.0  0.61325  0.28845  0.33063  1.0000
  C   C27       1.0  0.56134  0.33685  0.33634  1.0000
  N   N10       1.0  0.56210  0.30400  0.28665  1.0000
  O   O6        1.0  0.58351  0.24879  0.22681  1.0000
  C   C28       1.0  0.59269  0.25553  0.13543  1.0000
  H   H20       1.0  0.57898  0.27795  0.10384  1.0000
  H   H21       1.0  0.58950  0.22890  0.09779  1.0000
  H   H22       1.0  0.61655  0.26345  0.13141  1.0000
  C   C29       1.0  0.39159  0.10276  0.25364  1.0000
  C   C30       1.0  0.38091  0.07546  0.31744  1.0000
  C   C31       1.0  0.36503  0.15307  0.32648  1.0000
  N   N11       1.0  0.38398  0.14040  0.26144  1.0000
  O   O7        1.0  0.41170  0.09353  0.18715  1.0000
  C   C32       1.0  0.39711  0.08273  0.10457  1.0000
  H   H23       1.0  0.38342  0.05680  0.11323  1.0000
  H   H24       1.0  0.41453  0.07657  0.05485  1.0000
  H   H25       1.0  0.38301  0.10605  0.07847  1.0000
  C   C33       1.0  0.61909  0.90462  0.26219  1.0000
  C   C34       1.0  0.62997  0.93163  0.32636  1.0000
  C   C35       1.0  0.64608  0.85407  0.33264  1.0000
  N   N12       1.0  0.62681  0.86698  0.26872  1.0000
  O   O8        1.0  0.59844  0.91404  0.19733  1.0000
  C   C36       1.0  0.61221  0.92577  0.11423  1.0000
  H   H26       1.0  0.62612  0.95150  0.12324  1.0000
  H   H27       1.0  0.59426  0.93266  0.06671  1.0000
  H   H28       1.0  0.62591  0.90267  0.08540  1.0000
  C   C37       1.0  0.65098  0.08907  0.29930  1.0000
  N   N13       1.0  0.65820  0.12703  0.29675  1.0000
  H   H29       1.0  0.65926  0.07141  0.25013  1.0000
  C   C38       1.0  0.35965  0.91785  0.29463  1.0000
  N   N14       1.0  0.35248  0.87987  0.29323  1.0000
  H   H30       1.0  0.35139  0.93522  0.24487  1.0000
  C   C39       1.0  0.89137  0.60335  0.25721  1.0000
  C   C40       1.0  0.88081  0.57570  0.32032  1.0000
  C   C41       1.0  0.86462  0.65319  0.33131  1.0000
  N   N15       1.0  0.88363  0.64090  0.26602  1.0000
  O   O9        1.0  0.91150  0.59453  0.19045  1.0000
  C   C42       1.0  0.89690  0.58436  0.10745  1.0000
  H   H31       1.0  0.88315  0.55841  0.11511  1.0000
  H   H32       1.0  0.91431  0.57849  0.05753  1.0000
  H   H33       1.0  0.88285  0.60789  0.08221  1.0000
  C   C43       1.0  0.11933  0.40414  0.26536  1.0000
  C   C44       1.0  0.13012  0.43155  0.32871  1.0000
  C   C45       1.0  0.14651  0.35408  0.33720  1.0000
  N   N16       1.0  0.12717  0.36658  0.27302  1.0000
  O   O10       1.0  0.09865  0.41310  0.20022  1.0000
  C   C46       1.0  0.11241  0.42423  0.11666  1.0000
  H   H34       1.0  0.12632  0.45002  0.12465  1.0000
  H   H35       1.0  0.09445  0.43079  0.06891  1.0000
  H   H36       1.0  0.12610  0.40093  0.08869  1.0000
  C   C47       1.0  0.15122  0.58881  0.29592  1.0000
  N   N17       1.0  0.15855  0.62673  0.29242  1.0000
  H   H37       1.0  0.15948  0.57088  0.24726  1.0000
  C   C48       1.0  0.85948  0.41826  0.29195  1.0000
  N   N18       1.0  0.85222  0.38032  0.28944  1.0000
  H   H38       1.0  0.85130  0.43591  0.24262  1.0000
  C   C49       1.0  0.49176  0.02475  0.27282  1.0000
  C   C50       1.0  0.47457  0.00318  0.33539  1.0000
  C   C51       1.0  0.53680  0.00341  0.34197  1.0000
  N   N19       1.0  0.52222  0.02455  0.27892  1.0000
  O   O11       1.0  0.47910  0.04617  0.20536  1.0000
  C   C52       1.0  0.47646  0.02528  0.12222  1.0000
  H   H39       1.0  0.49847  0.01556  0.09785  1.0000
  H   H40       1.0  0.46691  0.04458  0.07192  1.0000
  H   H41       1.0  0.46137  0.00055  0.12926  1.0000
  C   C53       1.0  0.99167  0.52527  0.27354  1.0000
  C   C54       1.0  0.97450  0.50324  0.33531  1.0000
  C   C55       1.0  0.03681  0.50341  0.34146  1.0000
  N   N20       1.0  0.02214  0.52502  0.27943  1.0000
  O   O12       1.0  0.97898  0.54721  0.20705  1.0000
  C   C56       1.0  0.97626  0.52694  0.12308  1.0000
  H   H42       1.0  0.99825  0.51737  0.09820  1.0000
  H   H43       1.0  0.96671  0.54664  0.07364  1.0000
  H   H44       1.0  0.96114  0.50220  0.12920  1.0000
  C   C57       1.0  0.23734  0.23105  0.30633  1.0000
  N   N21       1.0  0.26785  0.22859  0.30026  1.0000
  H   H45       1.0  0.22452  0.21547  0.26224  1.0000
  C   C58       1.0  0.77350  0.77602  0.30588  1.0000
  N   N22       1.0  0.74298  0.77849  0.30099  1.0000
  H   H46       1.0  0.78614  0.79180  0.26170  1.0000
  C   C59       1.0  0.76670  0.27774  0.25938  1.0000
  C   C60       1.0  0.78710  0.25642  0.31439  1.0000
  C   C61       1.0  0.72384  0.24983  0.33078  1.0000
  N   N23       1.0  0.73625  0.27399  0.26935  1.0000
  O   O13       1.0  0.77646  0.30371  0.19659  1.0000
  C   C62       1.0  0.78136  0.28678  0.10961  1.0000
  H   H47       1.0  0.79883  0.26454  0.11206  1.0000
  H   H48       1.0  0.78899  0.30940  0.06413  1.0000
  H   H49       1.0  0.76053  0.27455  0.08239  1.0000
  C   C63       1.0  0.24402  0.72953  0.25945  1.0000
  C   C64       1.0  0.22376  0.75075  0.31510  1.0000
  C   C65       1.0  0.28707  0.75708  0.33061  1.0000
  N   N24       1.0  0.27450  0.73319  0.26888  1.0000
  O   O14       1.0  0.23407  0.70384  0.19628  1.0000
  C   C66       1.0  0.22886  0.72118  0.10989  1.0000
  H   H50       1.0  0.21138  0.74336  0.11343  1.0000
  H   H51       1.0  0.22112  0.69876  0.06404  1.0000
  H   H52       1.0  0.24958  0.73359  0.08237  1.0000
  C   C67       1.0  0.97734  0.14890  0.33959  1.0000
  C   C68       1.0  0.00553  0.16824  0.34043  1.0000
  C   C69       1.0  0.03362  0.14863  0.34163  1.0000
  C   C70       1.0  0.03281  0.10780  0.33819  1.0000
  C   C71       1.0  0.00529  0.08642  0.33944  1.0000
  C   C72       1.0  0.97793  0.10808  0.34260  1.0000
  H   H53       1.0  0.05294  0.09337  0.33633  1.0000
  H   H54       1.0  0.95773  0.09391  0.34569  1.0000
  H   H55       1.0  0.00560  0.19774  0.34053  1.0000
  C   C73       1.0  0.03372  0.85868  0.34108  1.0000
  C   C74       1.0  0.00554  0.83922  0.34109  1.0000
  C   C75       1.0  0.97736  0.85868  0.34091  1.0000
  C   C76       1.0  0.97804  0.89950  0.33716  1.0000
  C   C77       1.0  0.00556  0.92069  0.34062  1.0000
  C   C78       1.0  0.03307  0.89951  0.34438  1.0000
  H   H56       1.0  0.95796  0.91412  0.33726  1.0000
  H   H57       1.0  0.05316  0.91411  0.34389  1.0000
  H   H58       1.0  0.00555  0.80971  0.34120  1.0000
  C   C79       1.0  0.47734  0.64879  0.33973  1.0000
  C   C80       1.0  0.50553  0.66815  0.34031  1.0000
  C   C81       1.0  0.53362  0.64855  0.34127  1.0000
  C   C82       1.0  0.53282  0.60772  0.33787  1.0000
  C   C83       1.0  0.50530  0.58633  0.33934  1.0000
  C   C84       1.0  0.47794  0.60798  0.34269  1.0000
  H   H59       1.0  0.55294  0.59328  0.33589  1.0000
  H   H60       1.0  0.45774  0.59379  0.34593  1.0000
  H   H61       1.0  0.50559  0.69766  0.34043  1.0000
  C   C85       1.0  0.53372  0.35859  0.34131  1.0000
  C   C86       1.0  0.50554  0.33913  0.34103  1.0000
  C   C87       1.0  0.47736  0.35858  0.34054  1.0000
  C   C88       1.0  0.47805  0.39941  0.33684  1.0000
  C   C89       1.0  0.50556  0.42061  0.34055  1.0000
  C   C90       1.0  0.53307  0.39942  0.34454  1.0000
  H   H62       1.0  0.45797  0.41402  0.33665  1.0000
  H   H63       1.0  0.55315  0.41402  0.34437  1.0000
  H   H64       1.0  0.50555  0.30962  0.34114  1.0000
  C   C91       1.0  0.44276  0.00331  0.33470  1.0000
  C   C92       1.0  0.42655  0.96865  0.33962  1.0000
  C   C93       1.0  0.39476  0.96827  0.34634  1.0000
  C   C94       1.0  0.37896  0.00360  0.33707  1.0000
  C   C95       1.0  0.39488  0.03881  0.32687  1.0000
  C   C96       1.0  0.42671  0.03812  0.33135  1.0000
  H   H65       1.0  0.35585  0.00371  0.33809  1.0000
  H   H66       1.0  0.43858  0.06348  0.33189  1.0000
  H   H67       1.0  0.43832  0.94320  0.33950  1.0000
  C   C97       1.0  0.56820  0.00345  0.34443  1.0000
  C   C98       1.0  0.58409  0.03833  0.34582  1.0000
  C   C99       1.0  0.61588  0.03890  0.35273  1.0000
  C   C100      1.0  0.63179  0.00354  0.34519  1.0000
  C   C101      1.0  0.61594  0.96814  0.33734  1.0000
  C   C102      1.0  0.58413  0.96860  0.34350  1.0000
  H   H68       1.0  0.65491  0.00357  0.34521  1.0000
  H   H69       1.0  0.57218  0.94329  0.34236  1.0000
  H   H70       1.0  0.57210  0.06363  0.34578  1.0000
  C   C103      1.0  0.94268  0.50340  0.33485  1.0000
  C   C104      1.0  0.92644  0.46873  0.33866  1.0000
  C   C105      1.0  0.89464  0.46833  0.34528  1.0000
  C   C106      1.0  0.87885  0.50374  0.33745  1.0000
  C   C107      1.0  0.89478  0.53900  0.32854  1.0000
  C   C108      1.0  0.92663  0.53824  0.33277  1.0000
  H   H71       1.0  0.85574  0.50386  0.33853  1.0000
  H   H72       1.0  0.93850  0.56360  0.33409  1.0000
  H   H73       1.0  0.93817  0.44326  0.33767  1.0000
  C   C109      1.0  0.06826  0.50348  0.34380  1.0000
  C   C110      1.0  0.08418  0.53836  0.34386  1.0000
  C   C111      1.0  0.11598  0.53899  0.35065  1.0000
  C   C112      1.0  0.13189  0.50358  0.34469  1.0000
  C   C113      1.0  0.11605  0.46812  0.33830  1.0000
  C   C114      1.0  0.08423  0.46864  0.34421  1.0000
  H   H74       1.0  0.15500  0.50361  0.34480  1.0000
  H   H75       1.0  0.07231  0.44330  0.34413  1.0000
  H   H76       1.0  0.07221  0.56366  0.34289  1.0000
  C   C115      1.0  0.15353  0.31458  0.34417  1.0000
  C   C116      1.0  0.13107  0.28579  0.34028  1.0000
  C   C117      1.0  0.13778  0.24614  0.35252  1.0000
  C   C118      1.0  0.16886  0.23604  0.36140  1.0000
  C   C119      1.0  0.19215  0.26442  0.36449  1.0000
  C   C120      1.0  0.18372  0.30345  0.35614  1.0000
  H   H77       1.0  0.17458  0.20768  0.36904  1.0000
  H   H78       1.0  0.20006  0.32437  0.35383  1.0000
  H   H79       1.0  0.10916  0.29420  0.33020  1.0000
  C   C121      1.0  0.85757  0.69264  0.33930  1.0000
  C   C122      1.0  0.88000  0.72148  0.33568  1.0000
  C   C123      1.0  0.87326  0.76105  0.34910  1.0000
  C   C124      1.0  0.84220  0.77107  0.35894  1.0000
  C   C125      1.0  0.81895  0.74262  0.36194  1.0000
  C   C126      1.0  0.82740  0.70365  0.35230  1.0000
  H   H80       1.0  0.83648  0.79937  0.36769  1.0000
  H   H81       1.0  0.81107  0.68271  0.34995  1.0000
  H   H82       1.0  0.90191  0.71316  0.32511  1.0000
  C   C127      1.0  0.85735  0.31479  0.34061  1.0000
  C   C128      1.0  0.87987  0.28606  0.34399  1.0000
  C   C129      1.0  0.87321  0.24644  0.33106  1.0000
  C   C130      1.0  0.84215  0.23627  0.32197  1.0000
  C   C131      1.0  0.81882  0.26460  0.31936  1.0000
  C   C132      1.0  0.82718  0.30362  0.32845  1.0000
  H   H83       1.0  0.83649  0.20793  0.31361  1.0000
  H   H84       1.0  0.81079  0.32448  0.33098  1.0000
  H   H85       1.0  0.90177  0.29451  0.35397  1.0000
  C   C133      1.0  0.15343  0.69258  0.34192  1.0000
  C   C134      1.0  0.13099  0.72142  0.34557  1.0000
  C   C135      1.0  0.13774  0.76101  0.33268  1.0000
  C   C136      1.0  0.16881  0.77108  0.32335  1.0000
  C   C137      1.0  0.19205  0.74264  0.32044  1.0000
  C   C138      1.0  0.18362  0.70364  0.32945  1.0000
  H   H86       1.0  0.17453  0.79940  0.31506  1.0000
  H   H87       1.0  0.19996  0.68272  0.33168  1.0000
  H   H88       1.0  0.10907  0.71308  0.35569  1.0000
  C   C139      1.0  0.65326  0.81459  0.33778  1.0000
  C   C140      1.0  0.63086  0.78570  0.33570  1.0000
  C   C141      1.0  0.63780  0.74611  0.34830  1.0000
  C   C142      1.0  0.66902  0.73613  0.35438  1.0000
  C   C143      1.0  0.69224  0.76454  0.35041  1.0000
  C   C144      1.0  0.68362  0.80360  0.34554  1.0000
  H   H89       1.0  0.67496  0.70781  0.36126  1.0000
  H   H90       1.0  0.69982  0.82475  0.34595  1.0000
  H   H91       1.0  0.60885  0.79406  0.32766  1.0000
  C   C145      1.0  0.35783  0.19251  0.33276  1.0000
  C   C146      1.0  0.38019  0.22145  0.33115  1.0000
  C   C147      1.0  0.37322  0.26096  0.34497  1.0000
  C   C148      1.0  0.34201  0.27085  0.35214  1.0000
  C   C149      1.0  0.31882  0.24241  0.34792  1.0000
  C   C150      1.0  0.32747  0.20340  0.34148  1.0000
  H   H92       1.0  0.33607  0.29911  0.36015  1.0000
  H   H93       1.0  0.31130  0.18222  0.34168  1.0000
  H   H94       1.0  0.40221  0.21318  0.32262  1.0000
  C   C151      1.0  0.35761  0.81473  0.34679  1.0000
  C   C152      1.0  0.38006  0.78589  0.34812  1.0000
  C   C153      1.0  0.37316  0.74632  0.33496  1.0000
  C   C154      1.0  0.34196  0.73628  0.32880  1.0000
  C   C155      1.0  0.31870  0.76462  0.33334  1.0000
  C   C156      1.0  0.32726  0.80368  0.33901  1.0000
  H   H95       1.0  0.33605  0.70798  0.32135  1.0000
  H   H96       1.0  0.31102  0.82478  0.33896  1.0000
  H   H97       1.0  0.40207  0.79429  0.35602  1.0000
  C   C157      1.0  0.65316  0.19250  0.34858  1.0000
  C   C158      1.0  0.63080  0.22145  0.35006  1.0000
  C   C159      1.0  0.63780  0.26097  0.33664  1.0000
  C   C160      1.0  0.66902  0.27086  0.32993  1.0000
  C   C161      1.0  0.69220  0.24241  0.33420  1.0000
  C   C162      1.0  0.68353  0.20340  0.34031  1.0000
  H   H98       1.0  0.67498  0.29914  0.32221  1.0000
  H   H99       1.0  0.69970  0.18222  0.34016  1.0000
  H   H100      1.0  0.60877  0.21319  0.35827  1.0000
  C   C163      1.0  0.02743  0.02242  0.38390  1.0000
  N   N25       1.0  0.02706  0.98316  0.38325  1.0000
  H   H101      1.0  0.04399  0.03558  0.42049  1.0000
  C   C164      1.0  0.52742  0.52234  0.38396  1.0000
  N   N26       1.0  0.52705  0.48308  0.38328  1.0000
  H   H102      1.0  0.54397  0.53551  0.42056  1.0000
  C   C165      1.0  0.08622  0.22650  0.40543  1.0000
  C   C166      1.0  0.11309  0.21877  0.35618  1.0000
  C   C167      1.0  0.06124  0.17031  0.34784  1.0000
  N   N27       1.0  0.06178  0.20304  0.39798  1.0000
  O   O15       1.0  0.08287  0.25810  0.45951  1.0000
  C   C168      1.0  0.09186  0.25117  0.55099  1.0000
  H   H103      1.0  0.07817  0.22856  0.58193  1.0000
  H   H104      1.0  0.08845  0.27767  0.58896  1.0000
  H   H105      1.0  0.11575  0.24342  0.55542  1.0000
  C   C169      1.0  0.92472  0.78055  0.40275  1.0000
  C   C170      1.0  0.89791  0.78843  0.35336  1.0000
  C   C171      1.0  0.94976  0.83690  0.34632  1.0000
  N   N28       1.0  0.94916  0.80404  0.39598  1.0000
  O   O16       1.0  0.92796  0.74882  0.45647  1.0000
  C   C172      1.0  0.91872  0.75553  0.54783  1.0000
  H   H106      1.0  0.93230  0.77810  0.57936  1.0000
  H   H107      1.0  0.92208  0.72895  0.58555  1.0000
  H   H108      1.0  0.89482  0.76320  0.55181  1.0000
  C   C173      1.0  0.89834  0.18387  0.37493  1.0000
  N   N29       1.0  0.92368  0.16134  0.37775  1.0000
  H   H109      1.0  0.88011  0.17576  0.41259  1.0000
  C   C174      1.0  0.11263  0.82353  0.37720  1.0000
  N   N30       1.0  0.08732  0.84612  0.37987  1.0000
  H   H110      1.0  0.13082  0.83151  0.41517  1.0000
  C   C175      1.0  0.58641  0.72651  0.40339  1.0000
  C   C176      1.0  0.61318  0.71866  0.35374  1.0000
  C   C177      1.0  0.56127  0.67022  0.34699  1.0000
  N   N31       1.0  0.56193  0.70308  0.39664  1.0000
  O   O17       1.0  0.58312  0.75832  0.45683  1.0000
  C   C178      1.0  0.59209  0.75173  0.54845  1.0000
  H   H111      1.0  0.57836  0.72929  0.57988  1.0000
  H   H112      1.0  0.58874  0.77839  0.58583  1.0000
  H   H113      1.0  0.61596  0.74393  0.55301  1.0000
  C   C179      1.0  0.42451  0.28041  0.40083  1.0000
  C   C180      1.0  0.39780  0.28841  0.35103  1.0000
  C   C181      1.0  0.44973  0.33684  0.34547  1.0000
  N   N32       1.0  0.44900  0.30387  0.39473  1.0000
  O   O18       1.0  0.42766  0.24851  0.45402  1.0000
  C   C182      1.0  0.41843  0.25495  0.54548  1.0000
  H   H114      1.0  0.43205  0.27735  0.57744  1.0000
  H   H115      1.0  0.42171  0.22823  0.58272  1.0000
  H   H116      1.0  0.39454  0.26271  0.54954  1.0000
  C   C183      1.0  0.39837  0.68358  0.37669  1.0000
  N   N33       1.0  0.42375  0.66110  0.37880  1.0000
  H   H117      1.0  0.38029  0.67541  0.41486  1.0000
  C   C184      1.0  0.61263  0.32369  0.37882  1.0000
  N   N34       1.0  0.58727  0.34623  0.38084  1.0000
  H   H118      1.0  0.63069  0.33177  0.41717  1.0000
  C   C185      1.0  0.36026  0.08915  0.38229  1.0000
  N   N35       1.0  0.35313  0.12712  0.38519  1.0000
  H   H119      1.0  0.35229  0.07155  0.43203  1.0000
  C   C186      1.0  0.65093  0.91773  0.39006  1.0000
  N   N36       1.0  0.65818  0.87976  0.39162  1.0000
  H   H120      1.0  0.65912  0.93516  0.43981  1.0000
  C   C187      1.0  0.61877  0.10287  0.42591  1.0000
  C   C188      1.0  0.62983  0.07551  0.36284  1.0000
  C   C189      1.0  0.64594  0.15305  0.35466  1.0000
  N   N37       1.0  0.62649  0.14047  0.41845  1.0000
  O   O19       1.0  0.59791  0.09381  0.49045  1.0000
  C   C190      1.0  0.61142  0.08264  0.57435  1.0000
  H   H121      1.0  0.62540  0.05691  0.56664  1.0000
  H   H122      1.0  0.59331  0.07598  0.62156  1.0000
  H   H123      1.0  0.62497  0.10597  0.60282  1.0000
  C   C191      1.0  0.39172  0.90487  0.42212  1.0000
  C   C192      1.0  0.38071  0.93180  0.35795  1.0000
  C   C193      1.0  0.36471  0.85422  0.35208  1.0000
  N   N38       1.0  0.38406  0.86721  0.41574  1.0000
  O   O20       1.0  0.41250  0.91440  0.48655  1.0000
  C   C194      1.0  0.39887  0.92611  0.56988  1.0000
  H   H124      1.0  0.38488  0.95177  0.56107  1.0000
  H   H125      1.0  0.41691  0.93311  0.61704  1.0000
  H   H126      1.0  0.38530  0.90297  0.59905  1.0000
  C   C195      1.0  0.86010  0.58895  0.38550  1.0000
  N   N39       1.0  0.85285  0.62688  0.38942  1.0000
  H   H127      1.0  0.85218  0.57107  0.43479  1.0000
  C   C196      1.0  0.15113  0.41809  0.39279  1.0000
  N   N40       1.0  0.15848  0.38017  0.39548  1.0000
  H   H128      1.0  0.15926  0.43583  0.44202  1.0000
  C   C197      1.0  0.11895  0.60336  0.42192  1.0000
  C   C198      1.0  0.12995  0.57566  0.35960  1.0000
  C   C199      1.0  0.14637  0.65310  0.34965  1.0000
  N   N41       1.0  0.12681  0.64088  0.41353  1.0000
  O   O21       1.0  0.09802  0.59472  0.48656  1.0000
  C   C200      1.0  0.11145  0.58413  0.57098  1.0000
  H   H129      1.0  0.12546  0.55836  0.56432  1.0000
  H   H130      1.0  0.09330  0.57777  0.61825  1.0000
  H   H131      1.0  0.12495  0.60765  0.59872  1.0000
  C   C201      1.0  0.89144  0.40451  0.41915  1.0000
  C   C202      1.0  0.88051  0.43184  0.35581  1.0000
  C   C203      1.0  0.86430  0.35431  0.34772  1.0000
  N   N42       1.0  0.88368  0.36691  0.41169  1.0000
  O   O22       1.0  0.91222  0.41362  0.48388  1.0000
  C   C204      1.0  0.89860  0.42467  0.56769  1.0000
  H   H132      1.0  0.88455  0.45035  0.55993  1.0000
  H   H133      1.0  0.91663  0.43139  0.61509  1.0000
  H   H134      1.0  0.88508  0.40127  0.59596  1.0000
  C   C205      1.0  0.49049  0.98123  0.39987  1.0000
  N   N43       1.0  0.52096  0.98175  0.40125  1.0000
  H   H135      1.0  0.47948  0.96521  0.44737  1.0000
  C   C206      1.0  0.99050  0.48081  0.39875  1.0000
  N   N44       1.0  0.02097  0.48133  0.39993  1.0000
  H   H136      1.0  0.97952  0.46443  0.44564  1.0000
  C   C207      1.0  0.24436  0.27752  0.42393  1.0000
  C   C208      1.0  0.22390  0.25630  0.36890  1.0000
  C   C209      1.0  0.28717  0.24983  0.35173  1.0000
  N   N45       1.0  0.27480  0.27382  0.41359  1.0000
  O   O23       1.0  0.23467  0.30334  0.48716  1.0000
  C   C210      1.0  0.22975  0.28617  0.57388  1.0000
  H   H137      1.0  0.21223  0.26403  0.57112  1.0000
  H   H138      1.0  0.22220  0.30870  0.61975  1.0000
  H   H139      1.0  0.25055  0.27377  0.60086  1.0000
  C   C211      1.0  0.76700  0.72917  0.42291  1.0000
  C   C212      1.0  0.78722  0.75065  0.36765  1.0000
  C   C213      1.0  0.72389  0.75707  0.35282  1.0000
  N   N46       1.0  0.73652  0.73287  0.41377  1.0000
  O   O24       1.0  0.77699  0.70317  0.48533  1.0000
  C   C214      1.0  0.78209  0.72005  0.57227  1.0000
  H   H140      1.0  0.79949  0.74235  0.56952  1.0000
  H   H141      1.0  0.78988  0.69740  0.61746  1.0000
  H   H142      1.0  0.76130  0.73218  0.60007  1.0000
  C   C215      1.0  0.77361  0.23102  0.37654  1.0000
  N   N47       1.0  0.74310  0.22852  0.38225  1.0000
  H   H143      1.0  0.78639  0.21538  0.42062  1.0000
  C   C216      1.0  0.23743  0.77577  0.37775  1.0000
  N   N48       1.0  0.26794  0.77822  0.38293  1.0000
  H   H144      1.0  0.22474  0.79131  0.42228  1.0000
