data_image0
_chemical_formula_structural       C4NC4NH4N2C3OH2CHC3OH2CHC2HC2H3N2C3HOHCHC3HOHCHC4NC4NH4N2C3OH2CHC3OH2CHC2HC2H3N2C3HOHCHC3HOHCHC4NC4NH4N2C3OH2CHC3OH2CHC2HC2H3N2C3HOHCHC3HOHCHC4NC4NH4N2C3OH2CHC3OH2CHC2HC2H3N2C3HOHCHC3HOHCH
_chemical_formula_sum              "C112 N24 H80 O16"
_cell_length_a       31.5094
_cell_length_b       31.5094
_cell_length_c       14.9712
_cell_angle_alpha    90
_cell_angle_beta     90
_cell_angle_gamma    90

_space_group_name_H-M_alt    "P 1"
_space_group_IT_number       1

loop_
  _space_group_symop_operation_xyz
  'x, y, z'

loop_
  _atom_site_type_symbol
  _atom_site_label
  _atom_site_symmetry_multiplicity
  _atom_site_fract_x
  _atom_site_fract_y
  _atom_site_fract_z
  _atom_site_occupancy
  C   C1        1.0  0.01717  0.48475  0.33016  1.0000
  C   C2        1.0  0.08221  0.41966  0.30849  1.0000
  C   C3        1.0  0.09343  0.46314  0.31431  1.0000
  C   C4        1.0  0.06143  0.49426  0.32488  1.0000
  N   N1        1.0  0.11282  0.38909  0.30055  1.0000
  C   C5        1.0  0.48477  0.01714  0.33893  1.0000
  C   C6        1.0  0.44043  0.00771  0.34133  1.0000
  C   C7        1.0  0.40840  0.03878  0.35232  1.0000
  C   C8        1.0  0.41966  0.08217  0.36063  1.0000
  N   N2        1.0  0.38909  0.11276  0.36866  1.0000
  H   H1        1.0  0.35916  0.10618  0.36823  1.0000
  H   H2        1.0  0.14273  0.39580  0.29891  1.0000
  H   H3        1.0  0.07178  0.02467  0.32778  1.0000
  H   H4        1.0  0.43004  0.47742  0.33472  1.0000
  N   N3        1.0  0.36638  0.02923  0.35155  1.0000
  N   N4        1.0  0.13543  0.47278  0.31347  1.0000
  C   C9        1.0  0.03707  0.22935  0.30659  1.0000
  C   C10       1.0  0.03463  0.27390  0.29913  1.0000
  C   C11       1.0  0.00354  0.20522  0.34338  1.0000
  O   O1        1.0  0.06745  0.29324  0.25665  1.0000
  H   H5        1.0  0.06327  0.21439  0.28110  1.0000
  H   H6        1.0  0.05825  0.29765  0.19455  1.0000
  C   C12       1.0  0.00702  0.16043  0.34343  1.0000
  H   H7        1.0  0.03452  0.14640  0.32232  1.0000
  C   C13       1.0  0.27232  0.96525  0.30029  1.0000
  C   C14       1.0  0.22776  0.96766  0.29307  1.0000
  C   C15       1.0  0.29648  0.99870  0.33734  1.0000
  O   O2        1.0  0.20833  0.93486  0.25068  1.0000
  H   H8        1.0  0.28727  0.93906  0.27467  1.0000
  H   H9        1.0  0.20367  0.94414  0.18872  1.0000
  C   C16       1.0  0.34127  0.99519  0.33755  1.0000
  H   H10       1.0  0.35527  0.96767  0.31647  1.0000
  C   C17       1.0  0.00774  0.44041  0.32768  1.0000
  C   C18       1.0  0.03882  0.40838  0.31673  1.0000
  H   H11       1.0  0.47745  0.43001  0.33423  1.0000
  C   C19       1.0  0.46314  0.09340  0.35483  1.0000
  C   C20       1.0  0.49427  0.06141  0.34427  1.0000
  H   H12       1.0  0.02468  0.07176  0.34142  1.0000
  H   H13       1.0  0.39578  0.14267  0.37040  1.0000
  H   H14       1.0  0.10625  0.35916  0.30101  1.0000
  N   N5        1.0  0.47277  0.13541  0.35567  1.0000
  N   N6        1.0  0.02928  0.36636  0.31740  1.0000
  C   C21       1.0  0.99872  0.29647  0.33155  1.0000
  C   C22       1.0  0.96520  0.27233  0.36841  1.0000
  C   C23       1.0  0.96760  0.22777  0.37572  1.0000
  H   H15       1.0  0.93900  0.28730  0.39390  1.0000
  O   O3        1.0  0.93475  0.20838  0.41799  1.0000
  H   H16       1.0  0.94394  0.20377  0.48001  1.0000
  C   C24       1.0  0.99521  0.34127  0.33123  1.0000
  H   H17       1.0  0.96769  0.35526  0.35234  1.0000
  C   C25       1.0  0.20522  0.00356  0.32569  1.0000
  C   C26       1.0  0.22938  0.03704  0.36262  1.0000
  C   C27       1.0  0.27393  0.03458  0.37001  1.0000
  H   H18       1.0  0.21443  0.06319  0.38840  1.0000
  O   O4        1.0  0.29328  0.06729  0.41280  1.0000
  H   H19       1.0  0.29773  0.05795  0.47478  1.0000
  C   C28       1.0  0.16043  0.00704  0.32577  1.0000
  H   H20       1.0  0.14646  0.03454  0.34701  1.0000
  C   C29       1.0  0.01717  0.98475  0.33016  1.0000
  C   C30       1.0  0.08221  0.91966  0.30849  1.0000
  C   C31       1.0  0.09343  0.96314  0.31431  1.0000
  C   C32       1.0  0.06143  0.99426  0.32488  1.0000
  N   N7        1.0  0.11282  0.88909  0.30055  1.0000
  C   C33       1.0  0.48477  0.51714  0.33893  1.0000
  C   C34       1.0  0.44043  0.50771  0.34133  1.0000
  C   C35       1.0  0.40840  0.53878  0.35232  1.0000
  C   C36       1.0  0.41966  0.58217  0.36063  1.0000
  N   N8        1.0  0.38909  0.61276  0.36866  1.0000
  H   H21       1.0  0.35916  0.60618  0.36823  1.0000
  H   H22       1.0  0.14273  0.89580  0.29891  1.0000
  H   H23       1.0  0.07178  0.52468  0.32778  1.0000
  H   H24       1.0  0.43004  0.97742  0.33472  1.0000
  N   N9        1.0  0.36638  0.52923  0.35155  1.0000
  N   N10       1.0  0.13543  0.97278  0.31347  1.0000
  C   C37       1.0  0.03707  0.72935  0.30659  1.0000
  C   C38       1.0  0.03463  0.77390  0.29913  1.0000
  C   C39       1.0  0.00354  0.70522  0.34338  1.0000
  O   O5        1.0  0.06745  0.79324  0.25665  1.0000
  H   H25       1.0  0.06327  0.71439  0.28110  1.0000
  H   H26       1.0  0.05825  0.79765  0.19455  1.0000
  C   C40       1.0  0.00702  0.66043  0.34343  1.0000
  H   H27       1.0  0.03452  0.64640  0.32232  1.0000
  C   C41       1.0  0.27232  0.46525  0.30029  1.0000
  C   C42       1.0  0.22776  0.46766  0.29307  1.0000
  C   C43       1.0  0.29648  0.49870  0.33734  1.0000
  O   O6        1.0  0.20833  0.43486  0.25068  1.0000
  H   H28       1.0  0.28727  0.43906  0.27467  1.0000
  H   H29       1.0  0.20367  0.44414  0.18872  1.0000
  C   C44       1.0  0.34127  0.49519  0.33755  1.0000
  H   H30       1.0  0.35527  0.46767  0.31647  1.0000
  C   C45       1.0  0.00774  0.94041  0.32768  1.0000
  C   C46       1.0  0.03882  0.90838  0.31673  1.0000
  H   H31       1.0  0.47745  0.93001  0.33423  1.0000
  C   C47       1.0  0.46314  0.59340  0.35483  1.0000
  C   C48       1.0  0.49427  0.56141  0.34427  1.0000
  H   H32       1.0  0.02468  0.57176  0.34142  1.0000
  H   H33       1.0  0.39578  0.64267  0.37040  1.0000
  H   H34       1.0  0.10625  0.85916  0.30101  1.0000
  N   N11       1.0  0.47277  0.63541  0.35567  1.0000
  N   N12       1.0  0.02928  0.86636  0.31740  1.0000
  C   C49       1.0  0.99872  0.79647  0.33155  1.0000
  C   C50       1.0  0.96520  0.77233  0.36841  1.0000
  C   C51       1.0  0.96760  0.72777  0.37572  1.0000
  H   H35       1.0  0.93900  0.78729  0.39390  1.0000
  O   O7        1.0  0.93475  0.70838  0.41799  1.0000
  H   H36       1.0  0.94394  0.70377  0.48001  1.0000
  C   C52       1.0  0.99521  0.84127  0.33123  1.0000
  H   H37       1.0  0.96769  0.85526  0.35234  1.0000
  C   C53       1.0  0.20522  0.50356  0.32569  1.0000
  C   C54       1.0  0.22938  0.53704  0.36262  1.0000
  C   C55       1.0  0.27393  0.53458  0.37001  1.0000
  H   H38       1.0  0.21443  0.56319  0.38840  1.0000
  O   O8        1.0  0.29328  0.56729  0.41280  1.0000
  H   H39       1.0  0.29773  0.55795  0.47478  1.0000
  C   C56       1.0  0.16043  0.50704  0.32577  1.0000
  H   H40       1.0  0.14646  0.53454  0.34701  1.0000
  C   C57       1.0  0.51717  0.48475  0.33016  1.0000
  C   C58       1.0  0.58221  0.41966  0.30849  1.0000
  C   C59       1.0  0.59343  0.46314  0.31431  1.0000
  C   C60       1.0  0.56143  0.49426  0.32488  1.0000
  N   N13       1.0  0.61283  0.38909  0.30055  1.0000
  C   C61       1.0  0.98477  0.01714  0.33893  1.0000
  C   C62       1.0  0.94043  0.00771  0.34133  1.0000
  C   C63       1.0  0.90840  0.03878  0.35232  1.0000
  C   C64       1.0  0.91966  0.08217  0.36063  1.0000
  N   N14       1.0  0.88909  0.11276  0.36866  1.0000
  H   H41       1.0  0.85916  0.10618  0.36823  1.0000
  H   H42       1.0  0.64273  0.39580  0.29891  1.0000
  H   H43       1.0  0.57178  0.02467  0.32778  1.0000
  H   H44       1.0  0.93004  0.47742  0.33472  1.0000
  N   N15       1.0  0.86638  0.02923  0.35155  1.0000
  N   N16       1.0  0.63543  0.47278  0.31347  1.0000
  C   C65       1.0  0.53707  0.22935  0.30659  1.0000
  C   C66       1.0  0.53463  0.27390  0.29913  1.0000
  C   C67       1.0  0.50354  0.20522  0.34338  1.0000
  O   O9        1.0  0.56745  0.29324  0.25665  1.0000
  H   H45       1.0  0.56327  0.21439  0.28110  1.0000
  H   H46       1.0  0.55825  0.29765  0.19455  1.0000
  C   C68       1.0  0.50702  0.16043  0.34343  1.0000
  H   H47       1.0  0.53452  0.14640  0.32232  1.0000
  C   C69       1.0  0.77232  0.96525  0.30029  1.0000
  C   C70       1.0  0.72776  0.96766  0.29307  1.0000
  C   C71       1.0  0.79648  0.99870  0.33734  1.0000
  O   O10       1.0  0.70834  0.93486  0.25068  1.0000
  H   H48       1.0  0.78727  0.93906  0.27467  1.0000
  H   H49       1.0  0.70367  0.94414  0.18872  1.0000
  C   C72       1.0  0.84127  0.99519  0.33755  1.0000
  H   H50       1.0  0.85527  0.96767  0.31647  1.0000
  C   C73       1.0  0.50774  0.44041  0.32768  1.0000
  C   C74       1.0  0.53882  0.40838  0.31673  1.0000
  H   H51       1.0  0.97745  0.43001  0.33423  1.0000
  C   C75       1.0  0.96314  0.09340  0.35483  1.0000
  C   C76       1.0  0.99426  0.06141  0.34427  1.0000
  H   H52       1.0  0.52468  0.07176  0.34142  1.0000
  H   H53       1.0  0.89578  0.14267  0.37040  1.0000
  H   H54       1.0  0.60625  0.35916  0.30101  1.0000
  N   N17       1.0  0.97277  0.13541  0.35567  1.0000
  N   N18       1.0  0.52928  0.36636  0.31740  1.0000
  C   C77       1.0  0.49872  0.29647  0.33155  1.0000
  C   C78       1.0  0.46520  0.27233  0.36841  1.0000
  C   C79       1.0  0.46760  0.22777  0.37572  1.0000
  H   H55       1.0  0.43900  0.28730  0.39390  1.0000
  O   O11       1.0  0.43475  0.20838  0.41799  1.0000
  H   H56       1.0  0.44394  0.20377  0.48001  1.0000
  C   C80       1.0  0.49521  0.34127  0.33123  1.0000
  H   H57       1.0  0.46770  0.35526  0.35234  1.0000
  C   C81       1.0  0.70522  0.00356  0.32569  1.0000
  C   C82       1.0  0.72938  0.03704  0.36262  1.0000
  C   C83       1.0  0.77393  0.03458  0.37001  1.0000
  H   H58       1.0  0.71443  0.06319  0.38840  1.0000
  O   O12       1.0  0.79328  0.06729  0.41280  1.0000
  H   H59       1.0  0.79773  0.05795  0.47478  1.0000
  C   C84       1.0  0.66043  0.00704  0.32577  1.0000
  H   H60       1.0  0.64646  0.03454  0.34701  1.0000
  C   C85       1.0  0.51717  0.98475  0.33016  1.0000
  C   C86       1.0  0.58221  0.91966  0.30849  1.0000
  C   C87       1.0  0.59343  0.96314  0.31431  1.0000
  C   C88       1.0  0.56143  0.99426  0.32488  1.0000
  N   N19       1.0  0.61283  0.88909  0.30055  1.0000
  C   C89       1.0  0.98477  0.51714  0.33893  1.0000
  C   C90       1.0  0.94043  0.50771  0.34133  1.0000
  C   C91       1.0  0.90840  0.53878  0.35232  1.0000
  C   C92       1.0  0.91966  0.58217  0.36063  1.0000
  N   N20       1.0  0.88909  0.61276  0.36866  1.0000
  H   H61       1.0  0.85916  0.60618  0.36823  1.0000
  H   H62       1.0  0.64273  0.89580  0.29891  1.0000
  H   H63       1.0  0.57178  0.52468  0.32778  1.0000
  H   H64       1.0  0.93004  0.97742  0.33472  1.0000
  N   N21       1.0  0.86638  0.52923  0.35155  1.0000
  N   N22       1.0  0.63543  0.97278  0.31347  1.0000
  C   C93       1.0  0.53707  0.72935  0.30659  1.0000
  C   C94       1.0  0.53463  0.77390  0.29913  1.0000
  C   C95       1.0  0.50354  0.70522  0.34338  1.0000
  O   O13       1.0  0.56745  0.79324  0.25665  1.0000
  H   H65       1.0  0.56327  0.71439  0.28110  1.0000
  H   H66       1.0  0.55825  0.79765  0.19455  1.0000
  C   C96       1.0  0.50702  0.66043  0.34343  1.0000
  H   H67       1.0  0.53452  0.64640  0.32232  1.0000
  C   C97       1.0  0.77232  0.46525  0.30029  1.0000
  C   C98       1.0  0.72776  0.46766  0.29307  1.0000
  C   C99       1.0  0.79648  0.49870  0.33734  1.0000
  O   O14       1.0  0.70834  0.43486  0.25068  1.0000
  H   H68       1.0  0.78727  0.43906  0.27467  1.0000
  H   H69       1.0  0.70367  0.44414  0.18872  1.0000
  C   C100      1.0  0.84127  0.49519  0.33755  1.0000
  H   H70       1.0  0.85527  0.46767  0.31647  1.0000
  C   C101      1.0  0.50774  0.94041  0.32768  1.0000
  C   C102      1.0  0.53882  0.90838  0.31673  1.0000
  H   H71       1.0  0.97745  0.93001  0.33423  1.0000
  C   C103      1.0  0.96314  0.59340  0.35483  1.0000
  C   C104      1.0  0.99426  0.56141  0.34427  1.0000
  H   H72       1.0  0.52468  0.57176  0.34142  1.0000
  H   H73       1.0  0.89578  0.64267  0.37040  1.0000
  H   H74       1.0  0.60625  0.85916  0.30101  1.0000
  N   N23       1.0  0.97277  0.63541  0.35567  1.0000
  N   N24       1.0  0.52928  0.86636  0.31740  1.0000
  C   C105      1.0  0.49872  0.79647  0.33155  1.0000
  C   C106      1.0  0.46520  0.77233  0.36841  1.0000
  C   C107      1.0  0.46760  0.72777  0.37572  1.0000
  H   H75       1.0  0.43900  0.78729  0.39390  1.0000
  O   O15       1.0  0.43475  0.70838  0.41799  1.0000
  H   H76       1.0  0.44394  0.70377  0.48001  1.0000
  C   C108      1.0  0.49521  0.84127  0.33123  1.0000
  H   H77       1.0  0.46770  0.85526  0.35234  1.0000
  C   C109      1.0  0.70522  0.50356  0.32569  1.0000
  C   C110      1.0  0.72938  0.53704  0.36262  1.0000
  C   C111      1.0  0.77393  0.53458  0.37001  1.0000
  H   H78       1.0  0.71443  0.56319  0.38840  1.0000
  O   O16       1.0  0.79328  0.56729  0.41280  1.0000
  H   H79       1.0  0.79773  0.55795  0.47478  1.0000
  C   C112      1.0  0.66043  0.50704  0.32577  1.0000
  H   H80       1.0  0.64646  0.53454  0.34701  1.0000
