data_image0
_chemical_formula_structural       COHCNC2OHCHCOHCNC2OHCHC2O2H2NCNCN3C2OHOHCHC4O2H2NCNCN3C2OHOHCHC5OHC3HN3C3OH2C3OHC3HN3C3OH2OH2C2OHCHCNC2N2OHCOHOH2C2OHCHCNC2N2OHCOHC3O2H2CHC3O2H2CHC3O2H2CHCNCNCN4CNCNCN4C3OHOHCHC3OHOHCHC3OHOHCHC3O2H2CHC3O2H2CHC3O2H2CHCNCNCN4CNCNCN4C3OHOHCHC3OHOHCHC3OHOHCH
_chemical_formula_sum              "C120 O48 H72 N48"
_cell_length_a       45.1495
_cell_length_b       45.1495
_cell_length_c       14.799
_cell_angle_alpha    90
_cell_angle_beta     90
_cell_angle_gamma    120

_space_group_name_H-M_alt    "P 1"
_space_group_IT_number       1

loop_
  _space_group_symop_operation_xyz
  'x, y, z'

loop_
  _atom_site_type_symbol
  _atom_site_label
  _atom_site_symmetry_multiplicity
  _atom_site_fract_x
  _atom_site_fract_y
  _atom_site_fract_z
  _atom_site_occupancy
  C   C1        1.0  0.03408  0.24551  0.34177  1.0000
  O   O1        1.0  0.05581  0.23283  0.33684  1.0000
  H   H1        1.0  0.05938  0.23073  0.27211  1.0000
  C   C2        1.0  0.14195  0.31984  0.34789  1.0000
  N   N1        1.0  0.10761  0.29859  0.34765  1.0000
  C   C3        1.0  0.04655  0.28124  0.34778  1.0000
  C   C4        1.0  0.02184  0.29195  0.35215  1.0000
  O   O2        1.0  0.03162  0.32577  0.35915  1.0000
  H   H2        1.0  0.03303  0.33409  0.29699  1.0000
  C   C5        1.0  0.08197  0.30599  0.34892  1.0000
  H   H3        1.0  0.08908  0.33134  0.35176  1.0000
  C   C6        1.0  0.03408  0.74551  0.34177  1.0000
  O   O3        1.0  0.05581  0.73283  0.33684  1.0000
  H   H4        1.0  0.05938  0.73073  0.27211  1.0000
  C   C7        1.0  0.14195  0.81984  0.34789  1.0000
  N   N2        1.0  0.10761  0.79859  0.34765  1.0000
  C   C8        1.0  0.04655  0.78124  0.34778  1.0000
  C   C9        1.0  0.02184  0.79195  0.35215  1.0000
  O   O4        1.0  0.03162  0.82577  0.35915  1.0000
  H   H5        1.0  0.03303  0.83409  0.29699  1.0000
  C   C10       1.0  0.08197  0.80599  0.34892  1.0000
  H   H6        1.0  0.08908  0.83134  0.35176  1.0000
  C   C11       1.0  0.23667  0.01844  0.34287  1.0000
  C   C12       1.0  0.22502  0.48290  0.34177  1.0000
  O   O5        1.0  0.21264  0.02822  0.33579  1.0000
  O   O6        1.0  0.19060  0.46117  0.33683  1.0000
  H   H7        1.0  0.20572  0.02964  0.39793  1.0000
  H   H8        1.0  0.18494  0.45760  0.27209  1.0000
  N   N3        1.0  0.16241  0.30573  0.34786  1.0000
  C   C13       1.0  0.19714  0.32550  0.34790  1.0000
  N   N4        1.0  0.21125  0.36007  0.34787  1.0000
  C   C14       1.0  0.19148  0.37504  0.34790  1.0000
  N   N5        1.0  0.15691  0.35457  0.34786  1.0000
  N   N6        1.0  0.20456  0.40937  0.34765  1.0000
  N   N7        1.0  0.21839  0.31242  0.34765  1.0000
  C   C15       1.0  0.23574  0.26870  0.34777  1.0000
  C   C16       1.0  0.22503  0.23328  0.35212  1.0000
  O   O7        1.0  0.23622  0.18721  0.35813  1.0000
  H   H9        1.0  0.23413  0.18154  0.42287  1.0000
  O   O8        1.0  0.19121  0.20925  0.35917  1.0000
  H   H10       1.0  0.18288  0.20233  0.29702  1.0000
  C   C17       1.0  0.21099  0.27938  0.34892  1.0000
  H   H11       1.0  0.18564  0.26113  0.35176  1.0000
  C   C18       1.0  0.24828  0.47043  0.34779  1.0000
  C   C19       1.0  0.23760  0.43501  0.34893  1.0000
  C   C20       1.0  0.23667  0.51844  0.34287  1.0000
  C   C21       1.0  0.22502  0.98290  0.34177  1.0000
  O   O9        1.0  0.21264  0.52822  0.33579  1.0000
  O   O10       1.0  0.19060  0.96117  0.33683  1.0000
  H   H12       1.0  0.20571  0.52963  0.39793  1.0000
  H   H13       1.0  0.18494  0.95760  0.27209  1.0000
  N   N8        1.0  0.16241  0.80573  0.34786  1.0000
  C   C22       1.0  0.19714  0.82550  0.34790  1.0000
  N   N9        1.0  0.21125  0.86007  0.34787  1.0000
  C   C23       1.0  0.19148  0.87504  0.34790  1.0000
  N   N10       1.0  0.15691  0.85457  0.34786  1.0000
  N   N11       1.0  0.20456  0.90937  0.34765  1.0000
  N   N12       1.0  0.21839  0.81242  0.34765  1.0000
  C   C24       1.0  0.23574  0.76870  0.34777  1.0000
  C   C25       1.0  0.22503  0.73328  0.35212  1.0000
  O   O11       1.0  0.23622  0.68721  0.35813  1.0000
  H   H14       1.0  0.23413  0.68154  0.42287  1.0000
  O   O12       1.0  0.19121  0.70925  0.35917  1.0000
  H   H15       1.0  0.18288  0.70233  0.29702  1.0000
  C   C26       1.0  0.21099  0.77938  0.34892  1.0000
  H   H16       1.0  0.18564  0.76113  0.35176  1.0000
  C   C27       1.0  0.24828  0.97043  0.34779  1.0000
  C   C28       1.0  0.23760  0.93501  0.34893  1.0000
  C   C29       1.0  0.28464  0.24488  0.34720  1.0000
  C   C30       1.0  0.29535  0.28031  0.34284  1.0000
  C   C31       1.0  0.27147  0.29196  0.34175  1.0000
  O   O13       1.0  0.28415  0.32638  0.33687  1.0000
  H   H17       1.0  0.28625  0.33206  0.27214  1.0000
  C   C32       1.0  0.30938  0.23420  0.34607  1.0000
  C   C33       1.0  0.27210  0.04315  0.34723  1.0000
  C   C34       1.0  0.28278  0.07858  0.34607  1.0000
  H   H18       1.0  0.26453  0.08568  0.34323  1.0000
  N   N13       1.0  0.30913  0.15351  0.34713  1.0000
  N   N14       1.0  0.31581  0.10422  0.34735  1.0000
  N   N15       1.0  0.30199  0.20117  0.34734  1.0000
  C   C35       1.0  0.24891  0.22162  0.35321  1.0000
  C   C36       1.0  0.28370  0.49514  0.35215  1.0000
  C   C37       1.0  0.29536  0.03068  0.35326  1.0000
  O   O14       1.0  0.30773  0.48536  0.35920  1.0000
  H   H19       1.0  0.31465  0.48395  0.29706  1.0000
  H   H20       1.0  0.25585  0.42790  0.35178  1.0000
  C   C38       1.0  0.28464  0.74488  0.34720  1.0000
  C   C39       1.0  0.29535  0.78031  0.34284  1.0000
  C   C40       1.0  0.27147  0.79196  0.34175  1.0000
  O   O15       1.0  0.28415  0.82638  0.33687  1.0000
  H   H21       1.0  0.28625  0.83206  0.27214  1.0000
  C   C41       1.0  0.30938  0.73420  0.34607  1.0000
  C   C42       1.0  0.27210  0.54315  0.34723  1.0000
  C   C43       1.0  0.28278  0.57858  0.34607  1.0000
  H   H22       1.0  0.26453  0.58568  0.34323  1.0000
  N   N16       1.0  0.30913  0.65351  0.34713  1.0000
  N   N17       1.0  0.31581  0.60421  0.34735  1.0000
  N   N18       1.0  0.30199  0.70117  0.34734  1.0000
  C   C44       1.0  0.24891  0.72162  0.35321  1.0000
  C   C45       1.0  0.28370  0.99514  0.35215  1.0000
  C   C46       1.0  0.29536  0.53068  0.35326  1.0000
  O   O16       1.0  0.30773  0.98536  0.35920  1.0000
  H   H23       1.0  0.31465  0.98395  0.29706  1.0000
  H   H24       1.0  0.25585  0.92790  0.35178  1.0000
  O   O17       1.0  0.32917  0.30434  0.33584  1.0000
  H   H25       1.0  0.33749  0.31125  0.39799  1.0000
  H   H26       1.0  0.33474  0.25245  0.34322  1.0000
  C   C47       1.0  0.47383  0.23234  0.34723  1.0000
  C   C48       1.0  0.49854  0.22163  0.34287  1.0000
  O   O18       1.0  0.48876  0.18782  0.33583  1.0000
  H   H27       1.0  0.48735  0.17948  0.39797  1.0000
  C   C49       1.0  0.43840  0.20760  0.34607  1.0000
  H   H28       1.0  0.43130  0.18224  0.34324  1.0000
  C   C50       1.0  0.37843  0.19374  0.34710  1.0000
  N   N19       1.0  0.35797  0.20785  0.34713  1.0000
  C   C51       1.0  0.32324  0.18809  0.34709  1.0000
  C   C52       1.0  0.32889  0.13855  0.34710  1.0000
  N   N20       1.0  0.36347  0.15901  0.34713  1.0000
  N   N21       1.0  0.41276  0.21499  0.34735  1.0000
  O   O19       1.0  0.32977  0.05241  0.35815  1.0000
  H   H29       1.0  0.33545  0.05599  0.42289  1.0000
  C   C53       1.0  0.48630  0.26807  0.35323  1.0000
  O   O20       1.0  0.46456  0.28075  0.35814  1.0000
  H   H30       1.0  0.46099  0.28285  0.42288  1.0000
  O   O21       1.0  0.32916  0.80434  0.33584  1.0000
  H   H31       1.0  0.33749  0.81125  0.39799  1.0000
  H   H32       1.0  0.33474  0.75245  0.34322  1.0000
  C   C54       1.0  0.47383  0.73234  0.34723  1.0000
  C   C55       1.0  0.49854  0.72163  0.34287  1.0000
  O   O22       1.0  0.48876  0.68781  0.33583  1.0000
  H   H33       1.0  0.48734  0.67948  0.39797  1.0000
  C   C56       1.0  0.43840  0.70760  0.34607  1.0000
  H   H34       1.0  0.43130  0.68224  0.34324  1.0000
  C   C57       1.0  0.37843  0.69374  0.34710  1.0000
  N   N22       1.0  0.35797  0.70785  0.34713  1.0000
  C   C58       1.0  0.32324  0.68809  0.34709  1.0000
  C   C59       1.0  0.32889  0.63855  0.34710  1.0000
  N   N23       1.0  0.36347  0.65901  0.34713  1.0000
  N   N24       1.0  0.41276  0.71499  0.34735  1.0000
  O   O23       1.0  0.32977  0.55241  0.35815  1.0000
  H   H35       1.0  0.33544  0.55599  0.42289  1.0000
  C   C60       1.0  0.48629  0.76807  0.35323  1.0000
  O   O24       1.0  0.46457  0.78076  0.35814  1.0000
  H   H36       1.0  0.46099  0.78285  0.42288  1.0000
  C   C61       1.0  0.78464  0.24488  0.34720  1.0000
  C   C62       1.0  0.79535  0.28031  0.34284  1.0000
  C   C63       1.0  0.77146  0.29196  0.34175  1.0000
  O   O25       1.0  0.82916  0.30434  0.33584  1.0000
  O   O26       1.0  0.78415  0.32638  0.33687  1.0000
  H   H37       1.0  0.83749  0.31125  0.39799  1.0000
  H   H38       1.0  0.78625  0.33206  0.27214  1.0000
  C   C64       1.0  0.80938  0.23420  0.34607  1.0000
  H   H39       1.0  0.83474  0.25245  0.34322  1.0000
  C   C65       1.0  0.77210  0.04315  0.34723  1.0000
  C   C66       1.0  0.73667  0.01844  0.34287  1.0000
  C   C67       1.0  0.72502  0.48290  0.34177  1.0000
  O   O27       1.0  0.71264  0.02822  0.33579  1.0000
  O   O28       1.0  0.69060  0.46117  0.33683  1.0000
  H   H40       1.0  0.70572  0.02964  0.39793  1.0000
  H   H41       1.0  0.68494  0.45760  0.27209  1.0000
  C   C68       1.0  0.78278  0.07858  0.34607  1.0000
  H   H42       1.0  0.76453  0.08568  0.34323  1.0000
  C   C69       1.0  0.97383  0.23234  0.34723  1.0000
  C   C70       1.0  0.99854  0.22163  0.34287  1.0000
  C   C71       1.0  0.53408  0.24551  0.34177  1.0000
  O   O29       1.0  0.98876  0.18782  0.33583  1.0000
  O   O30       1.0  0.55581  0.23283  0.33684  1.0000
  H   H43       1.0  0.98734  0.17948  0.39797  1.0000
  H   H44       1.0  0.55938  0.23073  0.27211  1.0000
  C   C72       1.0  0.93840  0.20760  0.34607  1.0000
  H   H45       1.0  0.93130  0.18224  0.34324  1.0000
  C   C73       1.0  0.64194  0.31984  0.34789  1.0000
  N   N25       1.0  0.66241  0.30573  0.34786  1.0000
  C   C74       1.0  0.69713  0.32550  0.34790  1.0000
  N   N26       1.0  0.71125  0.36007  0.34787  1.0000
  C   C75       1.0  0.69148  0.37504  0.34790  1.0000
  N   N27       1.0  0.65691  0.35457  0.34786  1.0000
  N   N28       1.0  0.60761  0.29859  0.34765  1.0000
  N   N29       1.0  0.70456  0.40937  0.34765  1.0000
  N   N30       1.0  0.71839  0.31242  0.34765  1.0000
  C   C76       1.0  0.87843  0.19374  0.34710  1.0000
  N   N31       1.0  0.85797  0.20785  0.34713  1.0000
  C   C77       1.0  0.82324  0.18809  0.34709  1.0000
  N   N32       1.0  0.80913  0.15351  0.34713  1.0000
  C   C78       1.0  0.82889  0.13855  0.34710  1.0000
  N   N33       1.0  0.86347  0.15901  0.34713  1.0000
  N   N34       1.0  0.91277  0.21499  0.34735  1.0000
  N   N35       1.0  0.81581  0.10422  0.34735  1.0000
  N   N36       1.0  0.80199  0.20117  0.34734  1.0000
  C   C79       1.0  0.73574  0.26870  0.34777  1.0000
  C   C80       1.0  0.72503  0.23328  0.35212  1.0000
  C   C81       1.0  0.74891  0.22162  0.35321  1.0000
  O   O31       1.0  0.73622  0.18721  0.35813  1.0000
  H   H46       1.0  0.73413  0.18154  0.42287  1.0000
  O   O32       1.0  0.69121  0.20925  0.35917  1.0000
  H   H47       1.0  0.68288  0.20233  0.29702  1.0000
  C   C82       1.0  0.71099  0.27938  0.34892  1.0000
  H   H48       1.0  0.68564  0.26113  0.35176  1.0000
  C   C83       1.0  0.74828  0.47043  0.34779  1.0000
  C   C84       1.0  0.78370  0.49514  0.35215  1.0000
  C   C85       1.0  0.79536  0.03068  0.35326  1.0000
  O   O33       1.0  0.82977  0.05241  0.35815  1.0000
  H   H49       1.0  0.83545  0.05599  0.42289  1.0000
  O   O34       1.0  0.80773  0.48536  0.35920  1.0000
  H   H50       1.0  0.81465  0.48395  0.29706  1.0000
  C   C86       1.0  0.73760  0.43501  0.34893  1.0000
  H   H51       1.0  0.75585  0.42790  0.35178  1.0000
  C   C87       1.0  0.54655  0.28124  0.34778  1.0000
  C   C88       1.0  0.52184  0.29195  0.35215  1.0000
  C   C89       1.0  0.98629  0.26807  0.35323  1.0000
  O   O35       1.0  0.96457  0.28075  0.35814  1.0000
  H   H52       1.0  0.96099  0.28285  0.42288  1.0000
  O   O36       1.0  0.53162  0.32577  0.35915  1.0000
  H   H53       1.0  0.53303  0.33409  0.29699  1.0000
  C   C90       1.0  0.58197  0.30599  0.34892  1.0000
  H   H54       1.0  0.58908  0.33134  0.35176  1.0000
  C   C91       1.0  0.78464  0.74488  0.34720  1.0000
  C   C92       1.0  0.79535  0.78031  0.34284  1.0000
  C   C93       1.0  0.77147  0.79196  0.34175  1.0000
  O   O37       1.0  0.82917  0.80434  0.33584  1.0000
  O   O38       1.0  0.78415  0.82638  0.33687  1.0000
  H   H55       1.0  0.83749  0.81125  0.39799  1.0000
  H   H56       1.0  0.78625  0.83206  0.27214  1.0000
  C   C94       1.0  0.80938  0.73420  0.34607  1.0000
  H   H57       1.0  0.83474  0.75245  0.34322  1.0000
  C   C95       1.0  0.77210  0.54315  0.34723  1.0000
  C   C96       1.0  0.73667  0.51844  0.34287  1.0000
  C   C97       1.0  0.72502  0.98290  0.34177  1.0000
  O   O39       1.0  0.71264  0.52822  0.33579  1.0000
  O   O40       1.0  0.69060  0.96117  0.33683  1.0000
  H   H58       1.0  0.70572  0.52963  0.39793  1.0000
  H   H59       1.0  0.68494  0.95760  0.27209  1.0000
  C   C98       1.0  0.78278  0.57858  0.34607  1.0000
  H   H60       1.0  0.76453  0.58568  0.34323  1.0000
  C   C99       1.0  0.97383  0.73234  0.34723  1.0000
  C   C100      1.0  0.99854  0.72163  0.34287  1.0000
  C   C101      1.0  0.53408  0.74551  0.34177  1.0000
  O   O41       1.0  0.98876  0.68781  0.33583  1.0000
  O   O42       1.0  0.55581  0.73283  0.33684  1.0000
  H   H61       1.0  0.98735  0.67948  0.39797  1.0000
  H   H62       1.0  0.55938  0.73073  0.27211  1.0000
  C   C102      1.0  0.93840  0.70760  0.34607  1.0000
  H   H63       1.0  0.93130  0.68224  0.34324  1.0000
  C   C103      1.0  0.64195  0.81984  0.34789  1.0000
  N   N37       1.0  0.66241  0.80573  0.34786  1.0000
  C   C104      1.0  0.69713  0.82550  0.34790  1.0000
  N   N38       1.0  0.71125  0.86007  0.34787  1.0000
  C   C105      1.0  0.69148  0.87504  0.34790  1.0000
  N   N39       1.0  0.65691  0.85457  0.34786  1.0000
  N   N40       1.0  0.60761  0.79859  0.34765  1.0000
  N   N41       1.0  0.70456  0.90937  0.34765  1.0000
  N   N42       1.0  0.71839  0.81242  0.34765  1.0000
  C   C106      1.0  0.87843  0.69374  0.34710  1.0000
  N   N43       1.0  0.85797  0.70785  0.34713  1.0000
  C   C107      1.0  0.82324  0.68809  0.34709  1.0000
  N   N44       1.0  0.80913  0.65351  0.34713  1.0000
  C   C108      1.0  0.82889  0.63855  0.34710  1.0000
  N   N45       1.0  0.86347  0.65901  0.34713  1.0000
  N   N46       1.0  0.91276  0.71499  0.34735  1.0000
  N   N47       1.0  0.81581  0.60421  0.34735  1.0000
  N   N48       1.0  0.80199  0.70117  0.34734  1.0000
  C   C109      1.0  0.73574  0.76870  0.34777  1.0000
  C   C110      1.0  0.72502  0.73328  0.35212  1.0000
  C   C111      1.0  0.74891  0.72162  0.35321  1.0000
  O   O43       1.0  0.73622  0.68721  0.35813  1.0000
  H   H64       1.0  0.73413  0.68154  0.42287  1.0000
  O   O44       1.0  0.69121  0.70925  0.35917  1.0000
  H   H65       1.0  0.68288  0.70233  0.29702  1.0000
  C   C112      1.0  0.71099  0.77938  0.34892  1.0000
  H   H66       1.0  0.68564  0.76113  0.35176  1.0000
  C   C113      1.0  0.74828  0.97043  0.34779  1.0000
  C   C114      1.0  0.78370  0.99514  0.35215  1.0000
  C   C115      1.0  0.79536  0.53068  0.35326  1.0000
  O   O45       1.0  0.82977  0.55241  0.35815  1.0000
  H   H67       1.0  0.83544  0.55599  0.42289  1.0000
  O   O46       1.0  0.80773  0.98536  0.35920  1.0000
  H   H68       1.0  0.81465  0.98395  0.29706  1.0000
  C   C116      1.0  0.73760  0.93501  0.34893  1.0000
  H   H69       1.0  0.75585  0.92790  0.35178  1.0000
  C   C117      1.0  0.54655  0.78124  0.34778  1.0000
  C   C118      1.0  0.52184  0.79195  0.35215  1.0000
  C   C119      1.0  0.98629  0.76807  0.35323  1.0000
  O   O47       1.0  0.96456  0.78076  0.35814  1.0000
  H   H70       1.0  0.96099  0.78285  0.42288  1.0000
  O   O48       1.0  0.53162  0.82577  0.35915  1.0000
  H   H71       1.0  0.53303  0.83409  0.29699  1.0000
  C   C120      1.0  0.58197  0.80599  0.34892  1.0000
  H   H72       1.0  0.58908  0.83134  0.35176  1.0000
