data_image0
_chemical_formula_structural       C2NC2OHC2NC2OHC2NC2OHC2NC2OHNCHNCHNCHNCHNCHNCHNCHNCHC2NC2OHC2NC2OHC2NC2OHC2NC2OHC2NC2OHC2NC2OHC2NC2OHC2NC2OHNCHNCHNCHNCHNCHNCHNCHNCHNCHNCHC6H3C6H3C6H3C6H3C6H3C6H3C6H3C6H3C6H3C6H3C6H3C6H3C6H3C6H3C6H3C6H3C6H3C6H3C6H3C6H3NCHNCHNCHNCHC2NC2OHC2NC2OHC2NC2OHC2NC2OHC2NC2OHC2NC2OHC2NC2OHC2NC2OHNCHNCHNCHNCHNCHNCHNCHNCHC2NC2OHC2NC2OHC2NC2OHC2NC2OHC2NC2OHC2NC2OHC2NC2OHC2NC2OHC2NC2OHC2NC2OH
_chemical_formula_sum              "C270 N60 O30 H120"
_cell_length_a       43.9823
_cell_length_b       43.9823
_cell_length_c       14.8731
_cell_angle_alpha    90
_cell_angle_beta     90
_cell_angle_gamma    90

_space_group_name_H-M_alt    "P 1"
_space_group_IT_number       1

loop_
  _space_group_symop_operation_xyz
  'x, y, z'

loop_
  _atom_site_type_symbol
  _atom_site_label
  _atom_site_symmetry_multiplicity
  _atom_site_fract_x
  _atom_site_fract_y
  _atom_site_fract_z
  _atom_site_occupancy
  C   C1        1.0  0.37456  0.05414  0.32327  1.0000
  C   C2        1.0  0.31357  0.03621  0.32758  1.0000
  N   N1        1.0  0.32357  0.05874  0.27259  1.0000
  C   C3        1.0  0.35289  0.06825  0.26577  1.0000
  C   C4        1.0  0.35986  0.09040  0.20281  1.0000
  O   O1        1.0  0.33979  0.10238  0.15830  1.0000
  H   H1        1.0  0.37971  0.08863  0.17146  1.0000
  C   C5        1.0  0.63425  0.95368  0.32625  1.0000
  C   C6        1.0  0.69551  0.97042  0.33065  1.0000
  N   N2        1.0  0.68502  0.94856  0.27419  1.0000
  C   C7        1.0  0.65554  0.93959  0.26738  1.0000
  C   C8        1.0  0.64794  0.91806  0.20301  1.0000
  O   O2        1.0  0.66794  0.90652  0.15713  1.0000
  H   H2        1.0  0.62825  0.92072  0.17156  1.0000
  C   C9        1.0  0.95395  0.37430  0.32627  1.0000
  C   C10       1.0  0.97119  0.31325  0.33460  1.0000
  N   N3        1.0  0.94919  0.32313  0.27763  1.0000
  C   C11       1.0  0.93996  0.35247  0.26900  1.0000
  C   C12       1.0  0.91832  0.35938  0.20425  1.0000
  O   O3        1.0  0.90650  0.33899  0.16065  1.0000
  H   H3        1.0  0.92127  0.37876  0.17127  1.0000
  C   C13       1.0  0.05461  0.63390  0.32294  1.0000
  C   C14       1.0  0.03721  0.69509  0.32348  1.0000
  N   N4        1.0  0.05960  0.68450  0.26898  1.0000
  C   C15       1.0  0.06884  0.65505  0.26395  1.0000
  C   C16       1.0  0.09085  0.64743  0.20122  1.0000
  O   O4        1.0  0.10307  0.66709  0.15566  1.0000
  H   H4        1.0  0.08881  0.62743  0.17093  1.0000
  N   N5        1.0  0.14438  0.53285  0.30788  1.0000
  C   C17       1.0  0.17360  0.52322  0.30429  1.0000
  H   H5        1.0  0.17944  0.50635  0.26033  1.0000
  N   N6        1.0  0.86354  0.47462  0.30051  1.0000
  C   C18       1.0  0.83415  0.48367  0.29614  1.0000
  H   H6        1.0  0.82800  0.50027  0.25162  1.0000
  N   N7        1.0  0.53365  0.86403  0.30242  1.0000
  C   C19       1.0  0.52437  0.83473  0.29696  1.0000
  H   H7        1.0  0.50766  0.82891  0.25240  1.0000
  N   N8        1.0  0.47520  0.14476  0.30638  1.0000
  C   C20       1.0  0.48457  0.17407  0.30389  1.0000
  H   H8        1.0  0.50126  0.18029  0.25974  1.0000
  N   N9        1.0  0.17915  0.11638  0.30218  1.0000
  C   C21       1.0  0.18911  0.08707  0.29869  1.0000
  H   H9        1.0  0.18197  0.07325  0.24763  1.0000
  N   N10       1.0  0.82827  0.88914  0.28768  1.0000
  C   C22       1.0  0.81878  0.91864  0.28361  1.0000
  H   H10       1.0  0.82509  0.93187  0.23031  1.0000
  N   N11       1.0  0.89177  0.17873  0.29677  1.0000
  C   C23       1.0  0.92110  0.18871  0.29357  1.0000
  H   H11       1.0  0.93484  0.18199  0.24184  1.0000
  N   N12       1.0  0.11914  0.82783  0.29299  1.0000
  C   C24       1.0  0.08964  0.81841  0.28867  1.0000
  H   H12       1.0  0.07636  0.82510  0.23587  1.0000
  C   C25       1.0  0.32046  0.63958  0.32282  1.0000
  C   C26       1.0  0.29710  0.58001  0.32479  1.0000
  N   N13       1.0  0.28716  0.60160  0.26627  1.0000
  C   C27       1.0  0.29791  0.63051  0.25971  1.0000
  C   C28       1.0  0.28584  0.64941  0.19424  1.0000
  O   O5        1.0  0.26564  0.64037  0.14445  1.0000
  H   H13       1.0  0.29969  0.66459  0.16667  1.0000
  C   C29       1.0  0.68861  0.36664  0.33174  1.0000
  C   C30       1.0  0.71053  0.42698  0.33338  1.0000
  N   N14       1.0  0.71938  0.40604  0.27126  1.0000
  C   C31       1.0  0.70925  0.37690  0.26461  1.0000
  C   C32       1.0  0.72013  0.35881  0.19524  1.0000
  O   O6        1.0  0.73844  0.36936  0.14174  1.0000
  H   H14       1.0  0.70585  0.34382  0.16891  1.0000
  C   C33       1.0  0.64016  0.68747  0.32653  1.0000
  C   C34       1.0  0.58038  0.71061  0.32806  1.0000
  N   N15       1.0  0.60184  0.71994  0.26815  1.0000
  C   C35       1.0  0.63079  0.70932  0.26170  1.0000
  C   C36       1.0  0.64955  0.72093  0.19497  1.0000
  O   O7        1.0  0.64007  0.74070  0.14445  1.0000
  H   H15       1.0  0.66413  0.70645  0.16747  1.0000
  C   C37       1.0  0.36712  0.31925  0.32788  1.0000
  C   C38       1.0  0.42730  0.29718  0.32999  1.0000
  N   N16       1.0  0.40622  0.28763  0.26931  1.0000
  C   C39       1.0  0.37711  0.29785  0.26251  1.0000
  C   C40       1.0  0.35892  0.28636  0.19440  1.0000
  O   O8        1.0  0.36869  0.26699  0.14293  1.0000
  H   H16       1.0  0.34377  0.30035  0.16732  1.0000
  C   C41       1.0  0.22790  0.96421  0.34344  1.0000
  C   C42       1.0  0.21573  0.90091  0.34905  1.0000
  N   N17       1.0  0.19819  0.92091  0.30197  1.0000
  C   C43       1.0  0.20268  0.95163  0.29625  1.0000
  C   C44       1.0  0.18392  0.96840  0.24041  1.0000
  O   O9        1.0  0.16112  0.95690  0.20794  1.0000
  H   H17       1.0  0.19375  0.98393  0.20169  1.0000
  C   C45       1.0  0.78066  0.04260  0.31933  1.0000
  C   C46       1.0  0.79574  0.10482  0.33549  1.0000
  N   N18       1.0  0.77544  0.09457  0.27378  1.0000
  C   C47       1.0  0.76740  0.06489  0.26144  1.0000
  C   C48       1.0  0.74733  0.05797  0.19239  1.0000
  O   O10       1.0  0.73692  0.07839  0.14575  1.0000
  H   H18       1.0  0.75050  0.03848  0.16025  1.0000
  C   C49       1.0  0.04372  0.22828  0.32551  1.0000
  C   C50       1.0  0.10576  0.21256  0.34002  1.0000
  N   N19       1.0  0.09557  0.23305  0.27877  1.0000
  C   C51       1.0  0.06596  0.24140  0.26723  1.0000
  C   C52       1.0  0.05909  0.26158  0.19836  1.0000
  O   O11       1.0  0.07948  0.27260  0.15294  1.0000
  H   H19       1.0  0.03973  0.25795  0.16590  1.0000
  C   C53       1.0  0.96545  0.78092  0.33788  1.0000
  C   C54       1.0  0.90197  0.79270  0.34389  1.0000
  N   N20       1.0  0.92190  0.81042  0.29707  1.0000
  C   C55       1.0  0.95266  0.80615  0.29120  1.0000
  C   C56       1.0  0.96928  0.82508  0.23548  1.0000
  O   O12       1.0  0.95765  0.84795  0.20380  1.0000
  H   H20       1.0  0.98471  0.81537  0.19617  1.0000
  N   N21       1.0  0.26335  0.44649  0.29217  1.0000
  C   C57       1.0  0.26787  0.41607  0.28730  1.0000
  H   H21       1.0  0.25338  0.40321  0.24944  1.0000
  N   N22       1.0  0.70731  0.55108  0.30099  1.0000
  C   C58       1.0  0.69931  0.58085  0.29304  1.0000
  H   H22       1.0  0.68431  0.58705  0.24390  1.0000
  N   N23       1.0  0.45678  0.70742  0.29799  1.0000
  C   C59       1.0  0.42711  0.69907  0.29043  1.0000
  H   H23       1.0  0.42100  0.68403  0.24129  1.0000
  N   N24       1.0  0.56106  0.26338  0.29518  1.0000
  C   C60       1.0  0.59153  0.26766  0.29036  1.0000
  H   H24       1.0  0.60428  0.25307  0.25249  1.0000
  N   N25       1.0  0.20995  0.27248  0.29949  1.0000
  C   C61       1.0  0.22995  0.29608  0.29388  1.0000
  H   H25       1.0  0.22551  0.31354  0.25048  1.0000
  N   N26       1.0  0.79773  0.73249  0.31047  1.0000
  C   C62       1.0  0.77793  0.70864  0.30716  1.0000
  H   H26       1.0  0.78298  0.69037  0.26751  1.0000
  N   N27       1.0  0.73535  0.20926  0.29867  1.0000
  C   C63       1.0  0.71173  0.22930  0.29399  1.0000
  H   H27       1.0  0.69405  0.22484  0.25142  1.0000
  N   N28       1.0  0.27555  0.79693  0.31200  1.0000
  C   C64       1.0  0.29938  0.77717  0.30790  1.0000
  H   H28       1.0  0.31749  0.78222  0.26756  1.0000
  N   N29       1.0  0.52890  0.00517  0.29732  1.0000
  C   C65       1.0  0.50851  0.02806  0.29032  1.0000
  H   H29       1.0  0.51187  0.04486  0.24388  1.0000
  N   N30       1.0  0.00340  0.52848  0.29650  1.0000
  C   C66       1.0  0.98053  0.50810  0.28917  1.0000
  H   H30       1.0  0.96393  0.51133  0.24201  1.0000
  C   C67       1.0  0.28194  0.03049  0.33351  1.0000
  C   C68       1.0  0.26170  0.05521  0.33932  1.0000
  C   C69       1.0  0.22999  0.05104  0.34772  1.0000
  C   C70       1.0  0.21847  0.02090  0.34724  1.0000
  C   C71       1.0  0.23816  0.99526  0.34119  1.0000
  C   C72       1.0  0.26989  0.00081  0.33546  1.0000
  H   H31       1.0  0.19562  0.01766  0.35575  1.0000
  H   H32       1.0  0.28463  0.98288  0.32943  1.0000
  H   H33       1.0  0.27040  0.07686  0.33921  1.0000
  C   C73       1.0  0.72712  0.97621  0.33342  1.0000
  C   C74       1.0  0.74760  0.95164  0.33600  1.0000
  C   C75       1.0  0.77944  0.95595  0.33773  1.0000
  C   C76       1.0  0.79068  0.98619  0.33093  1.0000
  C   C77       1.0  0.77061  0.01158  0.32568  1.0000
  C   C78       1.0  0.73894  0.00594  0.33132  1.0000
  H   H34       1.0  0.81367  0.98974  0.33052  1.0000
  H   H35       1.0  0.72398  0.02378  0.33096  1.0000
  H   H36       1.0  0.73894  0.92998  0.33855  1.0000
  C   C79       1.0  0.97722  0.28171  0.33920  1.0000
  C   C80       1.0  0.95277  0.26111  0.34309  1.0000
  C   C81       1.0  0.95728  0.22931  0.34574  1.0000
  C   C82       1.0  0.98753  0.21820  0.33850  1.0000
  C   C83       1.0  0.01278  0.23839  0.33227  1.0000
  C   C84       1.0  0.00701  0.27005  0.33694  1.0000
  H   H37       1.0  0.99120  0.19522  0.33850  1.0000
  H   H38       1.0  0.02478  0.28510  0.33565  1.0000
  H   H39       1.0  0.93107  0.26965  0.34556  1.0000
  C   C85       1.0  0.03170  0.72680  0.32758  1.0000
  C   C86       1.0  0.05650  0.74698  0.33199  1.0000
  C   C87       1.0  0.05246  0.77873  0.33977  1.0000
  C   C88       1.0  0.02233  0.79033  0.33986  1.0000
  C   C89       1.0  0.99657  0.77072  0.33500  1.0000
  C   C90       1.0  0.00207  0.73897  0.32978  1.0000
  H   H40       1.0  0.01919  0.81320  0.34822  1.0000
  H   H41       1.0  0.98411  0.72422  0.32470  1.0000
  H   H42       1.0  0.07812  0.73819  0.33199  1.0000
  C   C91       1.0  0.22715  0.53283  0.35036  1.0000
  C   C92       1.0  0.24741  0.55751  0.34447  1.0000
  C   C93       1.0  0.27909  0.55333  0.33556  1.0000
  C   C94       1.0  0.29058  0.52317  0.33574  1.0000
  C   C95       1.0  0.27087  0.49755  0.34180  1.0000
  C   C96       1.0  0.23917  0.50314  0.34825  1.0000
  H   H43       1.0  0.31341  0.51990  0.32683  1.0000
  H   H44       1.0  0.22440  0.48524  0.35446  1.0000
  H   H45       1.0  0.23870  0.57917  0.34488  1.0000
  C   C97       1.0  0.78094  0.47410  0.34616  1.0000
  C   C98       1.0  0.76048  0.44953  0.34350  1.0000
  C   C99       1.0  0.72863  0.45379  0.34236  1.0000
  C   C100      1.0  0.71737  0.48401  0.34991  1.0000
  C   C101      1.0  0.73745  0.50939  0.35519  1.0000
  C   C102      1.0  0.76910  0.50381  0.34899  1.0000
  H   H46       1.0  0.69438  0.48756  0.35105  1.0000
  H   H47       1.0  0.78404  0.52168  0.34981  1.0000
  H   H48       1.0  0.76918  0.42789  0.34080  1.0000
  C   C103      1.0  0.53365  0.78121  0.34447  1.0000
  C   C104      1.0  0.55813  0.76068  0.34020  1.0000
  C   C105      1.0  0.55373  0.72887  0.33766  1.0000
  C   C106      1.0  0.52352  0.71767  0.34538  1.0000
  C   C107      1.0  0.49825  0.73781  0.35204  1.0000
  C   C108      1.0  0.50390  0.76948  0.34726  1.0000
  H   H49       1.0  0.51989  0.69469  0.34563  1.0000
  H   H50       1.0  0.48609  0.78447  0.34907  1.0000
  H   H51       1.0  0.57980  0.76931  0.33764  1.0000
  C   C109      1.0  0.47474  0.22729  0.35271  1.0000
  C   C110      1.0  0.45000  0.24753  0.34827  1.0000
  C   C111      1.0  0.45410  0.27927  0.34040  1.0000
  C   C112      1.0  0.48427  0.29080  0.34015  1.0000
  C   C113      1.0  0.50998  0.27111  0.34501  1.0000
  C   C114      1.0  0.50440  0.23939  0.35056  1.0000
  H   H52       1.0  0.48747  0.31366  0.33190  1.0000
  H   H53       1.0  0.52231  0.22461  0.35589  1.0000
  H   H54       1.0  0.42837  0.23877  0.34864  1.0000
  C   C115      1.0  0.19130  0.22340  0.34884  1.0000
  C   C116      1.0  0.20018  0.19241  0.35032  1.0000
  C   C117      1.0  0.17897  0.16821  0.35441  1.0000
  C   C118      1.0  0.14771  0.17542  0.35093  1.0000
  C   C119      1.0  0.13752  0.20589  0.34473  1.0000
  C   C120      1.0  0.15965  0.22947  0.34284  1.0000
  H   H55       1.0  0.13215  0.15810  0.35253  1.0000
  H   H56       1.0  0.15249  0.25161  0.34118  1.0000
  H   H57       1.0  0.22283  0.18717  0.34810  1.0000
  C   C121      1.0  0.81582  0.78263  0.35180  1.0000
  C   C122      1.0  0.80734  0.81371  0.34696  1.0000
  C   C123      1.0  0.82885  0.83770  0.34524  1.0000
  C   C124      1.0  0.86001  0.83000  0.34145  1.0000
  C   C125      1.0  0.86999  0.79936  0.34419  1.0000
  C   C126      1.0  0.84744  0.77617  0.34915  1.0000
  H   H58       1.0  0.87574  0.84718  0.34157  1.0000
  H   H59       1.0  0.85418  0.75392  0.35098  1.0000
  H   H60       1.0  0.78476  0.81923  0.34440  1.0000
  C   C127      1.0  0.78473  0.19047  0.34607  1.0000
  C   C128      1.0  0.81575  0.19931  0.34716  1.0000
  C   C129      1.0  0.83998  0.17810  0.35009  1.0000
  C   C130      1.0  0.83276  0.14685  0.34630  1.0000
  C   C131      1.0  0.80228  0.13664  0.34061  1.0000
  C   C132      1.0  0.77870  0.15879  0.33952  1.0000
  H   H61       1.0  0.85010  0.13130  0.34726  1.0000
  H   H62       1.0  0.75655  0.15161  0.33809  1.0000
  H   H63       1.0  0.82103  0.22196  0.34538  1.0000
  C   C133      1.0  0.22563  0.81487  0.35493  1.0000
  C   C134      1.0  0.19456  0.80638  0.35032  1.0000
  C   C135      1.0  0.17060  0.82790  0.34970  1.0000
  C   C136      1.0  0.17830  0.85907  0.34651  1.0000
  C   C137      1.0  0.20896  0.86900  0.34890  1.0000
  C   C138      1.0  0.23213  0.84647  0.35296  1.0000
  H   H64       1.0  0.16114  0.87482  0.34716  1.0000
  H   H65       1.0  0.25440  0.85317  0.35454  1.0000
  H   H66       1.0  0.18907  0.78380  0.34715  1.0000
  C   C139      1.0  0.31979  0.72527  0.34835  1.0000
  C   C140      1.0  0.31018  0.69459  0.34233  1.0000
  C   C141      1.0  0.33096  0.67016  0.33292  1.0000
  C   C142      1.0  0.36238  0.67679  0.33405  1.0000
  C   C143      1.0  0.37320  0.70699  0.34190  1.0000
  C   C144      1.0  0.35155  0.73089  0.34843  1.0000
  H   H67       1.0  0.37761  0.65923  0.32945  1.0000
  H   H68       1.0  0.35908  0.75283  0.35418  1.0000
  H   H69       1.0  0.28737  0.68989  0.34293  1.0000
  C   C145      1.0  0.69053  0.28050  0.34093  1.0000
  C   C146      1.0  0.69973  0.31140  0.34258  1.0000
  C   C147      1.0  0.67863  0.33576  0.33959  1.0000
  C   C148      1.0  0.64730  0.32868  0.34055  1.0000
  C   C149      1.0  0.63676  0.29823  0.33848  1.0000
  C   C150      1.0  0.65883  0.27456  0.33746  1.0000
  H   H70       1.0  0.63188  0.34613  0.33788  1.0000
  H   H71       1.0  0.65170  0.25243  0.33885  1.0000
  H   H72       1.0  0.72248  0.31638  0.34363  1.0000
  C   C151      1.0  0.72603  0.68825  0.34904  1.0000
  C   C152      1.0  0.69530  0.69784  0.34389  1.0000
  C   C153      1.0  0.67080  0.67705  0.33610  1.0000
  C   C154      1.0  0.67742  0.64564  0.33736  1.0000
  C   C155      1.0  0.70764  0.63478  0.34406  1.0000
  C   C156      1.0  0.73158  0.65644  0.34946  1.0000
  H   H73       1.0  0.65982  0.63042  0.33363  1.0000
  H   H74       1.0  0.75353  0.64888  0.35451  1.0000
  H   H75       1.0  0.69060  0.72065  0.34402  1.0000
  C   C157      1.0  0.28109  0.31741  0.33966  1.0000
  C   C158      1.0  0.31197  0.30821  0.34057  1.0000
  C   C159      1.0  0.33629  0.32931  0.33608  1.0000
  C   C160      1.0  0.32919  0.36064  0.33673  1.0000
  C   C161      1.0  0.29871  0.37111  0.33555  1.0000
  C   C162      1.0  0.27507  0.34905  0.33581  1.0000
  H   H76       1.0  0.34660  0.37609  0.33325  1.0000
  H   H77       1.0  0.25293  0.35616  0.33778  1.0000
  H   H78       1.0  0.31694  0.28546  0.34219  1.0000
  C   C163      1.0  0.44426  0.10320  0.35099  1.0000
  C   C164      1.0  0.41364  0.09405  0.34100  1.0000
  C   C165      1.0  0.40548  0.06310  0.33185  1.0000
  C   C166      1.0  0.42873  0.04101  0.33556  1.0000
  C   C167      1.0  0.45958  0.04958  0.34221  1.0000
  C   C168      1.0  0.46711  0.08068  0.34875  1.0000
  H   H79       1.0  0.42324  0.01844  0.32965  1.0000
  H   H80       1.0  0.48943  0.08689  0.35660  1.0000
  H   H81       1.0  0.39693  0.11024  0.34066  1.0000
  C   C169      1.0  0.56442  0.90503  0.35235  1.0000
  C   C170      1.0  0.59503  0.91408  0.34270  1.0000
  C   C171      1.0  0.60327  0.94502  0.33544  1.0000
  C   C172      1.0  0.58016  0.96718  0.34242  1.0000
  C   C173      1.0  0.54926  0.95890  0.35222  1.0000
  C   C174      1.0  0.54173  0.92768  0.35360  1.0000
  H   H82       1.0  0.58593  0.98974  0.33946  1.0000
  H   H83       1.0  0.51939  0.92123  0.35700  1.0000
  H   H84       1.0  0.61161  0.89777  0.34043  1.0000
  C   C175      1.0  0.90504  0.44417  0.34846  1.0000
  C   C176      1.0  0.91418  0.41351  0.34016  1.0000
  C   C177      1.0  0.94514  0.40529  0.33294  1.0000
  C   C178      1.0  0.96726  0.42850  0.33693  1.0000
  C   C179      1.0  0.95869  0.45939  0.34173  1.0000
  C   C180      1.0  0.92756  0.46700  0.34638  1.0000
  H   H85       1.0  0.98985  0.42293  0.33229  1.0000
  H   H86       1.0  0.92132  0.48935  0.35300  1.0000
  H   H87       1.0  0.89797  0.39683  0.33975  1.0000
  C   C181      1.0  0.10332  0.56420  0.35426  1.0000
  C   C182      1.0  0.09430  0.59478  0.34280  1.0000
  C   C183      1.0  0.06338  0.60299  0.33390  1.0000
  C   C184      1.0  0.04120  0.57988  0.34102  1.0000
  C   C185      1.0  0.04943  0.54903  0.35255  1.0000
  C   C186      1.0  0.08064  0.54154  0.35564  1.0000
  H   H88       1.0  0.01866  0.58561  0.33684  1.0000
  H   H89       1.0  0.08706  0.51921  0.36023  1.0000
  H   H90       1.0  0.11061  0.61134  0.34035  1.0000
  N   N31       1.0  0.36463  0.03128  0.37771  1.0000
  C   C187      1.0  0.33547  0.02140  0.38098  1.0000
  H   H91       1.0  0.32960  0.00484  0.42595  1.0000
  N   N32       1.0  0.64467  0.97599  0.38186  1.0000
  C   C188      1.0  0.67400  0.98531  0.38522  1.0000
  H   H92       1.0  0.68025  0.00166  0.43043  1.0000
  N   N33       1.0  0.97640  0.36450  0.38239  1.0000
  C   C189      1.0  0.98595  0.33526  0.38767  1.0000
  H   H93       1.0  0.00239  0.32948  0.43309  1.0000
  N   N34       1.0  0.03190  0.64444  0.37689  1.0000
  C   C190      1.0  0.02225  0.67369  0.37831  1.0000
  H   H94       1.0  0.00582  0.68003  0.42315  1.0000
  C   C191      1.0  0.13447  0.55603  0.36109  1.0000
  C   C192      1.0  0.19553  0.53856  0.35630  1.0000
  N   N35       1.0  0.18553  0.56143  0.41007  1.0000
  C   C193      1.0  0.15617  0.57080  0.41697  1.0000
  C   C194      1.0  0.14918  0.59336  0.47862  1.0000
  O   O13       1.0  0.16928  0.60570  0.52217  1.0000
  H   H95       1.0  0.12941  0.59171  0.51041  1.0000
  C   C195      1.0  0.87384  0.45209  0.35549  1.0000
  C   C196      1.0  0.81253  0.46834  0.34919  1.0000
  N   N36       1.0  0.82292  0.44623  0.40501  1.0000
  C   C197      1.0  0.85241  0.43742  0.41256  1.0000
  C   C198      1.0  0.85989  0.41560  0.47620  1.0000
  O   O14       1.0  0.83976  0.40364  0.52060  1.0000
  H   H96       1.0  0.87937  0.41830  0.50874  1.0000
  C   C199      1.0  0.55636  0.87386  0.35752  1.0000
  C   C200      1.0  0.53960  0.81275  0.34897  1.0000
  N   N37       1.0  0.56188  0.82268  0.40490  1.0000
  C   C201      1.0  0.57095  0.85207  0.41353  1.0000
  C   C202      1.0  0.59294  0.85905  0.47720  1.0000
  O   O15       1.0  0.60492  0.83870  0.52058  1.0000
  H   H97       1.0  0.59017  0.87847  0.51012  1.0000
  C   C203      1.0  0.45227  0.13435  0.35970  1.0000
  C   C204      1.0  0.46918  0.19562  0.35717  1.0000
  N   N38       1.0  0.44653  0.18515  0.41096  1.0000
  C   C205      1.0  0.43744  0.15568  0.41674  1.0000
  C   C206      1.0  0.41512  0.14820  0.47865  1.0000
  O   O16       1.0  0.40246  0.16800  0.52259  1.0000
  H   H98       1.0  0.41718  0.12840  0.51011  1.0000
  C   C207      1.0  0.18900  0.13741  0.36312  1.0000
  C   C208      1.0  0.21199  0.07769  0.35897  1.0000
  N   N39       1.0  0.22140  0.09866  0.42009  1.0000
  C   C209      1.0  0.21074  0.12757  0.42774  1.0000
  C   C210      1.0  0.22202  0.14576  0.49609  1.0000
  O   O17       1.0  0.24245  0.13666  0.54495  1.0000
  H   H99       1.0  0.20754  0.15995  0.52542  1.0000
  C   C211      1.0  0.81932  0.86880  0.35189  1.0000
  C   C212      1.0  0.79756  0.92918  0.34749  1.0000
  N   N40       1.0  0.78914  0.90885  0.41179  1.0000
  C   C213      1.0  0.79928  0.87974  0.41974  1.0000
  C   C214      1.0  0.78906  0.86230  0.49134  1.0000
  O   O18       1.0  0.77036  0.87288  0.54358  1.0000
  H   H100      1.0  0.80388  0.84820  0.51929  1.0000
  C   C215      1.0  0.87083  0.18807  0.35872  1.0000
  C   C216      1.0  0.93071  0.21096  0.35562  1.0000
  N   N41       1.0  0.90977  0.21976  0.41771  1.0000
  C   C217      1.0  0.88082  0.20916  0.42496  1.0000
  C   C218      1.0  0.86263  0.22001  0.49410  1.0000
  O   O19       1.0  0.87212  0.23997  0.54396  1.0000
  H   H101      1.0  0.84891  0.20498  0.52284  1.0000
  C   C219      1.0  0.13954  0.81832  0.35627  1.0000
  C   C220      1.0  0.07925  0.79660  0.35097  1.0000
  N   N42       1.0  0.09964  0.78748  0.41420  1.0000
  C   C221      1.0  0.12873  0.79761  0.42252  1.0000
  C   C222      1.0  0.14615  0.78680  0.49327  1.0000
  O   O20       1.0  0.13625  0.76716  0.54356  1.0000
  H   H102      1.0  0.16038  0.80134  0.52212  1.0000
  N   N43       1.0  0.33088  0.61794  0.38101  1.0000
  C   C223      1.0  0.32077  0.58867  0.38329  1.0000
  H   H103      1.0  0.32842  0.57436  0.43246  1.0000
  N   N44       1.0  0.67920  0.38753  0.39377  1.0000
  C   C224      1.0  0.68878  0.41702  0.39647  1.0000
  H   H104      1.0  0.68205  0.43070  0.44832  1.0000
  N   N45       1.0  0.61873  0.67759  0.38622  1.0000
  C   C225      1.0  0.58943  0.68767  0.38857  1.0000
  H   H105      1.0  0.57530  0.68044  0.43872  1.0000
  N   N46       1.0  0.38819  0.32924  0.38855  1.0000
  C   C226      1.0  0.41765  0.31966  0.39123  1.0000
  H   H106      1.0  0.43148  0.32678  0.44229  1.0000
  N   N47       1.0  0.24522  0.94415  0.39110  1.0000
  C   C227      1.0  0.24038  0.91378  0.39624  1.0000
  H   H107      1.0  0.25459  0.90090  0.43498  1.0000
  N   N48       1.0  0.80142  0.05275  0.38030  1.0000
  C   C228      1.0  0.80993  0.08236  0.38898  1.0000
  H   H108      1.0  0.82536  0.08808  0.43746  1.0000
  N   N49       1.0  0.05381  0.20731  0.38596  1.0000
  C   C229      1.0  0.08333  0.19851  0.39390  1.0000
  H   H109      1.0  0.08904  0.18298  0.44213  1.0000
  N   N50       1.0  0.94545  0.76345  0.38535  1.0000
  C   C230      1.0  0.91504  0.76807  0.39070  1.0000
  H   H110      1.0  0.90228  0.75373  0.42933  1.0000
  C   C231      1.0  0.28099  0.46647  0.33917  1.0000
  C   C232      1.0  0.29250  0.40309  0.33421  1.0000
  N   N51       1.0  0.31038  0.42296  0.38061  1.0000
  C   C233      1.0  0.30623  0.45373  0.38590  1.0000
  C   C234      1.0  0.32525  0.47040  0.44122  1.0000
  O   O21       1.0  0.34810  0.45877  0.47302  1.0000
  H   H111      1.0  0.31562  0.48596  0.48026  1.0000
  C   C235      1.0  0.72749  0.54036  0.36279  1.0000
  C   C236      1.0  0.71355  0.60284  0.34811  1.0000
  N   N52       1.0  0.73326  0.59200  0.41061  1.0000
  C   C237      1.0  0.74072  0.56216  0.42231  1.0000
  C   C238      1.0  0.76039  0.55464  0.49185  1.0000
  O   O22       1.0  0.77065  0.57466  0.54023  1.0000
  H   H112      1.0  0.75696  0.53494  0.52261  1.0000
  C   C239      1.0  0.46735  0.72774  0.35963  1.0000
  C   C240      1.0  0.40508  0.71305  0.34589  1.0000
  N   N53       1.0  0.41578  0.73289  0.40826  1.0000
  C   C241      1.0  0.44553  0.74071  0.41952  1.0000
  C   C242      1.0  0.45290  0.76040  0.48918  1.0000
  O   O23       1.0  0.43285  0.77122  0.53627  1.0000
  H   H113      1.0  0.47245  0.75649  0.52040  1.0000
  C   C243      1.0  0.54115  0.28114  0.34209  1.0000
  C   C244      1.0  0.60471  0.29217  0.33730  1.0000
  N   N54       1.0  0.58490  0.31021  0.38348  1.0000
  C   C245      1.0  0.55408  0.30631  0.38864  1.0000
  C   C246      1.0  0.53755  0.32547  0.44390  1.0000
  O   O24       1.0  0.54930  0.34836  0.47508  1.0000
  H   H114      1.0  0.52207  0.31593  0.48341  1.0000
  C   C247      1.0  0.21369  0.24743  0.35265  1.0000
  C   C248      1.0  0.25733  0.29503  0.34349  1.0000
  N   N55       1.0  0.26067  0.27043  0.39788  1.0000
  C   C249      1.0  0.24056  0.24700  0.40658  1.0000
  C   C250      1.0  0.24666  0.22520  0.47122  1.0000
  O   O25       1.0  0.27177  0.22358  0.50624  1.0000
  H   H115      1.0  0.22954  0.21917  0.51086  1.0000
  C   C251      1.0  0.79330  0.75868  0.35814  1.0000
  C   C252      1.0  0.74994  0.71055  0.35338  1.0000
  N   N56       1.0  0.74585  0.73636  0.40233  1.0000
  C   C253      1.0  0.76577  0.76009  0.40888  1.0000
  C   C254      1.0  0.75883  0.78336  0.46824  1.0000
  O   O26       1.0  0.73335  0.78492  0.50092  1.0000
  H   H116      1.0  0.77540  0.79023  0.50859  1.0000
  C   C255      1.0  0.76068  0.21292  0.35077  1.0000
  C   C256      1.0  0.71295  0.25668  0.34361  1.0000
  N   N57       1.0  0.73783  0.25992  0.39702  1.0000
  C   C257      1.0  0.76133  0.23980  0.40472  1.0000
  C   C258      1.0  0.78342  0.24581  0.46872  1.0000
  O   O27       1.0  0.78505  0.27103  0.50304  1.0000
  H   H117      1.0  0.78878  0.22863  0.50889  1.0000
  C   C259      1.0  0.24954  0.79239  0.36037  1.0000
  C   C260      1.0  0.29755  0.74913  0.35383  1.0000
  N   N58       1.0  0.27192  0.74490  0.40343  1.0000
  C   C261      1.0  0.24823  0.76479  0.41080  1.0000
  C   C262      1.0  0.22520  0.75770  0.47065  1.0000
  O   O28       1.0  0.22324  0.73220  0.50289  1.0000
  H   H118      1.0  0.21813  0.77428  0.51079  1.0000
  C   C263      1.0  0.52627  0.98155  0.35598  1.0000
  C   C264      1.0  0.48242  0.02718  0.34500  1.0000
  N   N59       1.0  0.47982  0.00390  0.40430  1.0000
  C   C265      1.0  0.50043  0.98108  0.41377  1.0000
  C   C266      1.0  0.49582  0.95996  0.48153  1.0000
  O   O29       1.0  0.47213  0.95977  0.52455  1.0000
  H   H119      1.0  0.51398  0.95321  0.51576  1.0000
  C   C267      1.0  0.02675  0.52604  0.35617  1.0000
  C   C268      1.0  0.98111  0.48221  0.34470  1.0000
  N   N60       1.0  0.00412  0.47980  0.40499  1.0000
  C   C269      1.0  0.02693  0.50041  0.41477  1.0000
  C   C270      1.0  0.04781  0.49608  0.48346  1.0000
  O   O30       1.0  0.04727  0.47254  0.52725  1.0000
  H   H120      1.0  0.05406  0.51432  0.51798  1.0000
