data_image0
_chemical_formula_structural       CNHCNHCNHCNHC3NCH3C3NCH3C3NCH3C3NCH3C3NCH3C3NCH3C3NCH3C3NCH3CNHCNHCNHCNHC3NCH3C3NCH3C3NCH3C3NCH3CNHCNHCNHCNHC3NCH3C3NCH3CNHCNHCNHCNHC3NCH3C3NCH3C3NCH3C3NCH3C3NCH3C3NCH3C3NCH3C3NCH3CNHCNHCNHCNHCNCNCNCNCNCNCNCNCNCNCNCNCNCNCNCNCNCNCNCNCNCNCNCNCNCNCNCNCNCNCNCNCNCNCNCNCNCNCNCNCNCNCNCNCNCNCNCNCNCNCNCNCNCNCNCNCNCNCNCNCNCNCNCNCNCNCNCNCNCNCNCNCNCNCNCNCNCNCNCNCNCNCNCNC3NCH3C3NCH3C3NCH3C3NCH3CNHCNHCNHCNHCNHCNHCNHCNHC3NCH3C3NCH3C3NCH3C3NCH3CNHCNHCNHCNHC3NCH3C3NCH3C3NCH3C3NCH3CNHCNHC3NCH3C3NCH3C3NCH3C3NCH3CNHCNHCNHCNHCNHCNHCNHCNHC3NCH3C3NCH3C3NCH3C3NCH3
_chemical_formula_sum              "C294 N168 H168"
_cell_length_a       51.2026
_cell_length_b       51.2026
_cell_length_c       14.8468
_cell_angle_alpha    90
_cell_angle_beta     90
_cell_angle_gamma    90

_space_group_name_H-M_alt    "P 1"
_space_group_IT_number       1

loop_
  _space_group_symop_operation_xyz
  'x, y, z'

loop_
  _atom_site_type_symbol
  _atom_site_label
  _atom_site_symmetry_multiplicity
  _atom_site_fract_x
  _atom_site_fract_y
  _atom_site_fract_z
  _atom_site_occupancy
  C   C1        1.0  0.11799  0.14609  0.31620  1.0000
  N   N1        1.0  0.13603  0.16530  0.31275  1.0000
  H   H1        1.0  0.09925  0.15095  0.29951  1.0000
  C   C2        1.0  0.89232  0.86391  0.31644  1.0000
  N   N2        1.0  0.87418  0.84480  0.31288  1.0000
  H   H2        1.0  0.91103  0.85896  0.29964  1.0000
  C   C3        1.0  0.86428  0.11766  0.31612  1.0000
  N   N3        1.0  0.84512  0.13575  0.31219  1.0000
  H   H3        1.0  0.85940  0.09892  0.29939  1.0000
  C   C4        1.0  0.14645  0.89208  0.31711  1.0000
  N   N4        1.0  0.16562  0.87399  0.31381  1.0000
  H   H4        1.0  0.15137  0.91081  0.30044  1.0000
  C   C5        1.0  0.11289  0.01520  0.31633  1.0000
  C   C6        1.0  0.09752  0.03016  0.37756  1.0000
  C   C7        1.0  0.09719  0.97597  0.38397  1.0000
  N   N5        1.0  0.11168  0.98865  0.32129  1.0000
  C   C8        1.0  0.12806  0.02541  0.23901  1.0000
  H   H5        1.0  0.12685  0.04645  0.23133  1.0000
  H   H6        1.0  0.12088  0.01663  0.17668  1.0000
  H   H7        1.0  0.14858  0.02015  0.24741  1.0000
  C   C9        1.0  0.89769  0.99469  0.31700  1.0000
  C   C10       1.0  0.91311  0.97971  0.37797  1.0000
  C   C11       1.0  0.91353  0.03388  0.38453  1.0000
  N   N6        1.0  0.89896  0.02123  0.32200  1.0000
  C   C12       1.0  0.88251  0.98454  0.23962  1.0000
  H   H8        1.0  0.88368  0.96349  0.23187  1.0000
  H   H9        1.0  0.88970  0.99333  0.17734  1.0000
  H   H10       1.0  0.86199  0.98983  0.24805  1.0000
  C   C13       1.0  0.99503  0.11257  0.31675  1.0000
  C   C14       1.0  0.98010  0.09730  0.37833  1.0000
  C   C15       1.0  0.03429  0.09692  0.38429  1.0000
  N   N7        1.0  0.02157  0.11135  0.32156  1.0000
  C   C16       1.0  0.98479  0.12765  0.23926  1.0000
  H   H11       1.0  0.96374  0.12650  0.23182  1.0000
  H   H12       1.0  0.99351  0.12036  0.17698  1.0000
  H   H13       1.0  0.99012  0.14817  0.24725  1.0000
  C   C17       1.0  0.01557  0.89731  0.31622  1.0000
  C   C18       1.0  0.03051  0.91267  0.37752  1.0000
  C   C19       1.0  0.97633  0.91296  0.38397  1.0000
  N   N8        1.0  0.98902  0.89851  0.32120  1.0000
  C   C20       1.0  0.02580  0.88219  0.23885  1.0000
  H   H14       1.0  0.04684  0.88340  0.23126  1.0000
  H   H15       1.0  0.01703  0.88939  0.17654  1.0000
  H   H16       1.0  0.02054  0.86166  0.24712  1.0000
  C   C21       1.0  0.15631  0.26069  0.30318  1.0000
  C   C22       1.0  0.18188  0.25199  0.32883  1.0000
  C   C23       1.0  0.16686  0.30485  0.34049  1.0000
  N   N9        1.0  0.14999  0.28649  0.31030  1.0000
  C   C24       1.0  0.13542  0.24384  0.26571  1.0000
  H   H17       1.0  0.14279  0.23304  0.20766  1.0000
  H   H18       1.0  0.11860  0.25527  0.24334  1.0000
  H   H19       1.0  0.12857  0.23019  0.31688  1.0000
  C   C25       1.0  0.85393  0.74973  0.30154  1.0000
  C   C26       1.0  0.82836  0.75832  0.32753  1.0000
  C   C27       1.0  0.84356  0.70552  0.33860  1.0000
  N   N10       1.0  0.86035  0.72395  0.30838  1.0000
  C   C28       1.0  0.87475  0.76667  0.26407  1.0000
  H   H20       1.0  0.86730  0.77752  0.20627  1.0000
  H   H21       1.0  0.89158  0.75531  0.24132  1.0000
  H   H22       1.0  0.88163  0.78027  0.31537  1.0000
  C   C29       1.0  0.74991  0.15609  0.30050  1.0000
  C   C30       1.0  0.75855  0.18165  0.32650  1.0000
  C   C31       1.0  0.70574  0.16655  0.33784  1.0000
  N   N11       1.0  0.72412  0.14973  0.30748  1.0000
  C   C32       1.0  0.76679  0.13527  0.26279  1.0000
  H   H23       1.0  0.77763  0.14273  0.20497  1.0000
  H   H24       1.0  0.75539  0.11847  0.24001  1.0000
  H   H25       1.0  0.78041  0.12834  0.31395  1.0000
  C   C33       1.0  0.26085  0.85376  0.30398  1.0000
  C   C34       1.0  0.25221  0.82817  0.32961  1.0000
  C   C35       1.0  0.30506  0.84328  0.34104  1.0000
  N   N12       1.0  0.28665  0.86012  0.31098  1.0000
  C   C36       1.0  0.24396  0.87463  0.26666  1.0000
  H   H26       1.0  0.23315  0.86726  0.20865  1.0000
  H   H27       1.0  0.25535  0.89148  0.24428  1.0000
  H   H28       1.0  0.23032  0.88145  0.31793  1.0000
  C   C37       1.0  0.80860  0.27054  0.32142  1.0000
  N   N13       1.0  0.81626  0.29578  0.31919  1.0000
  H   H29       1.0  0.78999  0.26636  0.30105  1.0000
  C   C38       1.0  0.20227  0.73916  0.32519  1.0000
  N   N14       1.0  0.19467  0.71389  0.32319  1.0000
  H   H30       1.0  0.22092  0.74334  0.30540  1.0000
  C   C39       1.0  0.27079  0.20183  0.32270  1.0000
  N   N15       1.0  0.29602  0.19412  0.32015  1.0000
  H   H31       1.0  0.26663  0.22045  0.30242  1.0000
  C   C40       1.0  0.73936  0.80814  0.32423  1.0000
  N   N16       1.0  0.71408  0.81570  0.32237  1.0000
  H   H32       1.0  0.74357  0.78951  0.30419  1.0000
  C   C41       1.0  0.37012  0.06208  0.32673  1.0000
  C   C42       1.0  0.39705  0.05631  0.34193  1.0000
  C   C43       1.0  0.37728  0.10864  0.33895  1.0000
  N   N17       1.0  0.36162  0.08746  0.32614  1.0000
  C   C44       1.0  0.35007  0.04203  0.30887  1.0000
  H   H33       1.0  0.35564  0.03041  0.25037  1.0000
  H   H34       1.0  0.33100  0.05075  0.29512  1.0000
  H   H35       1.0  0.34808  0.02950  0.36772  1.0000
  C   C45       1.0  0.64000  0.94737  0.33319  1.0000
  C   C46       1.0  0.61282  0.95322  0.34093  1.0000
  C   C47       1.0  0.63239  0.90081  0.33958  1.0000
  N   N18       1.0  0.64836  0.92198  0.33312  1.0000
  C   C48       1.0  0.66059  0.96733  0.32300  1.0000
  H   H36       1.0  0.65678  0.97908  0.26315  1.0000
  H   H37       1.0  0.67992  0.95854  0.31556  1.0000
  H   H38       1.0  0.66096  0.97974  0.38256  1.0000
  C   C49       1.0  0.94819  0.36995  0.32655  1.0000
  C   C50       1.0  0.95395  0.39689  0.34174  1.0000
  C   C51       1.0  0.90163  0.37710  0.33870  1.0000
  N   N19       1.0  0.92282  0.36145  0.32594  1.0000
  C   C52       1.0  0.96824  0.34991  0.30873  1.0000
  H   H39       1.0  0.97986  0.35548  0.25023  1.0000
  H   H40       1.0  0.95953  0.33084  0.29496  1.0000
  H   H41       1.0  0.98077  0.34791  0.36758  1.0000
  C   C53       1.0  0.06289  0.63985  0.33344  1.0000
  C   C54       1.0  0.05704  0.61266  0.34104  1.0000
  C   C55       1.0  0.10945  0.63224  0.33982  1.0000
  N   N20       1.0  0.08828  0.64820  0.33340  1.0000
  C   C56       1.0  0.04293  0.66044  0.32332  1.0000
  H   H42       1.0  0.03119  0.65666  0.26343  1.0000
  H   H43       1.0  0.05172  0.67977  0.31597  1.0000
  H   H44       1.0  0.03051  0.66079  0.38286  1.0000
  C   C57       1.0  0.59698  0.07546  0.33449  1.0000
  N   N21       1.0  0.60671  0.10016  0.33719  1.0000
  H   H45       1.0  0.57718  0.07396  0.32814  1.0000
  C   C58       1.0  0.41411  0.93431  0.34036  1.0000
  N   N22       1.0  0.40439  0.90958  0.34292  1.0000
  H   H46       1.0  0.43394  0.93588  0.33565  1.0000
  C   C59       1.0  0.07593  0.41395  0.34034  1.0000
  N   N23       1.0  0.10066  0.40422  0.34291  1.0000
  H   H47       1.0  0.07437  0.43378  0.33572  1.0000
  C   C60       1.0  0.93478  0.59682  0.33462  1.0000
  N   N24       1.0  0.91007  0.60653  0.33735  1.0000
  H   H48       1.0  0.93629  0.57702  0.32829  1.0000
  C   C61       1.0  0.49423  0.02914  0.31473  1.0000
  C   C62       1.0  0.47817  0.00692  0.33282  1.0000
  C   C63       1.0  0.53330  0.00385  0.33326  1.0000
  N   N25       1.0  0.52067  0.02658  0.31642  1.0000
  C   C64       1.0  0.48474  0.05571  0.29347  1.0000
  H   H49       1.0  0.47099  0.05507  0.23730  1.0000
  H   H50       1.0  0.50070  0.06879  0.27442  1.0000
  H   H51       1.0  0.47535  0.06394  0.35267  1.0000
  C   C65       1.0  0.98111  0.49408  0.31475  1.0000
  C   C66       1.0  0.00332  0.47801  0.33279  1.0000
  C   C67       1.0  0.00640  0.53315  0.33329  1.0000
  N   N26       1.0  0.98367  0.52052  0.31646  1.0000
  C   C68       1.0  0.95453  0.48459  0.29354  1.0000
  H   H52       1.0  0.95516  0.47085  0.23736  1.0000
  H   H53       1.0  0.94145  0.50055  0.27455  1.0000
  H   H54       1.0  0.94632  0.47520  0.35275  1.0000
  C   C69       1.0  0.20828  0.41003  0.33322  1.0000
  N   N27       1.0  0.23337  0.41873  0.32682  1.0000
  H   H55       1.0  0.19433  0.41891  0.29464  1.0000
  C   C70       1.0  0.80268  0.60005  0.33065  1.0000
  N   N28       1.0  0.77763  0.59119  0.32453  1.0000
  H   H56       1.0  0.81663  0.59133  0.29161  1.0000
  C   C71       1.0  0.60042  0.20765  0.33015  1.0000
  N   N29       1.0  0.59165  0.23273  0.32410  1.0000
  H   H57       1.0  0.59164  0.19374  0.29115  1.0000
  C   C72       1.0  0.41039  0.80204  0.33337  1.0000
  N   N30       1.0  0.41920  0.77697  0.32712  1.0000
  H   H58       1.0  0.41926  0.81602  0.29489  1.0000
  C   C73       1.0  0.78324  0.37536  0.26243  1.0000
  C   C74       1.0  0.80500  0.38667  0.30870  1.0000
  C   C75       1.0  0.75383  0.40617  0.32794  1.0000
  N   N31       1.0  0.75889  0.38519  0.27546  1.0000
  C   C76       1.0  0.78446  0.35345  0.19725  1.0000
  H   H59       1.0  0.80424  0.34985  0.17309  1.0000
  H   H60       1.0  0.77252  0.35791  0.13825  1.0000
  H   H61       1.0  0.77692  0.33572  0.22871  1.0000
  C   C77       1.0  0.22793  0.63455  0.26499  1.0000
  C   C78       1.0  0.20612  0.62307  0.31046  1.0000
  C   C79       1.0  0.25721  0.60337  0.32905  1.0000
  N   N32       1.0  0.25224  0.62462  0.27776  1.0000
  C   C80       1.0  0.22681  0.65679  0.20109  1.0000
  H   H62       1.0  0.20710  0.66032  0.17613  1.0000
  H   H63       1.0  0.23905  0.65276  0.14245  1.0000
  H   H64       1.0  0.23404  0.67442  0.23404  1.0000
  C   C81       1.0  0.37559  0.22711  0.26358  1.0000
  C   C82       1.0  0.38691  0.20529  0.30951  1.0000
  C   C83       1.0  0.40672  0.25636  0.32820  1.0000
  N   N33       1.0  0.38557  0.25141  0.27641  1.0000
  C   C84       1.0  0.35351  0.22601  0.19903  1.0000
  H   H65       1.0  0.35000  0.20629  0.17410  1.0000
  H   H66       1.0  0.35773  0.23820  0.14043  1.0000
  H   H67       1.0  0.33582  0.23330  0.23140  1.0000
  C   C85       1.0  0.63474  0.78244  0.26383  1.0000
  C   C86       1.0  0.62328  0.80418  0.30972  1.0000
  C   C87       1.0  0.60391  0.75298  0.32889  1.0000
  N   N34       1.0  0.62497  0.75806  0.27681  1.0000
  C   C88       1.0  0.65678  0.78370  0.19915  1.0000
  H   H68       1.0  0.66041  0.80349  0.17520  1.0000
  H   H69       1.0  0.65243  0.77179  0.14000  1.0000
  H   H70       1.0  0.67445  0.77616  0.23097  1.0000
  C   C89       1.0  0.29510  0.49260  0.27687  1.0000
  C   C90       1.0  0.31377  0.47675  0.32274  1.0000
  C   C91       1.0  0.31620  0.53186  0.32762  1.0000
  N   N35       1.0  0.29708  0.51894  0.28283  1.0000
  C   C92       1.0  0.27292  0.48288  0.22201  1.0000
  H   H71       1.0  0.27959  0.46763  0.17609  1.0000
  H   H72       1.0  0.26430  0.49847  0.18145  1.0000
  H   H73       1.0  0.25761  0.47515  0.26550  1.0000
  C   C93       1.0  0.71600  0.51693  0.27588  1.0000
  C   C94       1.0  0.69732  0.53279  0.32164  1.0000
  C   C95       1.0  0.69486  0.47767  0.32651  1.0000
  N   N36       1.0  0.71400  0.49059  0.28180  1.0000
  C   C96       1.0  0.73820  0.52664  0.22111  1.0000
  H   H74       1.0  0.73155  0.54187  0.17510  1.0000
  H   H75       1.0  0.74685  0.51104  0.18066  1.0000
  H   H76       1.0  0.75349  0.53439  0.26467  1.0000
  C   C97       1.0  0.51757  0.29433  0.27568  1.0000
  C   C98       1.0  0.53340  0.31301  0.32151  1.0000
  C   C99       1.0  0.47829  0.31535  0.32664  1.0000
  N   N37       1.0  0.49123  0.29626  0.28175  1.0000
  C   C100      1.0  0.52730  0.27218  0.22069  1.0000
  H   H77       1.0  0.54252  0.27888  0.17474  1.0000
  H   H78       1.0  0.51171  0.26355  0.18015  1.0000
  H   H79       1.0  0.53507  0.25686  0.26410  1.0000
  C   C101      1.0  0.49324  0.71525  0.27740  1.0000
  C   C102      1.0  0.47738  0.69659  0.32322  1.0000
  C   C103      1.0  0.53248  0.69400  0.32767  1.0000
  N   N38       1.0  0.51957  0.71319  0.28315  1.0000
  C   C104      1.0  0.48355  0.73750  0.22283  1.0000
  H   H80       1.0  0.46829  0.73090  0.17684  1.0000
  H   H81       1.0  0.49915  0.74614  0.18238  1.0000
  H   H82       1.0  0.47584  0.75277  0.26653  1.0000
  C   C105      1.0  0.37265  0.39230  0.34018  1.0000
  N   N39       1.0  0.39208  0.37403  0.33699  1.0000
  H   H83       1.0  0.37764  0.41117  0.32601  1.0000
  C   C106      1.0  0.63827  0.61710  0.33983  1.0000
  N   N40       1.0  0.61880  0.63533  0.33699  1.0000
  H   H84       1.0  0.63332  0.59823  0.32556  1.0000
  C   C107      1.0  0.61787  0.37201  0.33904  1.0000
  N   N41       1.0  0.63614  0.39144  0.33611  1.0000
  H   H85       1.0  0.59900  0.37700  0.32481  1.0000
  C   C108      1.0  0.39306  0.63762  0.34095  1.0000
  N   N42       1.0  0.37483  0.61815  0.33787  1.0000
  H   H86       1.0  0.41194  0.63267  0.32672  1.0000
  C   C109      1.0  0.06057  0.09069  0.37451  1.0000
  N   N43       1.0  0.07948  0.10860  0.35974  1.0000
  C   C110      1.0  0.10497  0.10130  0.35151  1.0000
  N   N44       1.0  0.11080  0.07544  0.35670  1.0000
  C   C111      1.0  0.09222  0.05707  0.36965  1.0000
  N   N45       1.0  0.06726  0.06522  0.37931  1.0000
  C   C112      1.0  0.95003  0.91914  0.37427  1.0000
  N   N46       1.0  0.93107  0.90126  0.35975  1.0000
  C   C113      1.0  0.90557  0.90861  0.35186  1.0000
  N   N47       1.0  0.89980  0.93447  0.35711  1.0000
  C   C114      1.0  0.91841  0.95281  0.36984  1.0000
  N   N48       1.0  0.94337  0.94462  0.37919  1.0000
  C   C115      1.0  0.91966  0.06019  0.37488  1.0000
  N   N49       1.0  0.90172  0.07908  0.36010  1.0000
  C   C116      1.0  0.90900  0.10459  0.35204  1.0000
  N   N50       1.0  0.93484  0.11045  0.35735  1.0000
  C   C117      1.0  0.95322  0.09190  0.37034  1.0000
  N   N51       1.0  0.94512  0.06692  0.37986  1.0000
  C   C118      1.0  0.09103  0.94966  0.37426  1.0000
  N   N52       1.0  0.10895  0.93073  0.35986  1.0000
  C   C119      1.0  0.10166  0.90522  0.35191  1.0000
  N   N53       1.0  0.07580  0.89940  0.35699  1.0000
  C   C120      1.0  0.05742  0.91799  0.36963  1.0000
  N   N54       1.0  0.06556  0.94296  0.37902  1.0000
  C   C121      1.0  0.22433  0.19276  0.34442  1.0000
  N   N55       1.0  0.21642  0.21827  0.33833  1.0000
  C   C122      1.0  0.19071  0.22543  0.32979  1.0000
  N   N56       1.0  0.17292  0.20587  0.32806  1.0000
  C   C123      1.0  0.17983  0.18048  0.33283  1.0000
  N   N57       1.0  0.20536  0.17450  0.34089  1.0000
  C   C124      1.0  0.78584  0.81747  0.34457  1.0000
  N   N58       1.0  0.79377  0.79197  0.33796  1.0000
  C   C125      1.0  0.81947  0.78484  0.32907  1.0000
  N   N59       1.0  0.83724  0.80441  0.32758  1.0000
  C   C126      1.0  0.83033  0.82979  0.33291  1.0000
  N   N60       1.0  0.80480  0.83575  0.34130  1.0000
  C   C127      1.0  0.81774  0.22409  0.34290  1.0000
  N   N61       1.0  0.79223  0.21619  0.33642  1.0000
  C   C128      1.0  0.78509  0.19048  0.32783  1.0000
  N   N62       1.0  0.80463  0.17268  0.32652  1.0000
  C   C129      1.0  0.83001  0.17958  0.33174  1.0000
  N   N63       1.0  0.83600  0.20511  0.33982  1.0000
  C   C130      1.0  0.19300  0.78565  0.34560  1.0000
  N   N64       1.0  0.21851  0.79358  0.33941  1.0000
  C   C131      1.0  0.22566  0.81929  0.33072  1.0000
  N   N65       1.0  0.20609  0.83706  0.32902  1.0000
  C   C132      1.0  0.18070  0.83015  0.33396  1.0000
  N   N66       1.0  0.17473  0.80462  0.34214  1.0000
  C   C133      1.0  0.40952  0.98296  0.34177  1.0000
  N   N67       1.0  0.39667  0.00663  0.34294  1.0000
  C   C134      1.0  0.40913  0.03050  0.34116  1.0000
  N   N68       1.0  0.43571  0.02933  0.33755  1.0000
  C   C135      1.0  0.45006  0.00709  0.33559  1.0000
  N   N69       1.0  0.43607  0.98459  0.33818  1.0000
  C   C136      1.0  0.60138  0.02681  0.33891  1.0000
  N   N70       1.0  0.61386  0.00292  0.34075  1.0000
  C   C137      1.0  0.60105  0.97917  0.34017  1.0000
  N   N71       1.0  0.57446  0.98054  0.33789  1.0000
  C   C138      1.0  0.56086  0.00318  0.33545  1.0000
  N   N72       1.0  0.57484  0.02559  0.33596  1.0000
  C   C139      1.0  0.02728  0.40936  0.34169  1.0000
  N   N73       1.0  0.00362  0.39652  0.34280  1.0000
  C   C140      1.0  0.97976  0.40897  0.34101  1.0000
  N   N74       1.0  0.98091  0.43555  0.33746  1.0000
  C   C141      1.0  0.00315  0.44991  0.33556  1.0000
  N   N75       1.0  0.02566  0.43591  0.33813  1.0000
  C   C142      1.0  0.98344  0.60123  0.33902  1.0000
  N   N76       1.0  0.00733  0.61370  0.34087  1.0000
  C   C143      1.0  0.03108  0.60090  0.34028  1.0000
  N   N77       1.0  0.02971  0.57431  0.33797  1.0000
  C   C144      1.0  0.00707  0.56071  0.33551  1.0000
  N   N78       1.0  0.98466  0.57469  0.33603  1.0000
  C   C145      1.0  0.32579  0.40516  0.35726  1.0000
  N   N79       1.0  0.33025  0.43127  0.34211  1.0000
  C   C146      1.0  0.31044  0.44917  0.33450  1.0000
  N   N80       1.0  0.28563  0.44020  0.34430  1.0000
  C   C147      1.0  0.27984  0.41491  0.36001  1.0000
  N   N81       1.0  0.30023  0.39805  0.36615  1.0000
  C   C148      1.0  0.68518  0.60434  0.35637  1.0000
  N   N82       1.0  0.68078  0.57823  0.34129  1.0000
  C   C149      1.0  0.70062  0.56037  0.33342  1.0000
  N   N83       1.0  0.72543  0.56942  0.34279  1.0000
  C   C150      1.0  0.73116  0.59474  0.35839  1.0000
  N   N84       1.0  0.71072  0.61152  0.36487  1.0000
  C   C151      1.0  0.60501  0.32513  0.35583  1.0000
  N   N85       1.0  0.57889  0.32957  0.34086  1.0000
  C   C152      1.0  0.56100  0.30974  0.33316  1.0000
  N   N86       1.0  0.57002  0.28493  0.34259  1.0000
  C   C153      1.0  0.59533  0.27916  0.35808  1.0000
  N   N87       1.0  0.61215  0.29958  0.36439  1.0000
  C   C154      1.0  0.40582  0.68451  0.35781  1.0000
  N   N88       1.0  0.43193  0.68009  0.34269  1.0000
  C   C155      1.0  0.44980  0.69991  0.33499  1.0000
  N   N89       1.0  0.44079  0.72472  0.34464  1.0000
  C   C156      1.0  0.41549  0.73048  0.36032  1.0000
  N   N90       1.0  0.39867  0.71006  0.36657  1.0000
  C   C157      1.0  0.68195  0.40635  0.34607  1.0000
  N   N91       1.0  0.67737  0.43271  0.34223  1.0000
  C   C158      1.0  0.69751  0.45020  0.33514  1.0000
  N   N92       1.0  0.72235  0.44072  0.33273  1.0000
  C   C159      1.0  0.72780  0.41494  0.33642  1.0000
  N   N93       1.0  0.70730  0.39814  0.34176  1.0000
  C   C160      1.0  0.32906  0.60318  0.34756  1.0000
  N   N94       1.0  0.33366  0.57682  0.34362  1.0000
  C   C161      1.0  0.31353  0.55932  0.33628  1.0000
  N   N95       1.0  0.28869  0.56879  0.33375  1.0000
  C   C162      1.0  0.28322  0.59457  0.33751  1.0000
  N   N96       1.0  0.30371  0.61138  0.34313  1.0000
  C   C163      1.0  0.40698  0.32823  0.34654  1.0000
  N   N97       1.0  0.43334  0.33280  0.34259  1.0000
  C   C164      1.0  0.45082  0.31267  0.33525  1.0000
  N   N98       1.0  0.44135  0.28782  0.33280  1.0000
  C   C165      1.0  0.41556  0.28237  0.33660  1.0000
  N   N99       1.0  0.39876  0.30288  0.34217  1.0000
  C   C166      1.0  0.60381  0.68110  0.34702  1.0000
  N   N100      1.0  0.57746  0.67650  0.34327  1.0000
  C   C167      1.0  0.55995  0.69663  0.33621  1.0000
  N   N101      1.0  0.56942  0.72147  0.33379  1.0000
  C   C168      1.0  0.59519  0.72694  0.33742  1.0000
  N   N102      1.0  0.61201  0.70646  0.34270  1.0000
  C   C169      1.0  0.17797  0.37414  0.37199  1.0000
  N   N103      1.0  0.15323  0.38417  0.36499  1.0000
  C   C170      1.0  0.13184  0.36837  0.35149  1.0000
  N   N104      1.0  0.13597  0.34206  0.34302  1.0000
  C   C171      1.0  0.16039  0.33158  0.34700  1.0000
  N   N105      1.0  0.18044  0.34812  0.36086  1.0000
  C   C172      1.0  0.83279  0.63615  0.36910  1.0000
  N   N106      1.0  0.85757  0.62626  0.36175  1.0000
  C   C173      1.0  0.87887  0.64220  0.34841  1.0000
  N   N107      1.0  0.87463  0.66850  0.34045  1.0000
  C   C174      1.0  0.85015  0.67882  0.34473  1.0000
  N   N108      1.0  0.83018  0.66217  0.35842  1.0000
  C   C175      1.0  0.63641  0.17743  0.36865  1.0000
  N   N109      1.0  0.62648  0.15265  0.36153  1.0000
  C   C176      1.0  0.64240  0.13133  0.34815  1.0000
  N   N110      1.0  0.66869  0.13555  0.33999  1.0000
  C   C177      1.0  0.67905  0.16001  0.34415  1.0000
  N   N111      1.0  0.66243  0.18001  0.35786  1.0000
  C   C178      1.0  0.37439  0.83224  0.37180  1.0000
  N   N112      1.0  0.38439  0.85699  0.36491  1.0000
  C   C179      1.0  0.36856  0.87837  0.35160  1.0000
  N   N113      1.0  0.34224  0.87422  0.34335  1.0000
  C   C180      1.0  0.33178  0.84980  0.34739  1.0000
  N   N114      1.0  0.34835  0.82975  0.36096  1.0000
  C   C181      1.0  0.82931  0.37316  0.31915  1.0000
  N   N115      1.0  0.85409  0.38314  0.32571  1.0000
  C   C182      1.0  0.87556  0.36722  0.33602  1.0000
  N   N116      1.0  0.87154  0.34085  0.34170  1.0000
  C   C183      1.0  0.84710  0.33043  0.33835  1.0000
  N   N117      1.0  0.82697  0.34704  0.32773  1.0000
  C   C184      1.0  0.18178  0.63651  0.32100  1.0000
  N   N118      1.0  0.15704  0.62642  0.32694  1.0000
  C   C185      1.0  0.13551  0.64222  0.33785  1.0000
  N   N119      1.0  0.13946  0.66860  0.34448  1.0000
  C   C186      1.0  0.16386  0.67914  0.34149  1.0000
  N   N120      1.0  0.18404  0.66261  0.33043  1.0000
  C   C187      1.0  0.37338  0.18098  0.31990  1.0000
  N   N121      1.0  0.38334  0.15619  0.32620  1.0000
  C   C188      1.0  0.36741  0.13472  0.33635  1.0000
  N   N122      1.0  0.34104  0.13876  0.34209  1.0000
  C   C189      1.0  0.33064  0.16321  0.33888  1.0000
  N   N123      1.0  0.34727  0.18333  0.32844  1.0000
  C   C190      1.0  0.63670  0.82851  0.32057  1.0000
  N   N124      1.0  0.62659  0.85324  0.32656  1.0000
  C   C191      1.0  0.64238  0.87477  0.33757  1.0000
  N   N125      1.0  0.66876  0.87083  0.34415  1.0000
  C   C192      1.0  0.67932  0.84644  0.34101  1.0000
  N   N126      1.0  0.66280  0.82625  0.32990  1.0000
  C   C193      1.0  0.15166  0.11597  0.36455  1.0000
  C   C194      1.0  0.12486  0.12039  0.34297  1.0000
  C   C195      1.0  0.16131  0.16062  0.33349  1.0000
  N   N127      1.0  0.16848  0.13628  0.35884  1.0000
  C   C196      1.0  0.16326  0.09125  0.39788  1.0000
  H   H87       1.0  0.15318  0.08488  0.45879  1.0000
  H   H88       1.0  0.18394  0.09352  0.41449  1.0000
  H   H89       1.0  0.16178  0.07616  0.34630  1.0000
  C   C197      1.0  0.85882  0.89414  0.36526  1.0000
  C   C198      1.0  0.88559  0.88961  0.34347  1.0000
  C   C199      1.0  0.84893  0.84958  0.33375  1.0000
  N   N128      1.0  0.84188  0.87392  0.35938  1.0000
  C   C200      1.0  0.84733  0.91889  0.39875  1.0000
  H   H90       1.0  0.85747  0.92521  0.45959  1.0000
  H   H91       1.0  0.82666  0.91671  0.41551  1.0000
  H   H92       1.0  0.84884  0.93399  0.34719  1.0000
  C   C201      1.0  0.89439  0.15129  0.36492  1.0000
  C   C202      1.0  0.88994  0.12449  0.34337  1.0000
  C   C203      1.0  0.84983  0.16102  0.33289  1.0000
  N   N129      1.0  0.87413  0.16815  0.35872  1.0000
  C   C204      1.0  0.91906  0.16287  0.39870  1.0000
  H   H93       1.0  0.92534  0.15277  0.45969  1.0000
  H   H94       1.0  0.91679  0.18354  0.41533  1.0000
  H   H95       1.0  0.93422  0.16139  0.34737  1.0000
  C   C205      1.0  0.11623  0.85849  0.36531  1.0000
  C   C206      1.0  0.12072  0.88528  0.34374  1.0000
  C   C207      1.0  0.16087  0.84872  0.33455  1.0000
  N   N130      1.0  0.13650  0.84161  0.35975  1.0000
  C   C208      1.0  0.09147  0.84694  0.39848  1.0000
  H   H96       1.0  0.08508  0.85705  0.45930  1.0000
  H   H97       1.0  0.09368  0.82627  0.41516  1.0000
  H   H98       1.0  0.07642  0.84845  0.34676  1.0000
  C   C209      1.0  0.08363  0.01627  0.44457  1.0000
  N   N131      1.0  0.08314  0.99001  0.44394  1.0000
  H   H99       1.0  0.07201  0.02559  0.49050  1.0000
  C   C210      1.0  0.92710  0.99355  0.44484  1.0000
  N   N132      1.0  0.92761  0.01981  0.44432  1.0000
  H   H100      1.0  0.93874  0.98421  0.49065  1.0000
  C   C211      1.0  0.99401  0.08344  0.44534  1.0000
  N   N133      1.0  0.02027  0.08290  0.44442  1.0000
  H   H101      1.0  0.98473  0.07176  0.49122  1.0000
  C   C212      1.0  0.01663  0.92653  0.44460  1.0000
  N   N134      1.0  0.99037  0.92700  0.44400  1.0000
  H   H102      1.0  0.02595  0.93814  0.49056  1.0000
  C   C213      1.0  0.19913  0.27174  0.35864  1.0000
  N   N135      1.0  0.19127  0.29688  0.36354  1.0000
  H   H103      1.0  0.21774  0.26758  0.37904  1.0000
  C   C214      1.0  0.81119  0.73849  0.35732  1.0000
  N   N136      1.0  0.81914  0.71337  0.36195  1.0000
  H   H104      1.0  0.79260  0.74259  0.37805  1.0000
  C   C215      1.0  0.73878  0.19885  0.35643  1.0000
  N   N137      1.0  0.71365  0.19095  0.36118  1.0000
  H   H105      1.0  0.74291  0.21744  0.37707  1.0000
  C   C216      1.0  0.27200  0.81095  0.35926  1.0000
  N   N138      1.0  0.29713  0.81886  0.36408  1.0000
  H   H106      1.0  0.26788  0.79234  0.37972  1.0000
  C   C217      1.0  0.85172  0.25933  0.37405  1.0000
  C   C218      1.0  0.82616  0.25069  0.34791  1.0000
  C   C219      1.0  0.84070  0.30368  0.34219  1.0000
  N   N139      1.0  0.85781  0.28522  0.36972  1.0000
  C   C220      1.0  0.87290  0.24237  0.40902  1.0000
  H   H107      1.0  0.86572  0.23072  0.46534  1.0000
  H   H108      1.0  0.88952  0.25378  0.43322  1.0000
  H   H109      1.0  0.88001  0.22952  0.35585  1.0000
  C   C221      1.0  0.15898  0.75034  0.37610  1.0000
  C   C222      1.0  0.18460  0.75901  0.35072  1.0000
  C   C223      1.0  0.17019  0.70593  0.34555  1.0000
  N   N140      1.0  0.15297  0.72442  0.37207  1.0000
  C   C224      1.0  0.13766  0.76730  0.40997  1.0000
  H   H110      1.0  0.14463  0.77903  0.46643  1.0000
  H   H111      1.0  0.12097  0.75589  0.43362  1.0000
  H   H112      1.0  0.13071  0.78009  0.35634  1.0000
  C   C225      1.0  0.25954  0.15870  0.37505  1.0000
  C   C226      1.0  0.25093  0.18429  0.34924  1.0000
  C   C227      1.0  0.30389  0.16965  0.34288  1.0000
  N   N141      1.0  0.28541  0.15256  0.37045  1.0000
  C   C228      1.0  0.24257  0.13753  0.41000  1.0000
  H   H113      1.0  0.23094  0.14470  0.46640  1.0000
  H   H114      1.0  0.25396  0.12088  0.43406  1.0000
  H   H115      1.0  0.22969  0.13045  0.35684  1.0000
  C   C229      1.0  0.75049  0.85140  0.37560  1.0000
  C   C230      1.0  0.75920  0.82583  0.34985  1.0000
  C   C231      1.0  0.70610  0.84014  0.34502  1.0000
  N   N142      1.0  0.72456  0.85738  0.37168  1.0000
  C   C232      1.0  0.76744  0.87272  0.40960  1.0000
  H   H116      1.0  0.77919  0.86572  0.46595  1.0000
  H   H117      1.0  0.75601  0.88937  0.43345  1.0000
  H   H118      1.0  0.78020  0.87972  0.35598  1.0000
  C   C233      1.0  0.41268  0.07896  0.35628  1.0000
  N   N143      1.0  0.40288  0.10363  0.35393  1.0000
  H   H119      1.0  0.43209  0.07746  0.36963  1.0000
  C   C234      1.0  0.59670  0.93056  0.34770  1.0000
  N   N144      1.0  0.60648  0.90587  0.34647  1.0000
  H   H120      1.0  0.57689  0.93210  0.35352  1.0000
  C   C235      1.0  0.93129  0.41252  0.35605  1.0000
  N   N145      1.0  0.90663  0.40270  0.35367  1.0000
  H   H121      1.0  0.93278  0.43193  0.36939  1.0000
  C   C236      1.0  0.07969  0.59654  0.34779  1.0000
  N   N146      1.0  0.10439  0.60633  0.34661  1.0000
  H   H122      1.0  0.07816  0.57673  0.35354  1.0000
  C   C237      1.0  0.64027  0.05866  0.34938  1.0000
  C   C238      1.0  0.61312  0.05279  0.34052  1.0000
  C   C239      1.0  0.63258  0.10524  0.34490  1.0000
  N   N147      1.0  0.64858  0.08408  0.35080  1.0000
  C   C240      1.0  0.66081  0.03866  0.35917  1.0000
  H   H123      1.0  0.65694  0.02680  0.41870  1.0000
  H   H124      1.0  0.68015  0.04741  0.36705  1.0000
  H   H125      1.0  0.66122  0.02637  0.29932  1.0000
  C   C241      1.0  0.37069  0.95103  0.35104  1.0000
  C   C242      1.0  0.39789  0.95694  0.34416  1.0000
  C   C243      1.0  0.37847  0.90445  0.34857  1.0000
  N   N148      1.0  0.36242  0.92561  0.35255  1.0000
  C   C244      1.0  0.34998  0.97098  0.35801  1.0000
  H   H126      1.0  0.35336  0.98314  0.41716  1.0000
  H   H127      1.0  0.33064  0.96216  0.36470  1.0000
  H   H128      1.0  0.34995  0.98298  0.29742  1.0000
  C   C245      1.0  0.05920  0.37053  0.35088  1.0000
  C   C246      1.0  0.05330  0.39773  0.34407  1.0000
  C   C247      1.0  0.10577  0.37830  0.34845  1.0000
  N   N149      1.0  0.08462  0.36225  0.35237  1.0000
  C   C248      1.0  0.03925  0.34982  0.35775  1.0000
  H   H129      1.0  0.02708  0.35318  0.41690  1.0000
  H   H130      1.0  0.04806  0.33047  0.36439  1.0000
  H   H131      1.0  0.02726  0.34980  0.29715  1.0000
  C   C249      1.0  0.95156  0.64010  0.34948  1.0000
  C   C250      1.0  0.95745  0.61296  0.34062  1.0000
  C   C251      1.0  0.90498  0.63240  0.34505  1.0000
  N   N150      1.0  0.92614  0.64841  0.35093  1.0000
  C   C252      1.0  0.97157  0.66065  0.35925  1.0000
  H   H132      1.0  0.98343  0.65679  0.41877  1.0000
  H   H133      1.0  0.96280  0.67999  0.36709  1.0000
  H   H134      1.0  0.98386  0.66105  0.29939  1.0000
  C   C253      1.0  0.49198  0.98330  0.34880  1.0000
  N   N151      1.0  0.51849  0.98237  0.34886  1.0000
  H   H135      1.0  0.48233  0.96628  0.36235  1.0000
  C   C254      1.0  0.02696  0.49182  0.34873  1.0000
  N   N152      1.0  0.02788  0.51833  0.34884  1.0000
  H   H136      1.0  0.04397  0.48217  0.36229  1.0000
  C   C255      1.0  0.22346  0.37635  0.43361  1.0000
  C   C256      1.0  0.20215  0.38765  0.38494  1.0000
  C   C257      1.0  0.25362  0.40671  0.36945  1.0000
  N   N153      1.0  0.24799  0.38595  0.42239  1.0000
  C   C258      1.0  0.22157  0.35450  0.49883  1.0000
  H   H137      1.0  0.20150  0.35052  0.51913  1.0000
  H   H138      1.0  0.23244  0.35929  0.55990  1.0000
  H   H139      1.0  0.22994  0.33688  0.46922  1.0000
  C   C259      1.0  0.78738  0.63362  0.43135  1.0000
  C   C260      1.0  0.80868  0.62251  0.38214  1.0000
  C   C261      1.0  0.75735  0.60306  0.36751  1.0000
  N   N154      1.0  0.76291  0.62384  0.42046  1.0000
  C   C262      1.0  0.78921  0.65546  0.49663  1.0000
  H   H140      1.0  0.80927  0.65952  0.51681  1.0000
  H   H141      1.0  0.77839  0.65060  0.55776  1.0000
  H   H142      1.0  0.78074  0.67305  0.46712  1.0000
  C   C263      1.0  0.63397  0.22279  0.43114  1.0000
  C   C264      1.0  0.62280  0.20154  0.38186  1.0000
  C   C265      1.0  0.60358  0.25295  0.36718  1.0000
  N   N155      1.0  0.62431  0.24731  0.42025  1.0000
  C   C266      1.0  0.65578  0.22087  0.49655  1.0000
  H   H143      1.0  0.65979  0.20078  0.51655  1.0000
  H   H144      1.0  0.65090  0.23164  0.55776  1.0000
  H   H145      1.0  0.67340  0.22933  0.46727  1.0000
  C   C267      1.0  0.37667  0.78673  0.43345  1.0000
  C   C268      1.0  0.38792  0.80806  0.38474  1.0000
  C   C269      1.0  0.40721  0.75668  0.36964  1.0000
  N   N156      1.0  0.38638  0.76224  0.42237  1.0000
  C   C270      1.0  0.35477  0.78856  0.49846  1.0000
  H   H146      1.0  0.35076  0.80860  0.51896  1.0000
  H   H147      1.0  0.35951  0.77762  0.55947  1.0000
  H   H148      1.0  0.33717  0.78021  0.46857  1.0000
  C   C271      1.0  0.79946  0.40939  0.35944  1.0000
  N   N157      1.0  0.77449  0.41837  0.36749  1.0000
  H   H149      1.0  0.81378  0.41839  0.39600  1.0000
  C   C272      1.0  0.21155  0.60007  0.35984  1.0000
  N   N158      1.0  0.23649  0.59100  0.36763  1.0000
  H   H150      1.0  0.19715  0.59089  0.39548  1.0000
  C   C273      1.0  0.40981  0.21071  0.35947  1.0000
  N   N159      1.0  0.41895  0.23563  0.36724  1.0000
  H   H151      1.0  0.41890  0.19631  0.39538  1.0000
  C   C274      1.0  0.60049  0.79860  0.36007  1.0000
  N   N160      1.0  0.59157  0.77361  0.36809  1.0000
  H   H152      1.0  0.59140  0.81291  0.39639  1.0000
  C   C275      1.0  0.33450  0.49045  0.36515  1.0000
  N   N161      1.0  0.33498  0.51712  0.36776  1.0000
  H   H153      1.0  0.34852  0.48053  0.40024  1.0000
  C   C276      1.0  0.67656  0.51910  0.36392  1.0000
  N   N162      1.0  0.67609  0.49243  0.36660  1.0000
  H   H154      1.0  0.66257  0.52901  0.39917  1.0000
  C   C277      1.0  0.51969  0.33374  0.36390  1.0000
  N   N163      1.0  0.49302  0.33416  0.36664  1.0000
  H   H155      1.0  0.52960  0.34776  0.39897  1.0000
  C   C278      1.0  0.49105  0.67578  0.36532  1.0000
  N   N164      1.0  0.51772  0.67523  0.36776  1.0000
  H   H156      1.0  0.48112  0.66175  0.40031  1.0000
  C   C279      1.0  0.34223  0.35843  0.37819  1.0000
  C   C280      1.0  0.34629  0.38559  0.35974  1.0000
  C   C281      1.0  0.38765  0.34824  0.35270  1.0000
  N   N165      1.0  0.36272  0.34154  0.37308  1.0000
  C   C282      1.0  0.31710  0.34603  0.40350  1.0000
  H   H157      1.0  0.30921  0.35535  0.46371  1.0000
  H   H158      1.0  0.31941  0.32524  0.41838  1.0000
  H   H159      1.0  0.30315  0.34771  0.34828  1.0000
  C   C283      1.0  0.66864  0.65102  0.37795  1.0000
  C   C284      1.0  0.66464  0.62387  0.35920  1.0000
  C   C285      1.0  0.62318  0.66111  0.35290  1.0000
  N   N166      1.0  0.64811  0.66785  0.37316  1.0000
  C   C286      1.0  0.69376  0.66345  0.40322  1.0000
  H   H160      1.0  0.70172  0.65408  0.46323  1.0000
  H   H161      1.0  0.69140  0.68421  0.41843  1.0000
  H   H162      1.0  0.70767  0.66188  0.34786  1.0000
  C   C287      1.0  0.65173  0.34159  0.37717  1.0000
  C   C288      1.0  0.62458  0.34564  0.35851  1.0000
  C   C289      1.0  0.66192  0.38702  0.35199  1.0000
  N   N167      1.0  0.66861  0.36207  0.37230  1.0000
  C   C290      1.0  0.66412  0.31645  0.40251  1.0000
  H   H163      1.0  0.65474  0.30853  0.46257  1.0000
  H   H164      1.0  0.68489  0.31877  0.41764  1.0000
  H   H165      1.0  0.66250  0.30252  0.34720  1.0000
  C   C291      1.0  0.35913  0.66798  0.37901  1.0000
  C   C292      1.0  0.38629  0.66398  0.36046  1.0000
  C   C293      1.0  0.34904  0.62254  0.35366  1.0000
  N   N168      1.0  0.34229  0.64746  0.37402  1.0000
  C   C294      1.0  0.34669  0.69310  0.40430  1.0000
  H   H166      1.0  0.35603  0.70102  0.46444  1.0000
  H   H167      1.0  0.32592  0.69075  0.41930  1.0000
  H   H168      1.0  0.34832  0.70703  0.34902  1.0000
