data_image0
_chemical_formula_structural       C3NC3NC5NC5NC36H26N5C2HCHNC2HCHC16H16CNCHCHCNCHCH
_chemical_formula_sum              "C80 N12 H50"
_cell_length_a       34.1183
_cell_length_b       34.1164
_cell_length_c       14.8985
_cell_angle_alpha    90
_cell_angle_beta     90
_cell_angle_gamma    90.0671

_space_group_name_H-M_alt    "P 1"
_space_group_IT_number       1

loop_
  _space_group_symop_operation_xyz
  'x, y, z'

loop_
  _atom_site_type_symbol
  _atom_site_label
  _atom_site_symmetry_multiplicity
  _atom_site_fract_x
  _atom_site_fract_y
  _atom_site_fract_z
  _atom_site_occupancy
  C   C1        1.0  0.92890  0.90023  0.31542  1.0000
  C   C2        1.0  0.89976  0.92829  0.31561  1.0000
  C   C3        1.0  0.91750  0.96523  0.31517  1.0000
  N   N1        1.0  0.95661  0.95815  0.31490  1.0000
  C   C4        1.0  0.96516  0.91933  0.31534  1.0000
  C   C5        1.0  0.00226  0.90025  0.31555  1.0000
  C   C6        1.0  0.03905  0.91979  0.31550  1.0000
  N   N2        1.0  0.04591  0.95882  0.31545  1.0000
  C   C7        1.0  0.08465  0.96714  0.31559  1.0000
  C   C8        1.0  0.10394  0.93104  0.31562  1.0000
  C   C9        1.0  0.07585  0.90189  0.31582  1.0000
  C   C10       1.0  0.10279  0.00463  0.31555  1.0000
  C   C11       1.0  0.08231  0.04096  0.31529  1.0000
  N   N3        1.0  0.04320  0.04802  0.31479  1.0000
  C   C12       1.0  0.03467  0.08684  0.31543  1.0000
  C   C13       1.0  0.07093  0.10595  0.31590  1.0000
  C   C14       1.0  0.10005  0.07791  0.31603  1.0000
  C   C15       1.0  0.99759  0.10594  0.31558  1.0000
  C   C16       1.0  0.96080  0.08643  0.31504  1.0000
  N   N4        1.0  0.95395  0.04740  0.31470  1.0000
  C   C17       1.0  0.91520  0.03909  0.31512  1.0000
  C   C18       1.0  0.89594  0.07520  0.31541  1.0000
  C   C19       1.0  0.92402  0.10436  0.31559  1.0000
  C   C20       1.0  0.89705  0.00159  0.31547  1.0000
  C   C21       1.0  0.85527  0.00056  0.31770  1.0000
  C   C22       1.0  0.77147  0.00142  0.32228  1.0000
  C   C23       1.0  0.79210  0.99800  0.24004  1.0000
  C   C24       1.0  0.83335  0.99769  0.23761  1.0000
  C   C25       1.0  0.72949  0.00254  0.32453  1.0000
  C   C26       1.0  0.70666  0.97715  0.27029  1.0000
  C   C27       1.0  0.66541  0.97812  0.27280  1.0000
  C   C28       1.0  0.64553  0.00480  0.32935  1.0000
  C   C29       1.0  0.99726  0.14773  0.31798  1.0000
  C   C30       1.0  0.99852  0.23151  0.32300  1.0000
  C   C31       1.0  0.99479  0.21098  0.24069  1.0000
  C   C32       1.0  0.99425  0.16973  0.23804  1.0000
  C   C33       1.0  0.99962  0.27348  0.32550  1.0000
  C   C34       1.0  0.00172  0.35742  0.33094  1.0000
  C   C35       1.0  0.97485  0.33751  0.27484  1.0000
  C   C36       1.0  0.97394  0.29627  0.27203  1.0000
  C   C37       1.0  0.14458  0.00582  0.31587  1.0000
  C   C38       1.0  0.16561  0.01017  0.23489  1.0000
  C   C39       1.0  0.20685  0.01140  0.23531  1.0000
  C   C40       1.0  0.22837  0.00822  0.31639  1.0000
  C   C41       1.0  0.27037  0.00900  0.31648  1.0000
  C   C42       1.0  0.35435  0.00963  0.31465  1.0000
  C   C43       1.0  0.33282  0.03562  0.26015  1.0000
  C   C44       1.0  0.29154  0.03553  0.26155  1.0000
  C   C45       1.0  0.00274  0.85844  0.31591  1.0000
  C   C46       1.0  0.00653  0.83733  0.23491  1.0000
  C   C47       1.0  0.00467  0.77463  0.31673  1.0000
  C   C48       1.0  0.00751  0.79608  0.23549  1.0000
  C   C49       1.0  0.00543  0.73262  0.31705  1.0000
  C   C50       1.0  0.03163  0.71144  0.26144  1.0000
  C   C51       1.0  0.03175  0.67016  0.26033  1.0000
  C   C52       1.0  0.00612  0.64862  0.31582  1.0000
  H   H1        1.0  0.05093  0.65589  0.21883  1.0000
  H   H2        1.0  0.05124  0.72591  0.22136  1.0000
  H   H3        1.0  0.00959  0.78182  0.17526  1.0000
  H   H4        1.0  0.00855  0.85185  0.17495  1.0000
  H   H5        1.0  0.92388  0.87068  0.31569  1.0000
  H   H6        1.0  0.87042  0.92218  0.31604  1.0000
  H   H7        1.0  0.97614  0.97842  0.31482  1.0000
  H   H8        1.0  0.02367  0.02775  0.31433  1.0000
  H   H9        1.0  0.08179  0.87253  0.31608  1.0000
  H   H10       1.0  0.13350  0.92623  0.31560  1.0000
  H   H11       1.0  0.15103  0.01230  0.17502  1.0000
  H   H12       1.0  0.22106  0.01380  0.17508  1.0000
  H   H13       1.0  0.12938  0.08405  0.31682  1.0000
  H   H14       1.0  0.07596  0.13549  0.31634  1.0000
  H   H15       1.0  0.86638  0.08004  0.31577  1.0000
  H   H16       1.0  0.91811  0.13372  0.31621  1.0000
  H   H17       1.0  0.99199  0.15585  0.17732  1.0000
  H   H18       1.0  0.99335  0.22591  0.18122  1.0000
  H   H19       1.0  0.95348  0.28301  0.23197  1.0000
  H   H20       1.0  0.95521  0.35289  0.23682  1.0000
  H   H21       1.0  0.84730  0.99582  0.17691  1.0000
  H   H22       1.0  0.77724  0.99681  0.18044  1.0000
  H   H23       1.0  0.65002  0.95870  0.23416  1.0000
  H   H24       1.0  0.71989  0.95687  0.22978  1.0000
  H   H25       1.0  0.27708  0.05538  0.22220  1.0000
  H   H26       1.0  0.34710  0.05504  0.21915  1.0000
  N   N5        1.0  0.60667  0.00620  0.33729  1.0000
  N   N6        1.0  0.00637  0.60968  0.30906  1.0000
  N   N7        1.0  0.39328  0.00989  0.30767  1.0000
  N   N8        1.0  0.00311  0.39629  0.33901  1.0000
  N   N9        1.0  0.00255  0.53100  0.25953  1.0000
  C   C53       1.0  0.00185  0.49238  0.23759  1.0000
  C   C54       1.0  0.99856  0.46332  0.30491  1.0000
  H   H27       1.0  0.00337  0.48494  0.17118  1.0000
  C   C55       1.0  0.99589  0.42383  0.28234  1.0000
  H   H28       1.0  0.98856  0.41673  0.21976  1.0000
  N   N10       1.0  0.47194  0.00601  0.25789  1.0000
  C   C56       1.0  0.51056  0.00530  0.23591  1.0000
  C   C57       1.0  0.53963  0.00182  0.30316  1.0000
  H   H29       1.0  0.51800  0.00693  0.16951  1.0000
  C   C58       1.0  0.57910  0.99915  0.28054  1.0000
  H   H30       1.0  0.58618  0.99194  0.21787  1.0000
  C   C59       1.0  0.83510  0.00360  0.40013  1.0000
  C   C60       1.0  0.79386  0.00402  0.40222  1.0000
  C   C61       1.0  0.66801  0.02981  0.38439  1.0000
  C   C62       1.0  0.70925  0.02891  0.38155  1.0000
  C   C63       1.0  0.00070  0.16780  0.40046  1.0000
  C   C64       1.0  0.00135  0.20903  0.40277  1.0000
  C   C65       1.0  0.02621  0.29373  0.38204  1.0000
  C   C66       1.0  0.02704  0.33497  0.38519  1.0000
  C   C67       1.0  0.20687  0.00386  0.39722  1.0000
  C   C68       1.0  0.16562  0.00275  0.39714  1.0000
  C   C69       1.0  0.29226  0.98270  0.37034  1.0000
  C   C70       1.0  0.33353  0.98290  0.36934  1.0000
  C   C71       1.0  0.99992  0.83747  0.39733  1.0000
  C   C72       1.0  0.00079  0.79622  0.39757  1.0000
  C   C73       1.0  0.97971  0.66944  0.37121  1.0000
  C   C74       1.0  0.97950  0.71071  0.37195  1.0000
  H   H31       1.0  0.95981  0.65472  0.40995  1.0000
  H   H32       1.0  0.95924  0.72462  0.41127  1.0000
  H   H33       1.0  0.99932  0.78207  0.45804  1.0000
  H   H34       1.0  0.99739  0.85211  0.45704  1.0000
  H   H35       1.0  0.15104  0.99974  0.45682  1.0000
  H   H36       1.0  0.22107  0.00211  0.45757  1.0000
  H   H37       1.0  0.00290  0.15251  0.45939  1.0000
  H   H38       1.0  0.00340  0.22252  0.46394  1.0000
  H   H39       1.0  0.04661  0.34857  0.42703  1.0000
  H   H40       1.0  0.04571  0.27861  0.42105  1.0000
  H   H41       1.0  0.72439  0.04822  0.42109  1.0000
  H   H42       1.0  0.65445  0.04921  0.42661  1.0000
  H   H43       1.0  0.78031  0.00587  0.46334  1.0000
  H   H44       1.0  0.85031  0.00577  0.45916  1.0000
  H   H45       1.0  0.27834  0.96223  0.40915  1.0000
  H   H46       1.0  0.34824  0.96275  0.40733  1.0000
  C   C75       1.0  0.99635  0.47716  0.39431  1.0000
  N   N11       1.0  0.99704  0.51620  0.41192  1.0000
  C   C76       1.0  0.00030  0.54357  0.34601  1.0000
  H   H47       1.0  0.99335  0.45822  0.44703  1.0000
  C   C77       1.0  0.99946  0.58289  0.36777  1.0000
  H   H48       1.0  0.99328  0.59045  0.43070  1.0000
  C   C78       1.0  0.52579  0.99946  0.39255  1.0000
  N   N12       1.0  0.48676  0.00016  0.41020  1.0000
  C   C79       1.0  0.45938  0.00360  0.34437  1.0000
  H   H49       1.0  0.54472  0.99629  0.44522  1.0000
  C   C80       1.0  0.42007  0.00273  0.36618  1.0000
  H   H50       1.0  0.41252  0.99633  0.42901  1.0000
