data_image0
_chemical_formula_structural       CNC2NC4NC18H14C2NC16H12C3NC2NC5NC4NC18H14CNC16H12C11H11CNCNC4NC16H13CNC2H2NO2CNC2H2NO2CNC2H2NO2CNC2H2NO2CNC2H2NO2CNC2H2NO2CNC2H2NO2CNC2H2NO2CNC2H2NO2CNC2H2NO2CNC2H2NO2CNC2H2NO2C7NC12H12C2NC3NC3NC18H14C12H12C3NC3NC3NC18H14C3NC3NC2NC5NC20H15C8NC14H13C4HC3NHNO2C4HC3NHNO2C4HC3NHNO2C4HC3NHNO2C4HC3NHNO2C4HC3NHNO2C4HC3NHNO2C4HC3NHNO2C4HC3NHNO2C4HC3NHNO2C4HC3NHNO2C4HC3NHNO2
_chemical_formula_sum              "C384 N72 H204 O48"
_cell_length_a       68.5626
_cell_length_b       68.5625
_cell_length_c       14.98
_cell_angle_alpha    90.0014
_cell_angle_beta     89.9712
_cell_angle_gamma    120

_space_group_name_H-M_alt    "P 1"
_space_group_IT_number       1

loop_
  _space_group_symop_operation_xyz
  'x, y, z'

loop_
  _atom_site_type_symbol
  _atom_site_label
  _atom_site_symmetry_multiplicity
  _atom_site_fract_x
  _atom_site_fract_y
  _atom_site_fract_z
  _atom_site_occupancy
  C   C1        1.0  0.27529  0.51294  0.31847  1.0000
  N   N1        1.0  0.26791  0.47812  0.33492  1.0000
  C   C2        1.0  0.29065  0.49071  0.32869  1.0000
  C   C3        1.0  0.30710  0.48391  0.33427  1.0000
  N   N2        1.0  0.28172  0.44236  0.33475  1.0000
  C   C4        1.0  0.28330  0.42353  0.34056  1.0000
  C   C5        1.0  0.30622  0.43084  0.35022  1.0000
  C   C6        1.0  0.31784  0.45406  0.34894  1.0000
  C   C7        1.0  0.26557  0.40077  0.33596  1.0000
  N   N3        1.0  0.23220  0.40667  0.33734  1.0000
  C   C8        1.0  0.20943  0.39411  0.33218  1.0000
  C   C9        1.0  0.22478  0.37187  0.32031  1.0000
  C   C10       1.0  0.21686  0.46141  0.34229  1.0000
  C   C11       1.0  0.23460  0.48412  0.33751  1.0000
  C   C12       1.0  0.22881  0.50142  0.34093  1.0000
  C   C13       1.0  0.21875  0.50575  0.26706  1.0000
  C   C14       1.0  0.21409  0.52354  0.26957  1.0000
  C   C15       1.0  0.21958  0.53777  0.34526  1.0000
  C   C16       1.0  0.15859  0.37514  0.25590  1.0000
  C   C17       1.0  0.13521  0.36013  0.25443  1.0000
  C   C18       1.0  0.27175  0.38373  0.33448  1.0000
  C   C19       1.0  0.28809  0.35258  0.33745  1.0000
  C   C20       1.0  0.29102  0.36612  0.26141  1.0000
  C   C21       1.0  0.28285  0.38129  0.25953  1.0000
  C   C22       1.0  0.33020  0.50109  0.33516  1.0000
  C   C23       1.0  0.34148  0.51139  0.25499  1.0000
  C   C24       1.0  0.36383  0.52939  0.25680  1.0000
  C   C25       1.0  0.37561  0.53753  0.33846  1.0000
  H   H1        1.0  0.37109  0.53705  0.19767  1.0000
  H   H2        1.0  0.33328  0.50632  0.19505  1.0000
  H   H3        1.0  0.27400  0.52709  0.31208  1.0000
  H   H4        1.0  0.25999  0.46225  0.34736  1.0000
  H   H5        1.0  0.24015  0.42253  0.35027  1.0000
  H   H6        1.0  0.33494  0.46387  0.35421  1.0000
  H   H7        1.0  0.31358  0.42113  0.35688  1.0000
  H   H8        1.0  0.28590  0.39123  0.20437  1.0000
  H   H9        1.0  0.30006  0.36587  0.20751  1.0000
  H   H10       1.0  0.22608  0.35773  0.31341  1.0000
  H   H11       1.0  0.16725  0.37998  0.19682  1.0000
  H   H12       1.0  0.12764  0.35417  0.19390  1.0000
  H   H13       1.0  0.20661  0.52599  0.21498  1.0000
  H   H14       1.0  0.21494  0.49610  0.21063  1.0000
  C   C26       1.0  0.54465  0.76271  0.31749  1.0000
  C   C27       1.0  0.56685  0.80029  0.32838  1.0000
  N   N4        1.0  0.61516  0.83970  0.33521  1.0000
  C   C28       1.0  0.63400  0.86011  0.34112  1.0000
  C   C29       1.0  0.62668  0.87571  0.35107  1.0000
  C   C30       1.0  0.60346  0.86410  0.34996  1.0000
  C   C31       1.0  0.65675  0.86514  0.33632  1.0000
  C   C32       1.0  0.66343  0.81568  0.33262  1.0000
  C   C33       1.0  0.68567  0.85326  0.32072  1.0000
  C   C34       1.0  0.59613  0.75581  0.34275  1.0000
  C   C35       1.0  0.55183  0.71334  0.26755  1.0000
  C   C36       1.0  0.53403  0.69089  0.27008  1.0000
  C   C37       1.0  0.68240  0.78379  0.25631  1.0000
  C   C38       1.0  0.69742  0.77542  0.25483  1.0000
  C   C39       1.0  0.67379  0.88837  0.33481  1.0000
  C   C40       1.0  0.69139  0.92523  0.26166  1.0000
  C   C41       1.0  0.67622  0.90190  0.25986  1.0000
  C   C42       1.0  0.54618  0.83046  0.25542  1.0000
  C   C43       1.0  0.52819  0.83481  0.25720  1.0000
  H   H15       1.0  0.52058  0.83447  0.19803  1.0000
  H   H16       1.0  0.55131  0.82739  0.19547  1.0000
  H   H17       1.0  0.53049  0.74727  0.31143  1.0000
  H   H18       1.0  0.59365  0.87139  0.35533  1.0000
  H   H19       1.0  0.63639  0.89278  0.35780  1.0000
  H   H20       1.0  0.66626  0.89500  0.20478  1.0000
  H   H21       1.0  0.69161  0.93452  0.20785  1.0000
  H   H22       1.0  0.69981  0.86870  0.31398  1.0000
  H   H23       1.0  0.67757  0.78760  0.19724  1.0000
  H   H24       1.0  0.70338  0.77381  0.19430  1.0000
  H   H25       1.0  0.53162  0.68094  0.21558  1.0000
  H   H26       1.0  0.56152  0.71915  0.21117  1.0000
  C   C44       1.0  0.27472  0.76217  0.31747  1.0000
  C   C45       1.0  0.29484  0.78227  0.31767  1.0000
  C   C46       1.0  0.29016  0.79974  0.32984  1.0000
  N   N5        1.0  0.26740  0.78964  0.33435  1.0000
  C   C47       1.0  0.25725  0.76690  0.32808  1.0000
  C   C48       1.0  0.23401  0.75045  0.33395  1.0000
  N   N6        1.0  0.21783  0.77582  0.33443  1.0000
  C   C49       1.0  0.19742  0.77425  0.34020  1.0000
  C   C50       1.0  0.18181  0.75132  0.34980  1.0000
  C   C51       1.0  0.19341  0.73970  0.34865  1.0000
  C   C52       1.0  0.19240  0.79198  0.33549  1.0000
  C   C53       1.0  0.20891  0.81525  0.33102  1.0000
  N   N7        1.0  0.23166  0.82536  0.33717  1.0000
  C   C54       1.0  0.24187  0.84812  0.33202  1.0000
  C   C55       1.0  0.22443  0.85291  0.32168  1.0000
  C   C56       1.0  0.20428  0.83279  0.32044  1.0000
  C   C57       1.0  0.26514  0.86452  0.33784  1.0000
  N   N8        1.0  0.28132  0.83913  0.33674  1.0000
  C   C58       1.0  0.30174  0.84068  0.34188  1.0000
  C   C59       1.0  0.30670  0.82294  0.33722  1.0000
  C   C60       1.0  0.32979  0.82872  0.34077  1.0000
  C   C61       1.0  0.34423  0.83882  0.26700  1.0000
  C   C62       1.0  0.36668  0.84348  0.26965  1.0000
  C   C63       1.0  0.37536  0.83794  0.34536  1.0000
  C   C64       1.0  0.27137  0.88772  0.33717  1.0000
  C   C65       1.0  0.27377  0.89899  0.25554  1.0000
  C   C66       1.0  0.28212  0.92237  0.25412  1.0000
  C   C67       1.0  0.28860  0.93525  0.33381  1.0000
  C   C68       1.0  0.16917  0.78579  0.33401  1.0000
  C   C69       1.0  0.12169  0.76943  0.33698  1.0000
  C   C70       1.0  0.13231  0.76655  0.26089  1.0000
  C   C71       1.0  0.15565  0.77471  0.25904  1.0000
  C   C72       1.0  0.22809  0.72735  0.33482  1.0000
  C   C73       1.0  0.22712  0.71608  0.25464  1.0000
  C   C74       1.0  0.22280  0.69374  0.25646  1.0000
  C   C75       1.0  0.21912  0.68193  0.33810  1.0000
  H   H27       1.0  0.22317  0.68648  0.19730  1.0000
  H   H28       1.0  0.23025  0.72429  0.19471  1.0000
  H   H29       1.0  0.31028  0.78356  0.31157  1.0000
  H   H30       1.0  0.25947  0.79755  0.34755  1.0000
  H   H31       1.0  0.23959  0.81737  0.34888  1.0000
  H   H32       1.0  0.18612  0.72260  0.35384  1.0000
  H   H33       1.0  0.16473  0.74396  0.35635  1.0000
  H   H34       1.0  0.16256  0.77169  0.20388  1.0000
  H   H35       1.0  0.12304  0.75750  0.20704  1.0000
  H   H36       1.0  0.18884  0.83149  0.31368  1.0000
  H   H37       1.0  0.26997  0.89035  0.19645  1.0000
  H   H38       1.0  0.28375  0.92995  0.19360  1.0000
  H   H39       1.0  0.37665  0.85100  0.21515  1.0000
  H   H40       1.0  0.33843  0.84267  0.21056  1.0000
  C   C76       1.0  0.78584  0.54789  0.32932  1.0000
  N   N9        1.0  0.79476  0.59624  0.33545  1.0000
  C   C77       1.0  0.79319  0.61508  0.34114  1.0000
  C   C78       1.0  0.77026  0.60777  0.35066  1.0000
  C   C79       1.0  0.75864  0.58454  0.34947  1.0000
  C   C80       1.0  0.81092  0.63783  0.33652  1.0000
  C   C81       1.0  0.86706  0.64450  0.33293  1.0000
  C   C82       1.0  0.85173  0.66676  0.32152  1.0000
  C   C83       1.0  0.85963  0.57718  0.34263  1.0000
  C   C84       1.0  0.85773  0.53283  0.26759  1.0000
  C   C85       1.0  0.86239  0.51504  0.27012  1.0000
  C   C86       1.0  0.91789  0.66347  0.25620  1.0000
  C   C87       1.0  0.94127  0.67847  0.25458  1.0000
  C   C88       1.0  0.80474  0.65487  0.33501  1.0000
  C   C89       1.0  0.78550  0.67248  0.26184  1.0000
  C   C90       1.0  0.79370  0.65735  0.25996  1.0000
  C   C91       1.0  0.73503  0.52722  0.25565  1.0000
  C   C92       1.0  0.71269  0.50922  0.25744  1.0000
  H   H41       1.0  0.70545  0.50156  0.19830  1.0000
  H   H42       1.0  0.74325  0.53230  0.19572  1.0000
  H   H43       1.0  0.80247  0.51149  0.31303  1.0000
  H   H44       1.0  0.74153  0.57474  0.35459  1.0000
  H   H45       1.0  0.76289  0.61748  0.35715  1.0000
  H   H46       1.0  0.79065  0.64739  0.20486  1.0000
  H   H47       1.0  0.77648  0.67273  0.20793  1.0000
  H   H48       1.0  0.85044  0.68090  0.31479  1.0000
  H   H49       1.0  0.90923  0.65862  0.19716  1.0000
  H   H50       1.0  0.94883  0.68443  0.19401  1.0000
  H   H51       1.0  0.86987  0.51259  0.21552  1.0000
  H   H52       1.0  0.86154  0.54248  0.21113  1.0000
  C   C93       1.0  0.44248  0.17847  0.34144  1.0000
  C   C94       1.0  0.44978  0.16286  0.35111  1.0000
  C   C95       1.0  0.47301  0.17446  0.34990  1.0000
  C   C96       1.0  0.52470  0.32525  0.26807  1.0000
  C   C97       1.0  0.54250  0.34770  0.27058  1.0000
  C   C98       1.0  0.39411  0.25480  0.25652  1.0000
  C   C99       1.0  0.37910  0.26317  0.25494  1.0000
  C   C100      1.0  0.38510  0.11338  0.26187  1.0000
  C   C101      1.0  0.40027  0.13672  0.26014  1.0000
  C   C102      1.0  0.53034  0.20816  0.25598  1.0000
  C   C103      1.0  0.54833  0.20381  0.25776  1.0000
  H   H53       1.0  0.55599  0.20421  0.19861  1.0000
  H   H54       1.0  0.52526  0.21128  0.19606  1.0000
  H   H55       1.0  0.54604  0.29133  0.31316  1.0000
  H   H56       1.0  0.48282  0.16717  0.35519  1.0000
  H   H57       1.0  0.41023  0.14364  0.20503  1.0000
  H   H58       1.0  0.38487  0.10412  0.20793  1.0000
  H   H59       1.0  0.37669  0.16990  0.31408  1.0000
  H   H60       1.0  0.39896  0.25099  0.19748  1.0000
  H   H61       1.0  0.37315  0.26478  0.19438  1.0000
  H   H62       1.0  0.54495  0.35763  0.21598  1.0000
  H   H63       1.0  0.51506  0.31942  0.21162  1.0000
  C   C104      1.0  0.78166  0.25630  0.31747  1.0000
  N   N10       1.0  0.80910  0.24894  0.33454  1.0000
  C   C105      1.0  0.81924  0.27167  0.32826  1.0000
  N   N11       1.0  0.85865  0.26277  0.33502  1.0000
  C   C106      1.0  0.87906  0.26434  0.34092  1.0000
  C   C107      1.0  0.89466  0.28726  0.35085  1.0000
  C   C108      1.0  0.88305  0.29888  0.34973  1.0000
  C   C109      1.0  0.88409  0.24662  0.33613  1.0000
  N   N12       1.0  0.84482  0.21324  0.33764  1.0000
  C   C110      1.0  0.83462  0.19048  0.33245  1.0000
  C   C111      1.0  0.87221  0.20582  0.32052  1.0000
  C   C112      1.0  0.77475  0.19791  0.34272  1.0000
  C   C113      1.0  0.76979  0.21565  0.33786  1.0000
  C   C114      1.0  0.73227  0.19975  0.26773  1.0000
  C   C115      1.0  0.70982  0.19510  0.27037  1.0000
  C   C116      1.0  0.70114  0.20067  0.34601  1.0000
  C   C117      1.0  0.80273  0.13963  0.25614  1.0000
  C   C118      1.0  0.79436  0.11625  0.25465  1.0000
  C   C119      1.0  0.90732  0.25281  0.33463  1.0000
  C   C120      1.0  0.95480  0.26916  0.33751  1.0000
  C   C121      1.0  0.94419  0.27208  0.26148  1.0000
  C   C122      1.0  0.92085  0.26392  0.25967  1.0000
  C   C123      1.0  0.84838  0.31123  0.33547  1.0000
  C   C124      1.0  0.84940  0.32252  0.25530  1.0000
  C   C125      1.0  0.85375  0.34487  0.25711  1.0000
  H   H64       1.0  0.85340  0.35214  0.19795  1.0000
  H   H65       1.0  0.84633  0.31434  0.19534  1.0000
  H   H66       1.0  0.76621  0.25502  0.31148  1.0000
  H   H67       1.0  0.81701  0.24107  0.34883  1.0000
  H   H68       1.0  0.89034  0.31598  0.35510  1.0000
  H   H69       1.0  0.91173  0.29462  0.35757  1.0000
  H   H70       1.0  0.91395  0.26698  0.20459  1.0000
  H   H71       1.0  0.95348  0.28115  0.20766  1.0000
  H   H72       1.0  0.88765  0.20713  0.31378  1.0000
  H   H73       1.0  0.80655  0.14829  0.19707  1.0000
  H   H74       1.0  0.79275  0.10868  0.19411  1.0000
  H   H75       1.0  0.69986  0.18756  0.21592  1.0000
  H   H76       1.0  0.73807  0.19587  0.21132  1.0000
  C   C126      1.0  0.21971  0.57008  0.26937  1.0000
  N   N13       1.0  0.21760  0.58868  0.27303  1.0000
  C   C127      1.0  0.20078  0.62163  0.27434  1.0000
  C   C128      1.0  0.20307  0.64335  0.27441  1.0000
  H   H77       1.0  0.19500  0.64712  0.22584  1.0000
  H   H78       1.0  0.22504  0.56672  0.21068  1.0000
  N   N14       1.0  0.18768  0.60526  0.20951  1.0000
  O   O1        1.0  0.19516  0.61195  0.13218  1.0000
  O   O2        1.0  0.16747  0.60055  0.21229  1.0000
  C   C129      1.0  0.48748  0.64999  0.26976  1.0000
  N   N15       1.0  0.46888  0.62928  0.27343  1.0000
  C   C130      1.0  0.43593  0.57952  0.27476  1.0000
  C   C131      1.0  0.41421  0.56008  0.27481  1.0000
  H   H79       1.0  0.41045  0.54824  0.22620  1.0000
  H   H80       1.0  0.49086  0.65867  0.21104  1.0000
  N   N16       1.0  0.45232  0.58279  0.20993  1.0000
  O   O3        1.0  0.44565  0.58359  0.13261  1.0000
  O   O4        1.0  0.45703  0.56730  0.21269  1.0000
  C   C132      1.0  0.40760  0.83786  0.26963  1.0000
  N   N17       1.0  0.42831  0.83997  0.27343  1.0000
  C   C133      1.0  0.47808  0.85680  0.27503  1.0000
  C   C134      1.0  0.49751  0.85452  0.27518  1.0000
  H   H81       1.0  0.50938  0.86261  0.22666  1.0000
  H   H82       1.0  0.39895  0.83256  0.21090  1.0000
  N   N18       1.0  0.47484  0.86993  0.21020  1.0000
  O   O5        1.0  0.47409  0.86249  0.13287  1.0000
  O   O6        1.0  0.49034  0.89014  0.21308  1.0000
  C   C135      1.0  0.85674  0.46848  0.26999  1.0000
  N   N19       1.0  0.85886  0.44989  0.27365  1.0000
  C   C136      1.0  0.87571  0.41697  0.27504  1.0000
  C   C137      1.0  0.87343  0.39525  0.27513  1.0000
  H   H83       1.0  0.88153  0.39149  0.22658  1.0000
  H   H84       1.0  0.85145  0.47187  0.21128  1.0000
  N   N20       1.0  0.88883  0.43335  0.21023  1.0000
  O   O7        1.0  0.88138  0.42667  0.13289  1.0000
  O   O8        1.0  0.90904  0.43807  0.21305  1.0000
  C   C138      1.0  0.58904  0.38862  0.27036  1.0000
  N   N21       1.0  0.60763  0.40933  0.27402  1.0000
  C   C139      1.0  0.64058  0.45910  0.27531  1.0000
  C   C140      1.0  0.66229  0.47853  0.27538  1.0000
  H   H85       1.0  0.66607  0.49038  0.22679  1.0000
  H   H86       1.0  0.58568  0.37993  0.21169  1.0000
  N   N22       1.0  0.62421  0.45583  0.21047  1.0000
  O   O9        1.0  0.63091  0.45505  0.13315  1.0000
  O   O10       1.0  0.61950  0.47133  0.21324  1.0000
  C   C141      1.0  0.66892  0.20075  0.27026  1.0000
  N   N23       1.0  0.64821  0.19863  0.27402  1.0000
  C   C142      1.0  0.59845  0.18182  0.27557  1.0000
  C   C143      1.0  0.57902  0.18410  0.27569  1.0000
  H   H87       1.0  0.56716  0.17602  0.22713  1.0000
  H   H88       1.0  0.67759  0.20604  0.21150  1.0000
  N   N24       1.0  0.60172  0.16871  0.21073  1.0000
  O   O11       1.0  0.60250  0.17617  0.13340  1.0000
  O   O12       1.0  0.58622  0.14850  0.21355  1.0000
  C   C144      1.0  0.99163  0.28055  0.26465  1.0000
  N   N25       1.0  0.01442  0.29190  0.26757  1.0000
  C   C145      1.0  0.06154  0.33085  0.26539  1.0000
  C   C146      1.0  0.08538  0.34338  0.26584  1.0000
  H   H89       1.0  0.09329  0.35566  0.21862  1.0000
  H   H90       1.0  0.98407  0.27352  0.20526  1.0000
  N   N26       1.0  0.04888  0.33505  0.20142  1.0000
  O   O13       1.0  0.05316  0.33149  0.12350  1.0000
  O   O14       1.0  0.05268  0.35495  0.20622  1.0000
  C   C147      1.0  0.77701  0.71144  0.26506  1.0000
  N   N27       1.0  0.76566  0.72289  0.26797  1.0000
  C   C148      1.0  0.72670  0.73105  0.26578  1.0000
  C   C149      1.0  0.71418  0.74237  0.26620  1.0000
  H   H91       1.0  0.70189  0.73798  0.21904  1.0000
  H   H92       1.0  0.78407  0.71094  0.20569  1.0000
  N   N28       1.0  0.72251  0.71418  0.20184  1.0000
  O   O15       1.0  0.72608  0.72201  0.12391  1.0000
  O   O16       1.0  0.70261  0.69808  0.20664  1.0000
  C   C150      1.0  0.34610  0.06595  0.26483  1.0000
  N   N29       1.0  0.33466  0.04315  0.26765  1.0000
  C   C151      1.0  0.32648  0.99603  0.26525  1.0000
  C   C152      1.0  0.31517  0.97220  0.26558  1.0000
  H   H93       1.0  0.31957  0.96431  0.21840  1.0000
  H   H94       1.0  0.34666  0.07354  0.20547  1.0000
  N   N30       1.0  0.34336  0.00872  0.20134  1.0000
  O   O17       1.0  0.33555  0.00448  0.12339  1.0000
  O   O18       1.0  0.35946  0.00492  0.20610  1.0000
  C   C153      1.0  0.08487  0.75807  0.26424  1.0000
  N   N31       1.0  0.06207  0.74672  0.26720  1.0000
  C   C154      1.0  0.01495  0.70777  0.26512  1.0000
  C   C155      1.0  0.99111  0.69525  0.26563  1.0000
  H   H95       1.0  0.98320  0.68295  0.21851  1.0000
  H   H96       1.0  0.09244  0.76510  0.20483  1.0000
  N   N32       1.0  0.02761  0.70357  0.20111  1.0000
  O   O19       1.0  0.02334  0.70714  0.12321  1.0000
  O   O20       1.0  0.02381  0.68367  0.20590  1.0000
  C   C156      1.0  0.29948  0.32714  0.26469  1.0000
  N   N33       1.0  0.31084  0.31570  0.26766  1.0000
  C   C157      1.0  0.34979  0.30753  0.26560  1.0000
  C   C158      1.0  0.36232  0.29623  0.26613  1.0000
  H   H97       1.0  0.37461  0.30060  0.21895  1.0000
  H   H98       1.0  0.29245  0.32767  0.20528  1.0000
  N   N34       1.0  0.35399  0.32439  0.20158  1.0000
  O   O21       1.0  0.35045  0.31655  0.12367  1.0000
  O   O22       1.0  0.37389  0.34049  0.20636  1.0000
  C   C159      1.0  0.73036  0.97267  0.26482  1.0000
  N   N35       1.0  0.74181  0.99547  0.26774  1.0000
  C   C160      1.0  0.74998  0.04259  0.26559  1.0000
  C   C161      1.0  0.76131  0.06642  0.26602  1.0000
  H   H99       1.0  0.75692  0.07434  0.21886  1.0000
  H   H100      1.0  0.72984  0.96511  0.20544  1.0000
  N   N36       1.0  0.73313  0.02993  0.20164  1.0000
  O   O23       1.0  0.74096  0.03420  0.12371  1.0000
  O   O24       1.0  0.71703  0.03373  0.20646  1.0000
  C   C162      1.0  0.29539  0.51292  0.31819  1.0000
  C   C163      1.0  0.25781  0.49079  0.33034  1.0000
  C   C164      1.0  0.30214  0.46123  0.33977  1.0000
  C   C165      1.0  0.24230  0.39402  0.33128  1.0000
  C   C166      1.0  0.20465  0.37190  0.32144  1.0000
  C   C167      1.0  0.19303  0.40096  0.33828  1.0000
  C   C168      1.0  0.19802  0.42370  0.34282  1.0000
  N   N37       1.0  0.21842  0.44255  0.33724  1.0000
  C   C169      1.0  0.19398  0.45420  0.35168  1.0000
  C   C170      1.0  0.18235  0.43097  0.35105  1.0000
  C   C171      1.0  0.22954  0.53312  0.41915  1.0000
  C   C172      1.0  0.23395  0.51518  0.41738  1.0000
  C   C173      1.0  0.16983  0.38400  0.33755  1.0000
  C   C174      1.0  0.12230  0.35373  0.33409  1.0000
  C   C175      1.0  0.13389  0.36236  0.41579  1.0000
  C   C176      1.0  0.15731  0.37723  0.41766  1.0000
  C   C177      1.0  0.26830  0.37004  0.41000  1.0000
  C   C178      1.0  0.27621  0.35463  0.41106  1.0000
  C   C179      1.0  0.34182  0.50881  0.41684  1.0000
  C   C180      1.0  0.36423  0.52668  0.41825  1.0000
  H   H101      1.0  0.37212  0.53174  0.47873  1.0000
  H   H102      1.0  0.33397  0.50165  0.47588  1.0000
  H   H103      1.0  0.31085  0.52706  0.31207  1.0000
  H   H104      1.0  0.26047  0.37157  0.46556  1.0000
  H   H105      1.0  0.27340  0.34508  0.46716  1.0000
  H   H106      1.0  0.18915  0.35779  0.31582  1.0000
  H   H107      1.0  0.18665  0.46397  0.35710  1.0000
  H   H108      1.0  0.16524  0.42124  0.35601  1.0000
  H   H109      1.0  0.16500  0.38381  0.47751  1.0000
  H   H110      1.0  0.12525  0.35877  0.47481  1.0000
  H   H111      1.0  0.24152  0.51260  0.47146  1.0000
  H   H112      1.0  0.23446  0.54325  0.47437  1.0000
  C   C181      1.0  0.54467  0.78283  0.31724  1.0000
  C   C182      1.0  0.56678  0.76739  0.33008  1.0000
  N   N38       1.0  0.57945  0.79015  0.33465  1.0000
  C   C183      1.0  0.57362  0.82352  0.33474  1.0000
  C   C184      1.0  0.59630  0.84124  0.34056  1.0000
  C   C185      1.0  0.66351  0.84863  0.33166  1.0000
  N   N39       1.0  0.65087  0.82587  0.33781  1.0000
  C   C186      1.0  0.68565  0.83311  0.32199  1.0000
  C   C187      1.0  0.65657  0.79242  0.33870  1.0000
  C   C188      1.0  0.63384  0.77467  0.34321  1.0000
  N   N40       1.0  0.61499  0.77623  0.33751  1.0000
  C   C189      1.0  0.60333  0.74014  0.35241  1.0000
  C   C190      1.0  0.62656  0.75174  0.35176  1.0000
  C   C191      1.0  0.57343  0.75084  0.33785  1.0000
  C   C192      1.0  0.55612  0.72775  0.34130  1.0000
  C   C193      1.0  0.51975  0.68219  0.34568  1.0000
  C   C194      1.0  0.52434  0.69682  0.41943  1.0000
  C   C195      1.0  0.54230  0.71917  0.41767  1.0000
  C   C196      1.0  0.67354  0.78619  0.33797  1.0000
  C   C197      1.0  0.70382  0.76893  0.33451  1.0000
  C   C198      1.0  0.69519  0.77192  0.41622  1.0000
  C   C199      1.0  0.68029  0.78043  0.41807  1.0000
  C   C200      1.0  0.68747  0.89862  0.41029  1.0000
  C   C201      1.0  0.70287  0.92193  0.41130  1.0000
  C   C202      1.0  0.70491  0.93585  0.33769  1.0000
  C   C203      1.0  0.55644  0.82943  0.33562  1.0000
  C   C204      1.0  0.54867  0.83330  0.41730  1.0000
  C   C205      1.0  0.52000  0.83842  0.33886  1.0000
  C   C206      1.0  0.53080  0.83784  0.41869  1.0000
  H   H113      1.0  0.52571  0.84065  0.47917  1.0000
  H   H114      1.0  0.55578  0.83257  0.47636  1.0000
  H   H115      1.0  0.53051  0.78413  0.31142  1.0000
  H   H116      1.0  0.59523  0.79806  0.34896  1.0000
  H   H117      1.0  0.63497  0.81796  0.35019  1.0000
  H   H118      1.0  0.68596  0.88926  0.46582  1.0000
  H   H119      1.0  0.71243  0.92868  0.46735  1.0000
  H   H120      1.0  0.69975  0.83172  0.31641  1.0000
  H   H121      1.0  0.59355  0.72305  0.35814  1.0000
  H   H122      1.0  0.63629  0.74436  0.35695  1.0000
  H   H123      1.0  0.67371  0.78156  0.47794  1.0000
  H   H124      1.0  0.69875  0.76685  0.47522  1.0000
  H   H125      1.0  0.54483  0.72934  0.47162  1.0000
  H   H126      1.0  0.51418  0.69163  0.47458  1.0000
  C   C207      1.0  0.21629  0.75541  0.33957  1.0000
  C   C208      1.0  0.28288  0.85953  0.34223  1.0000
  C   C209      1.0  0.31742  0.86356  0.35128  1.0000
  C   C210      1.0  0.30582  0.87519  0.35061  1.0000
  C   C211      1.0  0.36070  0.82792  0.41911  1.0000
  C   C212      1.0  0.33836  0.82353  0.41725  1.0000
  C   C213      1.0  0.28563  0.92363  0.41548  1.0000
  C   C214      1.0  0.27708  0.90021  0.41731  1.0000
  C   C215      1.0  0.15890  0.78919  0.40957  1.0000
  C   C216      1.0  0.13559  0.78128  0.41062  1.0000
  C   C217      1.0  0.22416  0.71570  0.41650  1.0000
  C   C218      1.0  0.21963  0.69330  0.41791  1.0000
  H   H127      1.0  0.21678  0.68540  0.47837  1.0000
  H   H128      1.0  0.22485  0.72354  0.47555  1.0000
  H   H129      1.0  0.27341  0.74671  0.31144  1.0000
  H   H130      1.0  0.16826  0.79701  0.46513  1.0000
  H   H131      1.0  0.12884  0.78407  0.46675  1.0000
  H   H132      1.0  0.22583  0.86841  0.31612  1.0000
  H   H133      1.0  0.33451  0.87088  0.35701  1.0000
  H   H134      1.0  0.31319  0.89230  0.35570  1.0000
  H   H135      1.0  0.27599  0.89251  0.47714  1.0000
  H   H136      1.0  0.29067  0.93225  0.47450  1.0000
  H   H137      1.0  0.32818  0.81593  0.47124  1.0000
  H   H138      1.0  0.36589  0.82299  0.47437  1.0000
  C   C219      1.0  0.78109  0.52568  0.31898  1.0000
  C   C220      1.0  0.80119  0.52566  0.31921  1.0000
  C   C221      1.0  0.81867  0.54781  0.33104  1.0000
  N   N41       1.0  0.80857  0.56047  0.33554  1.0000
  C   C222      1.0  0.76938  0.55469  0.33498  1.0000
  C   C223      1.0  0.77434  0.57737  0.34046  1.0000
  C   C224      1.0  0.83420  0.64459  0.33208  1.0000
  N   N42       1.0  0.84430  0.63194  0.33820  1.0000
  C   C225      1.0  0.87185  0.66672  0.32269  1.0000
  C   C226      1.0  0.88346  0.63763  0.33873  1.0000
  C   C227      1.0  0.87847  0.61489  0.34313  1.0000
  N   N43       1.0  0.85806  0.59604  0.33769  1.0000
  C   C228      1.0  0.88251  0.58438  0.35182  1.0000
  C   C229      1.0  0.89414  0.60761  0.35120  1.0000
  C   C230      1.0  0.84188  0.55447  0.33805  1.0000
  C   C231      1.0  0.84767  0.53717  0.34148  1.0000
  C   C232      1.0  0.85688  0.50081  0.34584  1.0000
  C   C233      1.0  0.84691  0.50546  0.41973  1.0000
  C   C234      1.0  0.84252  0.52342  0.41798  1.0000
  C   C235      1.0  0.90666  0.65459  0.33790  1.0000
  C   C236      1.0  0.95419  0.68487  0.33417  1.0000
  C   C237      1.0  0.94261  0.67622  0.41592  1.0000
  C   C238      1.0  0.91919  0.66135  0.41793  1.0000
  C   C239      1.0  0.80813  0.66853  0.41055  1.0000
  C   C240      1.0  0.80021  0.68393  0.41156  1.0000
  C   C241      1.0  0.78838  0.68600  0.33789  1.0000
  C   C242      1.0  0.74628  0.53751  0.33583  1.0000
  C   C243      1.0  0.73462  0.52980  0.41749  1.0000
  C   C244      1.0  0.70087  0.50107  0.33908  1.0000
  C   C245      1.0  0.71222  0.51192  0.41889  1.0000
  H   H139      1.0  0.70431  0.50685  0.47935  1.0000
  H   H140      1.0  0.74245  0.53694  0.47655  1.0000
  H   H141      1.0  0.76563  0.51153  0.31305  1.0000
  H   H142      1.0  0.81650  0.57635  0.34791  1.0000
  H   H143      1.0  0.83631  0.61602  0.34990  1.0000
  H   H144      1.0  0.81592  0.66698  0.46617  1.0000
  H   H145      1.0  0.80298  0.69346  0.46769  1.0000
  H   H146      1.0  0.88736  0.68083  0.31712  1.0000
  H   H147      1.0  0.88983  0.57461  0.35736  1.0000
  H   H148      1.0  0.91125  0.61734  0.35616  1.0000
  H   H149      1.0  0.91151  0.65476  0.47782  1.0000
  H   H150      1.0  0.95125  0.67982  0.47489  1.0000
  H   H151      1.0  0.83495  0.52600  0.47207  1.0000
  H   H152      1.0  0.84200  0.49535  0.47501  1.0000
  C   C246      1.0  0.53187  0.25577  0.31928  1.0000
  C   C247      1.0  0.53189  0.27589  0.31954  1.0000
  C   C248      1.0  0.50973  0.27122  0.33138  1.0000
  N   N44       1.0  0.49707  0.24846  0.33597  1.0000
  C   C249      1.0  0.50966  0.23831  0.32975  1.0000
  C   C250      1.0  0.50286  0.21505  0.33533  1.0000
  C   C251      1.0  0.48018  0.19733  0.34077  1.0000
  N   N45       1.0  0.46132  0.19888  0.33570  1.0000
  C   C252      1.0  0.41972  0.17345  0.33676  1.0000
  C   C253      1.0  0.41297  0.18997  0.33206  1.0000
  N   N46       1.0  0.42562  0.21271  0.33816  1.0000
  C   C254      1.0  0.41306  0.22291  0.33294  1.0000
  C   C255      1.0  0.39085  0.20549  0.32214  1.0000
  C   C256      1.0  0.39082  0.18534  0.32102  1.0000
  C   C257      1.0  0.41991  0.24618  0.33904  1.0000
  C   C258      1.0  0.44265  0.26392  0.34365  1.0000
  N   N47       1.0  0.46150  0.26237  0.33815  1.0000
  C   C259      1.0  0.48036  0.28279  0.34325  1.0000
  C   C260      1.0  0.47315  0.29846  0.35259  1.0000
  C   C261      1.0  0.44992  0.28686  0.35188  1.0000
  C   C262      1.0  0.50306  0.28776  0.33852  1.0000
  C   C263      1.0  0.52036  0.31085  0.34194  1.0000
  C   C264      1.0  0.55672  0.35643  0.34626  1.0000
  C   C265      1.0  0.55206  0.34181  0.42017  1.0000
  C   C266      1.0  0.53412  0.31946  0.41840  1.0000
  C   C267      1.0  0.40295  0.25241  0.33821  1.0000
  C   C268      1.0  0.37267  0.26967  0.33455  1.0000
  C   C269      1.0  0.38129  0.26671  0.41630  1.0000
  C   C270      1.0  0.39616  0.25816  0.41827  1.0000
  C   C271      1.0  0.40268  0.15022  0.33515  1.0000
  C   C272      1.0  0.38897  0.13994  0.41059  1.0000
  C   C273      1.0  0.37356  0.11663  0.41151  1.0000
  C   C274      1.0  0.37154  0.10274  0.33783  1.0000
  C   C275      1.0  0.52004  0.20913  0.33618  1.0000
  C   C276      1.0  0.52776  0.20522  0.41784  1.0000
  C   C277      1.0  0.55648  0.20015  0.33940  1.0000
  C   C278      1.0  0.54563  0.20069  0.41922  1.0000
  H   H153      1.0  0.55070  0.19785  0.47968  1.0000
  H   H154      1.0  0.52061  0.20591  0.47690  1.0000
  H   H155      1.0  0.54602  0.25446  0.31317  1.0000
  H   H156      1.0  0.48119  0.24050  0.34840  1.0000
  H   H157      1.0  0.44148  0.22062  0.35112  1.0000
  H   H158      1.0  0.44007  0.14578  0.35773  1.0000
  H   H159      1.0  0.39048  0.14928  0.46619  1.0000
  H   H160      1.0  0.36399  0.10986  0.46756  1.0000
  H   H161      1.0  0.37675  0.20689  0.31646  1.0000
  H   H162      1.0  0.48292  0.31556  0.35803  1.0000
  H   H163      1.0  0.44019  0.29424  0.35678  1.0000
  H   H164      1.0  0.40273  0.25705  0.47816  1.0000
  H   H165      1.0  0.37768  0.27174  0.47528  1.0000
  H   H166      1.0  0.53154  0.30931  0.47249  1.0000
  H   H167      1.0  0.56218  0.34701  0.47539  1.0000
  C   C279      1.0  0.80178  0.27640  0.31718  1.0000
  C   C280      1.0  0.78633  0.23885  0.33004  1.0000
  C   C281      1.0  0.84247  0.28814  0.33457  1.0000
  C   C282      1.0  0.86019  0.28318  0.34036  1.0000
  C   C283      1.0  0.86757  0.22335  0.33148  1.0000
  C   C284      1.0  0.85205  0.18570  0.32180  1.0000
  C   C285      1.0  0.81136  0.17408  0.33855  1.0000
  C   C286      1.0  0.79362  0.17907  0.34311  1.0000
  N   N48       1.0  0.79517  0.19947  0.33743  1.0000
  C   C287      1.0  0.75908  0.17504  0.35241  1.0000
  C   C288      1.0  0.77068  0.16341  0.35170  1.0000
  C   C289      1.0  0.74670  0.20988  0.34142  1.0000
  C   C290      1.0  0.71579  0.21072  0.41969  1.0000
  C   C291      1.0  0.73813  0.21510  0.41784  1.0000
  C   C292      1.0  0.80513  0.15088  0.33781  1.0000
  C   C293      1.0  0.78788  0.10334  0.33432  1.0000
  C   C294      1.0  0.79086  0.11495  0.41604  1.0000
  C   C295      1.0  0.79937  0.13836  0.41791  1.0000
  C   C296      1.0  0.91756  0.24937  0.41010  1.0000
  C   C297      1.0  0.94088  0.25728  0.41112  1.0000
  C   C298      1.0  0.85226  0.32285  0.41716  1.0000
  C   C299      1.0  0.85736  0.35665  0.33877  1.0000
  C   C300      1.0  0.85679  0.34526  0.41858  1.0000
  H   H168      1.0  0.85960  0.35314  0.47907  1.0000
  H   H169      1.0  0.85153  0.31500  0.47621  1.0000
  H   H170      1.0  0.80308  0.29186  0.31137  1.0000
  H   H171      1.0  0.83691  0.22122  0.35003  1.0000
  H   H172      1.0  0.90819  0.24152  0.46564  1.0000
  H   H173      1.0  0.94762  0.25446  0.46718  1.0000
  H   H174      1.0  0.85066  0.17020  0.31622  1.0000
  H   H175      1.0  0.74200  0.16773  0.35818  1.0000
  H   H176      1.0  0.76331  0.14631  0.35690  1.0000
  H   H177      1.0  0.80050  0.14605  0.47778  1.0000
  H   H178      1.0  0.78579  0.10631  0.47504  1.0000
  H   H179      1.0  0.74831  0.22274  0.47174  1.0000
  H   H180      1.0  0.71061  0.21569  0.47488  1.0000
  C   C301      1.0  0.21603  0.55668  0.34622  1.0000
  C   C302      1.0  0.21158  0.59565  0.34765  1.0000
  C   C303      1.0  0.20743  0.58299  0.42724  1.0000
  C   C304      1.0  0.20954  0.56348  0.42479  1.0000
  H   H181      1.0  0.20617  0.55413  0.48184  1.0000
  C   C305      1.0  0.21152  0.61626  0.34306  1.0000
  C   C306      1.0  0.21591  0.65963  0.34005  1.0000
  C   C307      1.0  0.22608  0.65302  0.40651  1.0000
  N   N49       1.0  0.22369  0.63219  0.40522  1.0000
  H   H182      1.0  0.23609  0.66396  0.45482  1.0000
  N   N50       1.0  0.20091  0.58969  0.50589  1.0000
  O   O25       1.0  0.21477  0.59377  0.56793  1.0000
  O   O26       1.0  0.18175  0.57477  0.53178  1.0000
  C   C308      1.0  0.50084  0.65973  0.34666  1.0000
  C   C309      1.0  0.46187  0.61630  0.34809  1.0000
  C   C310      1.0  0.47450  0.62482  0.42770  1.0000
  C   C311      1.0  0.49401  0.64646  0.42526  1.0000
  H   H183      1.0  0.50334  0.65245  0.48233  1.0000
  C   C312      1.0  0.44128  0.59562  0.34350  1.0000
  C   C313      1.0  0.39791  0.55663  0.34042  1.0000
  C   C314      1.0  0.40451  0.57340  0.40692  1.0000
  N   N51       1.0  0.42533  0.59186  0.40562  1.0000
  H   H184      1.0  0.39354  0.57248  0.45515  1.0000
  N   N52       1.0  0.46779  0.61162  0.50636  1.0000
  O   O27       1.0  0.46368  0.62139  0.56837  1.0000
  O   O28       1.0  0.48270  0.60738  0.53231  1.0000
  C   C315      1.0  0.39782  0.84149  0.34645  1.0000
  C   C316      1.0  0.44125  0.84595  0.34814  1.0000
  C   C317      1.0  0.43269  0.85006  0.42768  1.0000
  C   C318      1.0  0.41107  0.84794  0.42511  1.0000
  H   H185      1.0  0.40505  0.85128  0.48213  1.0000
  C   C319      1.0  0.46194  0.84603  0.34367  1.0000
  C   C320      1.0  0.50092  0.84164  0.34078  1.0000
  C   C321      1.0  0.48409  0.83143  0.40711  1.0000
  N   N53       1.0  0.46565  0.83382  0.40578  1.0000
  H   H186      1.0  0.48499  0.82139  0.45540  1.0000
  N   N54       1.0  0.44586  0.85654  0.50641  1.0000
  O   O29       1.0  0.43605  0.84266  0.56839  1.0000
  O   O30       1.0  0.45009  0.87570  0.53234  1.0000
  C   C322      1.0  0.86042  0.48189  0.34682  1.0000
  C   C323      1.0  0.86485  0.44291  0.34829  1.0000
  C   C324      1.0  0.86900  0.45557  0.42785  1.0000
  C   C325      1.0  0.86690  0.47509  0.42538  1.0000
  H   H187      1.0  0.87027  0.48444  0.48241  1.0000
  C   C326      1.0  0.86493  0.42231  0.34372  1.0000
  C   C327      1.0  0.86057  0.37895  0.34073  1.0000
  C   C328      1.0  0.85036  0.38555  0.40713  1.0000
  N   N55       1.0  0.85273  0.40637  0.40585  1.0000
  H   H188      1.0  0.84033  0.37459  0.45544  1.0000
  N   N56       1.0  0.87551  0.44887  0.50648  1.0000
  O   O31       1.0  0.86165  0.44480  0.56857  1.0000
  O   O32       1.0  0.89467  0.46379  0.53231  1.0000
  C   C329      1.0  0.57563  0.37888  0.34722  1.0000
  C   C330      1.0  0.61460  0.42232  0.34863  1.0000
  C   C331      1.0  0.60193  0.41380  0.42822  1.0000
  C   C332      1.0  0.58242  0.39217  0.42578  1.0000
  H   H189      1.0  0.57306  0.38618  0.48283  1.0000
  C   C333      1.0  0.63521  0.44298  0.34403  1.0000
  C   C334      1.0  0.67857  0.48197  0.34102  1.0000
  C   C335      1.0  0.67195  0.46518  0.40749  1.0000
  N   N57       1.0  0.65113  0.44673  0.40620  1.0000
  H   H190      1.0  0.68290  0.46611  0.45580  1.0000
  N   N58       1.0  0.60862  0.42700  0.50686  1.0000
  O   O33       1.0  0.61270  0.41723  0.56891  1.0000
  O   O34       1.0  0.59370  0.43125  0.53275  1.0000
  C   C336      1.0  0.67868  0.19714  0.34710  1.0000
  C   C337      1.0  0.63525  0.19267  0.34874  1.0000
  C   C338      1.0  0.64379  0.18856  0.42831  1.0000
  C   C339      1.0  0.66542  0.19068  0.42576  1.0000
  H   H191      1.0  0.67143  0.18735  0.48280  1.0000
  C   C340      1.0  0.61456  0.19257  0.34425  1.0000
  C   C341      1.0  0.57557  0.19695  0.34131  1.0000
  C   C342      1.0  0.59236  0.20712  0.40775  1.0000
  N   N59       1.0  0.61081  0.20476  0.40638  1.0000
  H   H192      1.0  0.59144  0.21717  0.45598  1.0000
  N   N60       1.0  0.63060  0.18207  0.50704  1.0000
  O   O35       1.0  0.64039  0.19595  0.56900  1.0000
  O   O36       1.0  0.62637  0.16292  0.53301  1.0000
  C   C343      1.0  0.97882  0.27902  0.34114  1.0000
  C   C344      1.0  0.02667  0.30203  0.34195  1.0000
  C   C345      1.0  0.01502  0.30048  0.42227  1.0000
  C   C346      1.0  0.99116  0.28905  0.42017  1.0000
  H   H193      1.0  0.98286  0.28904  0.47692  1.0000
  C   C347      1.0  0.05047  0.31471  0.33386  1.0000
  C   C348      1.0  0.09825  0.34010  0.33181  1.0000
  C   C349      1.0  0.08607  0.32358  0.39741  1.0000
  N   N61       1.0  0.06324  0.31187  0.39626  1.0000
  H   H194      1.0  0.09415  0.32013  0.44687  1.0000
  N   N62       1.0  0.02715  0.31124  0.50068  1.0000
  O   O37       1.0  0.02259  0.29730  0.56283  1.0000
  O   O38       1.0  0.02299  0.32621  0.52661  1.0000
  C   C350      1.0  0.77849  0.70014  0.34152  1.0000
  C   C351      1.0  0.75549  0.72498  0.34233  1.0000
  C   C352      1.0  0.75702  0.71488  0.42264  1.0000
  C   C353      1.0  0.76845  0.70245  0.42055  1.0000
  H   H195      1.0  0.76843  0.69414  0.47728  1.0000
  C   C354      1.0  0.74283  0.73612  0.33425  1.0000
  C   C355      1.0  0.71743  0.75849  0.33222  1.0000
  C   C356      1.0  0.73396  0.76285  0.39777  1.0000
  N   N63       1.0  0.74566  0.75173  0.39663  1.0000
  H   H196      1.0  0.73741  0.77439  0.44724  1.0000
  N   N64       1.0  0.74623  0.71624  0.50103  1.0000
  O   O39       1.0  0.76015  0.72562  0.56321  1.0000
  O   O40       1.0  0.73125  0.69711  0.52693  1.0000
  C   C357      1.0  0.35736  0.07871  0.34136  1.0000
  C   C358      1.0  0.33252  0.03087  0.34197  1.0000
  C   C359      1.0  0.34260  0.04248  0.42232  1.0000
  C   C360      1.0  0.35503  0.06634  0.42034  1.0000
  H   H197      1.0  0.36332  0.07461  0.47711  1.0000
  C   C361      1.0  0.32139  0.00707  0.33377  1.0000
  C   C362      1.0  0.29903  0.95930  0.33159  1.0000
  C   C363      1.0  0.29465  0.97145  0.39719  1.0000
  N   N65       1.0  0.30576  0.99428  0.39613  1.0000
  H   H198      1.0  0.28310  0.96334  0.44665  1.0000
  N   N66       1.0  0.34120  0.03030  0.50067  1.0000
  O   O41       1.0  0.33180  0.03484  0.56285  1.0000
  O   O42       1.0  0.36032  0.03445  0.52660  1.0000
  C   C364      1.0  0.09766  0.75956  0.34066  1.0000
  C   C365      1.0  0.04982  0.73657  0.34160  1.0000
  C   C366      1.0  0.06146  0.73810  0.42187  1.0000
  C   C367      1.0  0.08531  0.74954  0.41974  1.0000
  H   H199      1.0  0.09360  0.74950  0.47643  1.0000
  C   C368      1.0  0.02601  0.72391  0.33357  1.0000
  C   C369      1.0  0.97824  0.69850  0.33174  1.0000
  C   C370      1.0  0.99042  0.71503  0.39729  1.0000
  N   N67       1.0  0.01325  0.72674  0.39604  1.0000
  H   H200      1.0  0.98234  0.71847  0.44682  1.0000
  N   N68       1.0  0.04930  0.72732  0.50028  1.0000
  O   O43       1.0  0.05385  0.74124  0.56247  1.0000
  O   O44       1.0  0.05347  0.71234  0.52614  1.0000
  C   C371      1.0  0.29795  0.33842  0.34114  1.0000
  C   C372      1.0  0.32096  0.31359  0.34206  1.0000
  C   C373      1.0  0.31940  0.32368  0.42234  1.0000
  C   C374      1.0  0.30797  0.33611  0.42018  1.0000
  H   H201      1.0  0.30796  0.34441  0.47691  1.0000
  C   C375      1.0  0.33364  0.30246  0.33404  1.0000
  C   C376      1.0  0.35904  0.28009  0.33217  1.0000
  C   C377      1.0  0.34250  0.27574  0.39772  1.0000
  N   N69       1.0  0.33079  0.28686  0.39650  1.0000
  H   H202      1.0  0.33905  0.26421  0.44723  1.0000
  N   N70       1.0  0.33016  0.32232  0.50077  1.0000
  O   O45       1.0  0.31622  0.31294  0.56293  1.0000
  O   O46       1.0  0.34513  0.34145  0.52666  1.0000
  C   C378      1.0  0.71907  0.95988  0.34131  1.0000
  C   C379      1.0  0.74391  0.00771  0.34212  1.0000
  C   C380      1.0  0.73382  0.99607  0.42245  1.0000
  C   C381      1.0  0.72139  0.97222  0.42036  1.0000
  H   H203      1.0  0.71309  0.96392  0.47710  1.0000
  C   C382      1.0  0.75506  0.03152  0.33403  1.0000
  C   C383      1.0  0.77743  0.07930  0.33203  1.0000
  C   C384      1.0  0.78179  0.06712  0.39757  1.0000
  N   N71       1.0  0.77066  0.04429  0.39642  1.0000
  H   H204      1.0  0.79332  0.07520  0.44702  1.0000
  N   N72       1.0  0.73519  0.00822  0.50085  1.0000
  O   O47       1.0  0.74457  0.00367  0.56299  1.0000
  O   O48       1.0  0.71605  0.00406  0.52680  1.0000
