data_image0
_chemical_formula_structural       C4NC4NH4N2C4NC4NH4N2C4NC4NH4N2C3O2H2CHC3O2H2CHC3O2H2CHC3O2H2CHC3O2H2CHC3O2H2CHC2HC2H3N2C2HC2H3N2C2HC2H3N2C3OHOHCHC3OHOHCHC3OHOHCHC3OHOHCHC3OHOHCHC3OHOHCH
_chemical_formula_sum              "C84 N18 H60 O24"
_cell_length_a       31.708
_cell_length_b       31.708
_cell_length_c       15.0549
_cell_angle_alpha    90
_cell_angle_beta     90
_cell_angle_gamma    120

_space_group_name_H-M_alt    "P 1"
_space_group_IT_number       1

loop_
  _space_group_symop_operation_xyz
  'x, y, z'

loop_
  _atom_site_type_symbol
  _atom_site_label
  _atom_site_symmetry_multiplicity
  _atom_site_fract_x
  _atom_site_fract_y
  _atom_site_fract_z
  _atom_site_occupancy
  C   C1        1.0  0.97132  0.48501  0.32860  1.0000
  C   C2        1.0  0.86658  0.43211  0.32987  1.0000
  C   C3        1.0  0.89345  0.40761  0.34259  1.0000
  C   C4        1.0  0.94455  0.43456  0.34858  1.0000
  N   N1        1.0  0.81691  0.40704  0.33072  1.0000
  C   C5        1.0  0.02323  0.51134  0.32852  1.0000
  C   C6        1.0  0.05000  0.56180  0.34845  1.0000
  C   C7        1.0  0.10109  0.58876  0.34229  1.0000
  C   C8        1.0  0.12796  0.56426  0.32954  1.0000
  N   N2        1.0  0.17764  0.58933  0.33034  1.0000
  H   H1        1.0  0.19617  0.62317  0.34835  1.0000
  H   H2        1.0  0.79838  0.37321  0.34874  1.0000
  H   H3        1.0  0.96229  0.41603  0.36392  1.0000
  H   H4        1.0  0.03227  0.58032  0.36390  1.0000
  N   N3        1.0  0.12119  0.63785  0.34519  1.0000
  N   N4        1.0  0.87335  0.35852  0.34542  1.0000
  C   C9        1.0  0.51041  0.48537  0.32862  1.0000
  C   C10       1.0  0.56331  0.43354  0.32971  1.0000
  C   C11       1.0  0.58782  0.48492  0.34239  1.0000
  C   C12       1.0  0.56086  0.50905  0.34864  1.0000
  N   N5        1.0  0.58838  0.40894  0.33052  1.0000
  C   C13       1.0  0.48409  0.51097  0.32864  1.0000
  C   C14       1.0  0.43365  0.48729  0.34866  1.0000
  C   C15       1.0  0.40668  0.51141  0.34243  1.0000
  C   C16       1.0  0.43119  0.56279  0.32973  1.0000
  N   N6        1.0  0.40611  0.58738  0.33050  1.0000
  H   H5        1.0  0.37227  0.57207  0.34843  1.0000
  H   H6        1.0  0.62222  0.42424  0.34850  1.0000
  H   H7        1.0  0.57940  0.54532  0.36392  1.0000
  H   H8        1.0  0.41511  0.45101  0.36394  1.0000
  N   N7        1.0  0.35759  0.48242  0.34529  1.0000
  N   N8        1.0  0.63692  0.51390  0.34526  1.0000
  C   C17       1.0  0.51008  0.02414  0.32850  1.0000
  C   C18       1.0  0.56190  0.12887  0.32949  1.0000
  C   C19       1.0  0.51054  0.10201  0.34228  1.0000
  C   C20       1.0  0.48640  0.05091  0.34841  1.0000
  N   N9        1.0  0.58651  0.17854  0.33029  1.0000
  C   C21       1.0  0.48448  0.97222  0.32861  1.0000
  C   C22       1.0  0.50817  0.94546  0.34868  1.0000
  C   C23       1.0  0.48403  0.89436  0.34259  1.0000
  C   C24       1.0  0.43265  0.86749  0.32985  1.0000
  N   N10       1.0  0.40806  0.81782  0.33068  1.0000
  H   H9        1.0  0.42336  0.79929  0.34870  1.0000
  H   H10       1.0  0.57121  0.19708  0.34829  1.0000
  H   H11       1.0  0.45015  0.03318  0.36389  1.0000
  H   H12       1.0  0.54445  0.96320  0.36390  1.0000
  N   N11       1.0  0.51303  0.87427  0.34538  1.0000
  N   N12       1.0  0.48155  0.12211  0.34517  1.0000
  C   C25       1.0  0.27632  0.46866  0.30928  1.0000
  C   C26       1.0  0.24447  0.46601  0.24046  1.0000
  C   C27       1.0  0.20020  0.46451  0.26007  1.0000
  O   O1        1.0  0.25721  0.46857  0.15321  1.0000
  O   O2        1.0  0.17448  0.46753  0.19028  1.0000
  H   H13       1.0  0.24884  0.43537  0.13592  1.0000
  H   H14       1.0  0.14917  0.43387  0.17699  1.0000
  C   C28       1.0  0.32511  0.48334  0.28828  1.0000
  H   H15       1.0  0.33838  0.49967  0.22800  1.0000
  C   C29       1.0  0.52682  0.80677  0.30939  1.0000
  C   C30       1.0  0.52940  0.77751  0.24060  1.0000
  C   C31       1.0  0.53096  0.73477  0.26024  1.0000
  O   O3        1.0  0.52676  0.78765  0.15335  1.0000
  O   O4        1.0  0.52774  0.70599  0.19040  1.0000
  H   H16       1.0  0.55995  0.81244  0.13594  1.0000
  H   H17       1.0  0.56134  0.71417  0.17702  1.0000
  C   C32       1.0  0.51206  0.84082  0.28844  1.0000
  H   H18       1.0  0.49571  0.83775  0.22818  1.0000
  C   C33       1.0  0.18868  0.71917  0.30930  1.0000
  C   C34       1.0  0.21793  0.75105  0.24054  1.0000
  C   C35       1.0  0.26064  0.79535  0.26022  1.0000
  O   O5        1.0  0.20775  0.73831  0.15328  1.0000
  O   O6        1.0  0.28941  0.82097  0.19040  1.0000
  H   H19       1.0  0.18298  0.74675  0.13595  1.0000
  H   H20       1.0  0.28125  0.84641  0.17716  1.0000
  C   C36       1.0  0.15463  0.67036  0.28828  1.0000
  H   H21       1.0  0.15773  0.65713  0.22799  1.0000
  C   C37       1.0  0.71822  0.52768  0.30926  1.0000
  C   C38       1.0  0.75009  0.53035  0.24047  1.0000
  C   C39       1.0  0.79434  0.53187  0.26016  1.0000
  O   O7        1.0  0.73733  0.52772  0.15322  1.0000
  O   O8        1.0  0.82010  0.52886  0.19040  1.0000
  H   H22       1.0  0.74565  0.56090  0.13586  1.0000
  H   H23       1.0  0.84541  0.56252  0.17713  1.0000
  C   C40       1.0  0.66940  0.51294  0.28834  1.0000
  H   H24       1.0  0.65613  0.49663  0.22803  1.0000
  C   C41       1.0  0.46776  0.18962  0.30926  1.0000
  C   C42       1.0  0.46513  0.21884  0.24046  1.0000
  C   C43       1.0  0.46360  0.26159  0.26012  1.0000
  O   O9        1.0  0.46771  0.20869  0.15320  1.0000
  O   O10       1.0  0.46663  0.29035  0.19037  1.0000
  H   H25       1.0  0.43452  0.18386  0.13587  1.0000
  H   H26       1.0  0.43297  0.28199  0.17705  1.0000
  C   C44       1.0  0.48247  0.15552  0.28821  1.0000
  H   H27       1.0  0.49880  0.15860  0.22793  1.0000
  C   C45       1.0  0.80586  0.27722  0.30938  1.0000
  C   C46       1.0  0.77663  0.24538  0.24055  1.0000
  C   C47       1.0  0.73390  0.20108  0.26014  1.0000
  O   O11       1.0  0.78681  0.25818  0.15331  1.0000
  O   O12       1.0  0.70515  0.17550  0.19026  1.0000
  H   H28       1.0  0.81160  0.24977  0.13594  1.0000
  H   H29       1.0  0.71334  0.15009  0.17693  1.0000
  C   C48       1.0  0.83992  0.32604  0.28845  1.0000
  H   H30       1.0  0.83685  0.33931  0.22817  1.0000
  C   C49       1.0  0.94390  0.50804  0.30891  1.0000
  C   C50       1.0  0.89284  0.48341  0.31616  1.0000
  H   H31       1.0  0.96118  0.54424  0.29310  1.0000
  C   C51       1.0  0.10170  0.51296  0.31586  1.0000
  C   C52       1.0  0.05064  0.48832  0.30866  1.0000
  H   H32       1.0  0.03335  0.45209  0.29307  1.0000
  H   H33       1.0  0.19665  0.57443  0.31302  1.0000
  H   H34       1.0  0.79789  0.42194  0.31343  1.0000
  N   N13       1.0  0.12216  0.48429  0.31324  1.0000
  N   N14       1.0  0.87239  0.51208  0.31343  1.0000
  C   C53       1.0  0.48739  0.43494  0.30879  1.0000
  C   C54       1.0  0.51201  0.40850  0.31607  1.0000
  H   H35       1.0  0.45116  0.41601  0.29315  1.0000
  C   C55       1.0  0.48250  0.58783  0.31612  1.0000
  C   C56       1.0  0.50712  0.56140  0.30882  1.0000
  H   H36       1.0  0.54334  0.58033  0.29319  1.0000
  H   H37       1.0  0.42101  0.62130  0.31322  1.0000
  H   H38       1.0  0.57347  0.37502  0.31323  1.0000
  N   N15       1.0  0.51115  0.63696  0.31343  1.0000
  N   N16       1.0  0.48334  0.35938  0.31340  1.0000
  C   C57       1.0  0.56051  0.05154  0.30863  1.0000
  C   C58       1.0  0.58694  0.10261  0.31578  1.0000
  H   H39       1.0  0.57944  0.03424  0.29305  1.0000
  C   C59       1.0  0.40761  0.89375  0.31613  1.0000
  C   C60       1.0  0.43405  0.94481  0.30889  1.0000
  H   H40       1.0  0.41513  0.96210  0.29311  1.0000
  H   H41       1.0  0.37415  0.79880  0.31334  1.0000
  H   H42       1.0  0.62042  0.19755  0.31295  1.0000
  N   N17       1.0  0.35849  0.87330  0.31349  1.0000
  N   N18       1.0  0.63607  0.12305  0.31321  1.0000
  C   C61       1.0  0.18892  0.46946  0.34928  1.0000
  C   C62       1.0  0.21752  0.46585  0.41815  1.0000
  C   C63       1.0  0.26032  0.46437  0.39856  1.0000
  O   O13       1.0  0.28806  0.46475  0.46819  1.0000
  H   H43       1.0  0.30738  0.49878  0.48814  1.0000
  O   O14       1.0  0.20701  0.46795  0.50538  1.0000
  H   H44       1.0  0.18144  0.43486  0.52157  1.0000
  C   C64       1.0  0.15562  0.48521  0.37005  1.0000
  H   H45       1.0  0.15879  0.50152  0.43039  1.0000
  C   C65       1.0  0.52601  0.71855  0.34945  1.0000
  C   C66       1.0  0.52968  0.75079  0.41829  1.0000
  C   C67       1.0  0.53114  0.79506  0.39867  1.0000
  O   O15       1.0  0.53079  0.82245  0.46829  1.0000
  H   H46       1.0  0.49676  0.80775  0.48827  1.0000
  O   O16       1.0  0.52755  0.73821  0.50553  1.0000
  H   H47       1.0  0.56061  0.74564  0.52172  1.0000
  C   C68       1.0  0.51025  0.66950  0.37025  1.0000
  H   H48       1.0  0.49393  0.65639  0.43059  1.0000
  C   C69       1.0  0.27687  0.80660  0.34942  1.0000
  C   C70       1.0  0.24465  0.77796  0.41825  1.0000
  C   C71       1.0  0.20037  0.73515  0.39861  1.0000
  O   O17       1.0  0.17302  0.70736  0.46820  1.0000
  H   H49       1.0  0.18774  0.68804  0.48807  1.0000
  O   O18       1.0  0.25724  0.78837  0.50550  1.0000
  H   H50       1.0  0.24982  0.81401  0.52175  1.0000
  C   C72       1.0  0.32593  0.83982  0.37026  1.0000
  H   H51       1.0  0.33904  0.83660  0.43058  1.0000
  C   C73       1.0  0.80568  0.52699  0.34936  1.0000
  C   C74       1.0  0.77705  0.53059  0.41819  1.0000
  C   C75       1.0  0.73423  0.53204  0.39856  1.0000
  O   O19       1.0  0.70644  0.53153  0.46821  1.0000
  H   H52       1.0  0.68710  0.49747  0.48797  1.0000
  O   O20       1.0  0.78750  0.52848  0.50544  1.0000
  H   H53       1.0  0.81311  0.56155  0.52164  1.0000
  C   C76       1.0  0.83894  0.51121  0.37022  1.0000
  H   H54       1.0  0.83575  0.49492  0.43059  1.0000
  C   C77       1.0  0.46852  0.27779  0.34936  1.0000
  C   C78       1.0  0.46490  0.24555  0.41819  1.0000
  C   C79       1.0  0.46345  0.20129  0.39855  1.0000
  O   O21       1.0  0.46382  0.17390  0.46814  1.0000
  H   H55       1.0  0.49785  0.18861  0.48811  1.0000
  O   O22       1.0  0.46697  0.25812  0.50543  1.0000
  H   H56       1.0  0.43387  0.25060  0.52159  1.0000
  C   C80       1.0  0.48425  0.32682  0.37019  1.0000
  H   H57       1.0  0.50055  0.33993  0.43054  1.0000
  C   C81       1.0  0.71765  0.18979  0.34933  1.0000
  C   C82       1.0  0.74986  0.21836  0.41821  1.0000
  C   C83       1.0  0.79412  0.26119  0.39864  1.0000
  O   O23       1.0  0.82148  0.28892  0.46829  1.0000
  H   H58       1.0  0.80676  0.30824  0.48823  1.0000
  O   O24       1.0  0.73724  0.20789  0.50543  1.0000
  H   H59       1.0  0.74467  0.18227  0.52164  1.0000
  C   C84       1.0  0.66859  0.15649  0.37007  1.0000
  H   H60       1.0  0.65544  0.15968  0.43038  1.0000
