data_image0
_chemical_formula_structural       COHCHC5HC2HOHC2H2C4HC4HO2H2C2H2C4HC4HO2H2C2H2C3HCH3NC3HCH3NC3HCH3NC3HCH3NC3HCH3NC3HCH3NC2HC3H2C2HC2HC2H2C2HC2HC2H2C3HCH3NC3HCH3NC3HCH3NC3HCH3NC3HCH3NC3HCH3N
_chemical_formula_sum              "C96 O6 H78 N12"
_cell_length_a       31.7196
_cell_length_b       31.7195
_cell_length_c       14.9268
_cell_angle_alpha    90
_cell_angle_beta     90
_cell_angle_gamma    120

_space_group_name_H-M_alt    "P 1"
_space_group_IT_number       1

loop_
  _space_group_symop_operation_xyz
  'x, y, z'

loop_
  _atom_site_type_symbol
  _atom_site_label
  _atom_site_symmetry_multiplicity
  _atom_site_fract_x
  _atom_site_fract_y
  _atom_site_fract_z
  _atom_site_occupancy
  C   C1        1.0  0.02929  0.52045  0.30242  1.0000
  O   O1        1.0  0.01946  0.58621  0.24423  1.0000
  H   H1        1.0  0.01384  0.60731  0.28498  1.0000
  C   C2        1.0  0.04776  0.57155  0.28817  1.0000
  H   H2        1.0  0.05389  0.47176  0.34273  1.0000
  C   C3        1.0  0.06452  0.50685  0.32652  1.0000
  C   C4        1.0  0.97807  0.48456  0.30252  1.0000
  C   C5        1.0  0.87949  0.41427  0.34012  1.0000
  C   C6        1.0  0.91055  0.39762  0.30857  1.0000
  C   C7        1.0  0.95960  0.43346  0.28824  1.0000
  H   H3        1.0  0.84349  0.38951  0.34993  1.0000
  C   C8        1.0  0.09682  0.60737  0.30841  1.0000
  C   C9        1.0  0.12790  0.59069  0.33967  1.0000
  H   H4        1.0  0.16390  0.61543  0.34966  1.0000
  O   O2        1.0  0.98786  0.41882  0.24409  1.0000
  H   H5        1.0  0.99355  0.39772  0.28474  1.0000
  C   C10       1.0  0.89099  0.34678  0.29557  1.0000
  C   C11       1.0  0.11640  0.65822  0.29549  1.0000
  H   H6        1.0  0.90999  0.33387  0.26119  1.0000
  H   H7        1.0  0.09737  0.67115  0.26123  1.0000
  C   C12       1.0  0.52154  0.49468  0.30256  1.0000
  C   C13       1.0  0.59182  0.46641  0.34022  1.0000
  C   C14       1.0  0.60847  0.51409  0.30854  1.0000
  C   C15       1.0  0.57263  0.52729  0.28819  1.0000
  H   H8        1.0  0.61655  0.45514  0.35021  1.0000
  C   C16       1.0  0.48564  0.51000  0.30254  1.0000
  C   C17       1.0  0.43454  0.47735  0.28824  1.0000
  C   C18       1.0  0.39870  0.49060  0.30833  1.0000
  C   C19       1.0  0.41536  0.53838  0.33945  1.0000
  H   H9        1.0  0.39059  0.54962  0.34916  1.0000
  O   O3        1.0  0.58724  0.57017  0.24396  1.0000
  O   O4        1.0  0.41989  0.43436  0.24438  1.0000
  H   H10       1.0  0.60838  0.59697  0.28453  1.0000
  H   H11       1.0  0.39880  0.40766  0.28518  1.0000
  C   C20       1.0  0.65930  0.54534  0.29548  1.0000
  C   C21       1.0  0.34786  0.45930  0.29544  1.0000
  H   H12       1.0  0.67221  0.57723  0.26103  1.0000
  H   H13       1.0  0.33494  0.42731  0.26129  1.0000
  C   C22       1.0  0.51140  0.02811  0.30270  1.0000
  C   C23       1.0  0.53968  0.12668  0.34033  1.0000
  C   C24       1.0  0.49198  0.09562  0.30874  1.0000
  C   C25       1.0  0.47877  0.04657  0.28841  1.0000
  H   H14       1.0  0.55092  0.16269  0.35013  1.0000
  C   C26       1.0  0.49610  0.97689  0.30256  1.0000
  C   C27       1.0  0.52875  0.95845  0.28835  1.0000
  C   C28       1.0  0.51553  0.90939  0.30856  1.0000
  C   C29       1.0  0.46776  0.87829  0.33975  1.0000
  H   H15       1.0  0.45652  0.84229  0.34970  1.0000
  O   O5        1.0  0.43588  0.01831  0.24422  1.0000
  O   O6        1.0  0.57173  0.98677  0.24444  1.0000
  H   H16       1.0  0.40909  0.01262  0.28486  1.0000
  H   H17       1.0  0.59845  0.99240  0.28522  1.0000
  C   C30       1.0  0.46070  0.11518  0.29570  1.0000
  C   C31       1.0  0.54683  0.88984  0.29571  1.0000
  H   H18       1.0  0.42880  0.09617  0.26130  1.0000
  H   H19       1.0  0.57881  0.90889  0.26154  1.0000
  C   C32       1.0  0.18744  0.47865  0.34957  1.0000
  C   C33       1.0  0.18775  0.44234  0.29535  1.0000
  C   C34       1.0  0.22950  0.43692  0.28878  1.0000
  H   H20       1.0  0.15888  0.42286  0.25330  1.0000
  C   C35       1.0  0.23039  0.40233  0.22280  1.0000
  H   H21       1.0  0.19578  0.38143  0.18758  1.0000
  H   H22       1.0  0.23813  0.37658  0.25715  1.0000
  H   H23       1.0  0.25860  0.42222  0.17283  1.0000
  N   N1        1.0  0.15051  0.48871  0.33941  1.0000
  C   C36       1.0  0.52744  0.71004  0.34931  1.0000
  C   C37       1.0  0.56383  0.74674  0.29535  1.0000
  C   C38       1.0  0.56928  0.79392  0.28899  1.0000
  H   H24       1.0  0.58340  0.73739  0.25343  1.0000
  C   C39       1.0  0.60397  0.82951  0.22325  1.0000
  H   H25       1.0  0.62492  0.81585  0.18804  1.0000
  H   H26       1.0  0.62968  0.86294  0.25780  1.0000
  H   H27       1.0  0.58416  0.83791  0.17324  1.0000
  N   N2        1.0  0.51741  0.66307  0.33907  1.0000
  C   C40       1.0  0.29617  0.81865  0.34944  1.0000
  C   C41       1.0  0.25956  0.81826  0.29509  1.0000
  C   C42       1.0  0.21236  0.77655  0.28869  1.0000
  H   H28       1.0  0.26890  0.84718  0.25319  1.0000
  C   C43       1.0  0.17685  0.77564  0.22276  1.0000
  H   H29       1.0  0.19055  0.81022  0.18745  1.0000
  H   H30       1.0  0.14339  0.76796  0.25717  1.0000
  H   H31       1.0  0.16847  0.74738  0.17286  1.0000
  N   N3        1.0  0.34315  0.85560  0.33932  1.0000
  C   C44       1.0  0.81984  0.52622  0.34958  1.0000
  C   C45       1.0  0.81942  0.56241  0.29515  1.0000
  C   C46       1.0  0.77765  0.56777  0.28861  1.0000
  H   H32       1.0  0.84823  0.58181  0.25293  1.0000
  C   C47       1.0  0.77663  0.60221  0.22242  1.0000
  H   H33       1.0  0.81118  0.62306  0.18700  1.0000
  H   H34       1.0  0.76892  0.62802  0.25663  1.0000
  H   H35       1.0  0.74835  0.58221  0.17262  1.0000
  N   N4        1.0  0.85679  0.51619  0.33943  1.0000
  C   C48       1.0  0.47984  0.29485  0.34996  1.0000
  C   C49       1.0  0.44365  0.25826  0.29553  1.0000
  C   C50       1.0  0.43828  0.21111  0.28893  1.0000
  H   H36       1.0  0.42423  0.26767  0.25335  1.0000
  C   C51       1.0  0.40382  0.17567  0.22275  1.0000
  H   H37       1.0  0.38295  0.18938  0.18741  1.0000
  H   H38       1.0  0.37803  0.14215  0.25695  1.0000
  H   H39       1.0  0.42381  0.16741  0.17290  1.0000
  N   N5        1.0  0.48989  0.34183  0.33984  1.0000
  C   C52       1.0  0.71127  0.18633  0.34967  1.0000
  C   C53       1.0  0.74787  0.18670  0.29531  1.0000
  C   C54       1.0  0.79504  0.22844  0.28881  1.0000
  H   H40       1.0  0.73845  0.15782  0.25325  1.0000
  C   C55       1.0  0.83050  0.22939  0.22271  1.0000
  H   H41       1.0  0.81678  0.19482  0.18735  1.0000
  H   H42       1.0  0.86400  0.23708  0.25698  1.0000
  H   H43       1.0  0.83882  0.25765  0.17286  1.0000
  N   N6        1.0  0.66429  0.14938  0.33963  1.0000
  C   C56       1.0  0.94285  0.49811  0.32680  1.0000
  C   C57       1.0  0.89367  0.46393  0.34469  1.0000
  H   H44       1.0  0.95343  0.53324  0.34268  1.0000
  C   C58       1.0  0.11370  0.54104  0.34443  1.0000
  C   C59       1.0  0.14988  0.52923  0.36700  1.0000
  C   C60       1.0  0.85747  0.47573  0.36721  1.0000
  H   H45       1.0  0.18235  0.55738  0.38891  1.0000
  H   H46       1.0  0.82502  0.44758  0.38922  1.0000
  C   C61       1.0  0.50796  0.44589  0.32686  1.0000
  C   C62       1.0  0.54216  0.43094  0.34495  1.0000
  H   H47       1.0  0.47287  0.42144  0.34313  1.0000
  C   C63       1.0  0.46502  0.57385  0.34412  1.0000
  C   C64       1.0  0.49920  0.55881  0.32658  1.0000
  H   H48       1.0  0.53434  0.58334  0.34239  1.0000
  C   C65       1.0  0.47682  0.62188  0.36627  1.0000
  C   C66       1.0  0.53032  0.38296  0.36773  1.0000
  H   H49       1.0  0.44864  0.62623  0.38790  1.0000
  H   H50       1.0  0.55850  0.37874  0.38987  1.0000
  C   C67       1.0  0.56017  0.06333  0.32702  1.0000
  C   C68       1.0  0.57516  0.11251  0.34492  1.0000
  H   H51       1.0  0.58471  0.05275  0.34292  1.0000
  C   C69       1.0  0.43229  0.89247  0.34448  1.0000
  C   C70       1.0  0.44727  0.94165  0.32659  1.0000
  H   H52       1.0  0.42279  0.95226  0.34278  1.0000
  C   C71       1.0  0.38430  0.85627  0.36701  1.0000
  C   C72       1.0  0.62315  0.14870  0.36744  1.0000
  H   H53       1.0  0.38000  0.82381  0.38895  1.0000
  H   H54       1.0  0.62746  0.18116  0.38941  1.0000
  C   C73       1.0  0.27124  0.46731  0.34144  1.0000
  C   C74       1.0  0.26922  0.49970  0.40479  1.0000
  C   C75       1.0  0.22795  0.50553  0.40623  1.0000
  H   H55       1.0  0.22754  0.52982  0.45069  1.0000
  C   C76       1.0  0.30876  0.52907  0.47009  1.0000
  H   H56       1.0  0.33575  0.51755  0.47480  1.0000
  H   H57       1.0  0.29345  0.52536  0.53713  1.0000
  H   H58       1.0  0.32704  0.56741  0.45088  1.0000
  N   N7        1.0  0.31526  0.47095  0.32872  1.0000
  C   C77       1.0  0.53885  0.80522  0.34165  1.0000
  C   C78       1.0  0.50636  0.77070  0.40475  1.0000
  C   C79       1.0  0.50050  0.72360  0.40598  1.0000
  H   H59       1.0  0.47616  0.69884  0.45031  1.0000
  C   C80       1.0  0.47693  0.78079  0.47005  1.0000
  H   H60       1.0  0.48852  0.81932  0.47504  1.0000
  H   H61       1.0  0.48051  0.76904  0.53704  1.0000
  H   H62       1.0  0.43862  0.76084  0.45064  1.0000
  N   N8        1.0  0.53516  0.84558  0.32899  1.0000
  C   C81       1.0  0.20100  0.73486  0.34150  1.0000
  C   C82       1.0  0.23545  0.73690  0.40479  1.0000
  C   C83       1.0  0.28254  0.77816  0.40616  1.0000
  H   H63       1.0  0.30724  0.77861  0.45068  1.0000
  C   C84       1.0  0.22529  0.69741  0.47019  1.0000
  H   H64       1.0  0.18677  0.67043  0.47500  1.0000
  H   H65       1.0  0.23693  0.71276  0.53719  1.0000
  H   H66       1.0  0.24532  0.67909  0.45102  1.0000
  N   N9        1.0  0.16064  0.69080  0.32884  1.0000
  C   C85       1.0  0.73599  0.53750  0.34158  1.0000
  C   C86       1.0  0.73812  0.50521  0.40504  1.0000
  C   C87       1.0  0.77940  0.49941  0.40643  1.0000
  H   H67       1.0  0.77989  0.47522  0.45103  1.0000
  C   C88       1.0  0.69868  0.47595  0.47059  1.0000
  H   H68       1.0  0.67169  0.48748  0.47534  1.0000
  H   H69       1.0  0.71409  0.47978  0.53757  1.0000
  H   H70       1.0  0.68037  0.43758  0.45161  1.0000
  N   N10       1.0  0.69191  0.53375  0.32894  1.0000
  C   C89       1.0  0.46860  0.19975  0.34179  1.0000
  C   C90       1.0  0.50087  0.23413  0.40532  1.0000
  C   C91       1.0  0.50666  0.28120  0.40678  1.0000
  H   H71       1.0  0.53087  0.30588  0.45135  1.0000
  C   C92       1.0  0.53015  0.22393  0.47078  1.0000
  H   H72       1.0  0.51863  0.18541  0.47547  1.0000
  H   H73       1.0  0.52634  0.23549  0.53780  1.0000
  H   H74       1.0  0.56852  0.24401  0.45176  1.0000
  N   N11       1.0  0.47230  0.15939  0.32911  1.0000
  C   C93       1.0  0.80643  0.27011  0.34170  1.0000
  C   C94       1.0  0.77202  0.26804  0.40511  1.0000
  C   C95       1.0  0.72493  0.22678  0.40652  1.0000
  H   H75       1.0  0.70025  0.22633  0.45109  1.0000
  C   C96       1.0  0.78222  0.30751  0.47059  1.0000
  H   H76       1.0  0.82075  0.33450  0.47532  1.0000
  H   H77       1.0  0.77064  0.29214  0.53759  1.0000
  H   H78       1.0  0.76217  0.32583  0.45155  1.0000
  N   N12       1.0  0.84678  0.31417  0.32900  1.0000
