data_image0
_chemical_formula_structural       C4NOCHC4NOCHC2NOCHC2NOCHC2NOCHC2NOCHC4NOCHC4NOCHC4NOCHC4NOCHC2NOCHC2NOCHC2NOCHC2NOCHC4NOCHC4NOCHC4NOCHC4NOCHCNCNCNCNCNCNCNCNCNCNCNCNCNCNCNCNCNCNCNCNCNCNCNCNCNCNCNCNCNCNCNCNCNCNCNCNC2NOCHC2NOCHC4NOCHC4NOCHC4NOCHC4NOCHC2NOCHC2NOCHC2NOCHC2NOCHC4NOCHC4NOCHC4NOCHC4NOCHC2NOCHC2NOCHC2NOCHC2NOCH
_chemical_formula_sum              "C180 N72 O36 H36"
_cell_length_a       34.2797
_cell_length_b       34.1189
_cell_length_c       14.8981
_cell_angle_alpha    90
_cell_angle_beta     90
_cell_angle_gamma    90.2769

_space_group_name_H-M_alt    "P 1"
_space_group_IT_number       1

loop_
  _space_group_symop_operation_xyz
  'x, y, z'

loop_
  _atom_site_type_symbol
  _atom_site_label
  _atom_site_symmetry_multiplicity
  _atom_site_fract_x
  _atom_site_fract_y
  _atom_site_fract_z
  _atom_site_occupancy
  C   C1        1.0  0.97052  0.53125  0.34036  1.0000
  C   C2        1.0  0.01035  0.54002  0.32318  1.0000
  C   C3        1.0  0.03920  0.51101  0.32415  1.0000
  C   C4        1.0  0.03115  0.47098  0.34238  1.0000
  N   N1        1.0  0.07284  0.52875  0.30444  1.0000
  O   O1        1.0  0.02588  0.57580  0.30284  1.0000
  C   C5        1.0  0.06434  0.56668  0.29245  1.0000
  H   H1        1.0  0.08499  0.58714  0.27622  1.0000
  C   C6        1.0  0.47080  0.97138  0.35251  1.0000
  C   C7        1.0  0.46258  0.01138  0.33499  1.0000
  C   C8        1.0  0.49194  0.04016  0.33439  1.0000
  C   C9        1.0  0.53178  0.03188  0.35135  1.0000
  N   N2        1.0  0.47472  0.07393  0.31389  1.0000
  O   O2        1.0  0.42712  0.02708  0.31484  1.0000
  C   C10       1.0  0.43675  0.06561  0.30336  1.0000
  H   H2        1.0  0.41671  0.08636  0.28639  1.0000
  C   C11       1.0  0.02265  0.27836  0.32568  1.0000
  C   C12       1.0  0.03178  0.31848  0.32667  1.0000
  N   N3        1.0  0.99975  0.33751  0.30148  1.0000
  O   O3        1.0  0.98491  0.27226  0.30001  1.0000
  C   C13       1.0  0.97261  0.30985  0.28683  1.0000
  H   H3        1.0  0.94505  0.31633  0.26576  1.0000
  C   C14       1.0  0.97908  0.72382  0.32001  1.0000
  C   C15       1.0  0.96972  0.68375  0.32098  1.0000
  N   N4        1.0  0.00089  0.66474  0.29060  1.0000
  O   O4        1.0  0.01610  0.72991  0.28932  1.0000
  C   C16       1.0  0.02779  0.69234  0.27318  1.0000
  H   H4        1.0  0.05467  0.68584  0.24793  1.0000
  C   C17       1.0  0.73869  0.08722  0.31401  1.0000
  C   C18       1.0  0.69884  0.09602  0.31383  1.0000
  N   N5        1.0  0.69555  0.13226  0.28161  1.0000
  O   O5        1.0  0.76028  0.11798  0.28234  1.0000
  C   C19       1.0  0.73186  0.14462  0.26391  1.0000
  H   H5        1.0  0.73778  0.17172  0.23808  1.0000
  C   C20       1.0  0.26413  0.91366  0.32213  1.0000
  C   C21       1.0  0.30403  0.90502  0.32344  1.0000
  N   N6        1.0  0.30746  0.86759  0.29913  1.0000
  O   O6        1.0  0.24265  0.88165  0.29741  1.0000
  C   C22       1.0  0.27115  0.85447  0.28445  1.0000
  H   H6        1.0  0.26528  0.82640  0.26473  1.0000
  C   C23       1.0  0.43272  0.83310  0.35444  1.0000
  C   C24       1.0  0.47084  0.81928  0.33601  1.0000
  C   C25       1.0  0.47960  0.77917  0.33573  1.0000
  C   C26       1.0  0.45148  0.74960  0.35385  1.0000
  N   N7        1.0  0.51710  0.77611  0.31335  1.0000
  O   O7        1.0  0.50267  0.84134  0.31380  1.0000
  C   C27       1.0  0.53007  0.81289  0.30167  1.0000
  H   H7        1.0  0.55805  0.81911  0.28282  1.0000
  C   C28       1.0  0.57048  0.16986  0.33904  1.0000
  C   C29       1.0  0.59825  0.19912  0.31574  1.0000
  C   C30       1.0  0.58869  0.23896  0.31288  1.0000
  C   C31       1.0  0.55097  0.25326  0.33335  1.0000
  N   N8        1.0  0.62059  0.25811  0.28591  1.0000
  O   O8        1.0  0.63601  0.19337  0.29051  1.0000
  C   C32       1.0  0.64803  0.23082  0.27373  1.0000
  H   H8        1.0  0.67556  0.23745  0.25232  1.0000
  C   C33       1.0  0.83288  0.56868  0.34845  1.0000
  C   C34       1.0  0.81838  0.53157  0.32112  1.0000
  C   C35       1.0  0.77827  0.52319  0.31903  1.0000
  C   C36       1.0  0.74933  0.55063  0.34460  1.0000
  N   N9        1.0  0.77458  0.48675  0.28788  1.0000
  O   O9        1.0  0.83977  0.50068  0.29088  1.0000
  C   C37       1.0  0.81094  0.47409  0.27254  1.0000
  H   H9        1.0  0.81662  0.44688  0.24739  1.0000
  C   C38       1.0  0.16905  0.43295  0.34349  1.0000
  C   C39       1.0  0.19753  0.40429  0.32274  1.0000
  C   C40       1.0  0.23746  0.41303  0.32222  1.0000
  C   C41       1.0  0.25265  0.45078  0.34237  1.0000
  N   N10       1.0  0.25575  0.38029  0.29788  1.0000
  O   O10       1.0  0.19086  0.36627  0.29836  1.0000
  C   C42       1.0  0.22792  0.35319  0.28521  1.0000
  H   H10       1.0  0.23390  0.32532  0.26467  1.0000
  C   C43       1.0  0.12745  0.11087  0.32118  1.0000
  C   C44       1.0  0.15023  0.07678  0.32116  1.0000
  N   N11       1.0  0.17760  0.08160  0.25871  1.0000
  O   O11       1.0  0.14014  0.13695  0.25830  1.0000
  C   C45       1.0  0.17191  0.11761  0.22500  1.0000
  H   H11       1.0  0.18788  0.12825  0.17247  1.0000
  C   C46       1.0  0.87500  0.89124  0.32381  1.0000
  C   C47       1.0  0.85218  0.92531  0.32451  1.0000
  N   N12       1.0  0.82442  0.92038  0.26303  1.0000
  O   O12       1.0  0.86172  0.86491  0.26216  1.0000
  C   C48       1.0  0.82978  0.88424  0.22969  1.0000
  H   H12       1.0  0.81343  0.87348  0.17791  1.0000
  C   C49       1.0  0.92028  0.08387  0.25972  1.0000
  C   C50       1.0  0.95429  0.10648  0.26062  1.0000
  N   N13       1.0  0.97949  0.08917  0.20541  1.0000
  O   O13       1.0  0.92385  0.05220  0.20448  1.0000
  C   C51       1.0  0.96078  0.05776  0.17223  1.0000
  H   H13       1.0  0.97364  0.03868  0.12867  1.0000
  C   C52       1.0  0.08118  0.91975  0.25917  1.0000
  C   C53       1.0  0.04720  0.89711  0.26048  1.0000
  N   N14       1.0  0.02128  0.91532  0.20867  1.0000
  O   O14       1.0  0.07682  0.95237  0.20722  1.0000
  C   C54       1.0  0.03948  0.94734  0.17719  1.0000
  H   H14       1.0  0.02604  0.96714  0.13632  1.0000
  C   C55       1.0  0.36296  0.54273  0.31444  1.0000
  C   C56       1.0  0.39474  0.54947  0.25543  1.0000
  C   C57       1.0  0.41780  0.58314  0.26183  1.0000
  C   C58       1.0  0.41044  0.61310  0.32504  1.0000
  N   N15       1.0  0.44693  0.57925  0.20328  1.0000
  O   O15       1.0  0.40915  0.52432  0.19259  1.0000
  C   C59       1.0  0.44091  0.54474  0.16248  1.0000
  H   H15       1.0  0.45956  0.53381  0.11541  1.0000
  C   C60       1.0  0.63854  0.46063  0.30405  1.0000
  C   C61       1.0  0.60609  0.45774  0.24572  1.0000
  C   C62       1.0  0.58289  0.42407  0.24290  1.0000
  C   C63       1.0  0.59037  0.39058  0.29637  1.0000
  N   N16       1.0  0.55368  0.43164  0.18653  1.0000
  O   O16       1.0  0.59146  0.48668  0.19239  1.0000
  C   C64       1.0  0.55954  0.46828  0.15697  1.0000
  H   H16       1.0  0.54092  0.48179  0.11349  1.0000
  C   C65       1.0  0.54415  0.64106  0.36964  1.0000
  C   C66       1.0  0.57509  0.64975  0.30980  1.0000
  C   C67       1.0  0.60864  0.62636  0.30693  1.0000
  C   C68       1.0  0.61422  0.59406  0.36503  1.0000
  N   N17       1.0  0.62944  0.63808  0.23633  1.0000
  O   O17       1.0  0.57443  0.67585  0.24066  1.0000
  C   C69       1.0  0.60932  0.66780  0.20005  1.0000
  H   H17       1.0  0.61813  0.68158  0.14266  1.0000
  C   C70       1.0  0.45595  0.35877  0.29646  1.0000
  C   C71       1.0  0.44795  0.38727  0.23001  1.0000
  C   C72       1.0  0.41463  0.41046  0.23427  1.0000
  C   C73       1.0  0.38646  0.40642  0.30304  1.0000
  N   N18       1.0  0.41721  0.43642  0.16771  1.0000
  O   O18       1.0  0.47174  0.39855  0.16124  1.0000
  C   C74       1.0  0.45060  0.42843  0.12481  1.0000
  H   H18       1.0  0.46049  0.44479  0.07208  1.0000
  C   C75       1.0  0.12835  0.42369  0.34468  1.0000
  N   N19       1.0  0.09963  0.45116  0.34350  1.0000
  C   C76       1.0  0.06087  0.44165  0.34390  1.0000
  N   N20       1.0  0.05155  0.40273  0.34572  1.0000
  C   C77       1.0  0.07882  0.37390  0.34760  1.0000
  N   N21       1.0  0.11666  0.38565  0.34686  1.0000
  C   C78       1.0  0.87344  0.57857  0.34725  1.0000
  N   N22       1.0  0.90220  0.55121  0.34372  1.0000
  C   C79       1.0  0.94092  0.56072  0.34167  1.0000
  N   N23       1.0  0.95020  0.59963  0.34294  1.0000
  C   C80       1.0  0.92290  0.62843  0.34656  1.0000
  N   N24       1.0  0.88498  0.61671  0.34858  1.0000
  C   C81       1.0  0.58019  0.12916  0.34198  1.0000
  N   N25       1.0  0.55267  0.10030  0.34598  1.0000
  C   C82       1.0  0.56159  0.06141  0.34903  1.0000
  N   N26       1.0  0.60021  0.05196  0.34802  1.0000
  C   C83       1.0  0.62922  0.07930  0.34373  1.0000
  N   N27       1.0  0.61803  0.11745  0.34082  1.0000
  C   C84       1.0  0.42296  0.87376  0.35312  1.0000
  N   N28       1.0  0.45034  0.90280  0.35361  1.0000
  C   C85       1.0  0.44117  0.94166  0.35219  1.0000
  N   N29       1.0  0.40250  0.95082  0.34985  1.0000
  C   C86       1.0  0.37365  0.92325  0.34876  1.0000
  N   N30       1.0  0.38508  0.88520  0.35054  1.0000
  C   C87       1.0  0.99670  0.15560  0.33102  1.0000
  N   N31       1.0  0.00497  0.19460  0.33357  1.0000
  C   C88       1.0  0.04218  0.20827  0.34555  1.0000
  N   N32       1.0  0.07111  0.18120  0.35640  1.0000
  C   C89       1.0  0.06376  0.14204  0.35662  1.0000
  N   N33       1.0  0.02646  0.13025  0.34339  1.0000
  C   C90       1.0  0.00577  0.84660  0.32886  1.0000
  N   N34       1.0  0.99756  0.80757  0.33130  1.0000
  C   C91       1.0  0.96044  0.79387  0.34462  1.0000
  N   N35       1.0  0.93154  0.82087  0.35682  1.0000
  C   C92       1.0  0.93884  0.86002  0.35729  1.0000
  N   N36       1.0  0.97602  0.87183  0.34281  1.0000
  C   C93       1.0  0.84597  0.99632  0.36022  1.0000
  N   N37       1.0  0.80710  0.00432  0.35782  1.0000
  C   C94       1.0  0.79361  0.04159  0.34460  1.0000
  N   N38       1.0  0.82062  0.07077  0.33272  1.0000
  C   C95       1.0  0.85952  0.06364  0.33224  1.0000
  N   N39       1.0  0.87118  0.02637  0.34637  1.0000
  C   C96       1.0  0.15690  0.00592  0.35768  1.0000
  N   N40       1.0  0.19570  0.99764  0.35650  1.0000
  C   C97       1.0  0.20908  0.96031  0.34355  1.0000
  N   N41       1.0  0.18194  0.93131  0.33060  1.0000
  C   C98       1.0  0.14306  0.93870  0.32875  1.0000
  N   N42       1.0  0.13162  0.97604  0.34299  1.0000
  C   C99       1.0  0.50633  0.65676  0.35934  1.0000
  N   N43       1.0  0.49788  0.69568  0.35958  1.0000
  C   C100      1.0  0.46035  0.70876  0.35231  1.0000
  N   N44       1.0  0.43131  0.68144  0.34299  1.0000
  C   C101      1.0  0.43893  0.64243  0.34037  1.0000
  N   N45       1.0  0.47650  0.63101  0.34896  1.0000
  C   C102      1.0  0.49426  0.34404  0.30542  1.0000
  N   N46       1.0  0.50353  0.30586  0.31969  1.0000
  C   C103      1.0  0.54145  0.29388  0.32597  1.0000
  N   N47       1.0  0.57010  0.32178  0.31860  1.0000
  C   C104      1.0  0.56200  0.36026  0.30442  1.0000
  N   N48       1.0  0.52392  0.37017  0.29827  1.0000
  C   C105      1.0  0.65530  0.49783  0.32155  1.0000
  N   N49       1.0  0.69428  0.50543  0.32596  1.0000
  C   C106      1.0  0.70837  0.54246  0.34082  1.0000
  N   N50       1.0  0.68181  0.57186  0.35199  1.0000
  C   C107      1.0  0.64278  0.56513  0.34988  1.0000
  N   N51       1.0  0.63043  0.52805  0.33457  1.0000
  C   C108      1.0  0.34617  0.50472  0.32104  1.0000
  N   N52       1.0  0.30756  0.49685  0.33390  1.0000
  C   C109      1.0  0.29353  0.45923  0.33763  1.0000
  N   N53       1.0  0.31977  0.42941  0.32896  1.0000
  C   C110      1.0  0.35841  0.43609  0.31638  1.0000
  N   N54       1.0  0.37052  0.47380  0.31236  1.0000
  C   C111      1.0  0.99128  0.46217  0.35900  1.0000
  C   C112      1.0  0.96245  0.49118  0.35807  1.0000
  N   N55       1.0  0.92883  0.47347  0.37821  1.0000
  O   O19       1.0  0.97576  0.42640  0.37973  1.0000
  C   C113      1.0  0.93731  0.43553  0.39014  1.0000
  H   H19       1.0  0.91667  0.41511  0.40676  1.0000
  C   C114      1.0  0.53995  0.99191  0.36936  1.0000
  C   C115      1.0  0.51061  0.96313  0.36991  1.0000
  N   N56       1.0  0.52785  0.92931  0.38998  1.0000
  O   O20       1.0  0.57543  0.97617  0.38910  1.0000
  C   C116      1.0  0.56580  0.93765  0.40072  1.0000
  H   H20       1.0  0.58591  0.91683  0.41680  1.0000
  C   C117      1.0  0.06927  0.33313  0.34903  1.0000
  C   C118      1.0  0.09724  0.30417  0.37123  1.0000
  C   C119      1.0  0.08815  0.26412  0.37020  1.0000
  C   C120      1.0  0.05073  0.24936  0.34709  1.0000
  N   N57       1.0  0.12041  0.24527  0.39473  1.0000
  O   O21       1.0  0.13496  0.31040  0.39699  1.0000
  C   C121      1.0  0.14751  0.27293  0.40954  1.0000
  H   H21       1.0  0.17516  0.26652  0.43007  1.0000
  C   C122      1.0  0.93276  0.66915  0.34789  1.0000
  C   C123      1.0  0.90570  0.69814  0.37509  1.0000
  C   C124      1.0  0.91500  0.73814  0.37420  1.0000
  C   C125      1.0  0.95180  0.75283  0.34618  1.0000
  N   N58       1.0  0.88368  0.75704  0.40435  1.0000
  O   O22       1.0  0.86881  0.69202  0.40636  1.0000
  C   C126      1.0  0.85692  0.72944  0.42241  1.0000
  H   H22       1.0  0.82992  0.73586  0.44712  1.0000
  C   C127      1.0  0.66963  0.06922  0.34229  1.0000
  C   C128      1.0  0.68363  0.03208  0.36983  1.0000
  C   C129      1.0  0.72358  0.02326  0.37028  1.0000
  C   C130      1.0  0.75283  0.05029  0.34293  1.0000
  N   N59       1.0  0.72680  0.98686  0.40173  1.0000
  O   O23       1.0  0.66191  0.00148  0.40137  1.0000
  C   C131      1.0  0.69033  0.97463  0.41887  1.0000
  H   H23       1.0  0.68430  0.94753  0.44455  1.0000
  C   C132      1.0  0.33317  0.93295  0.34611  1.0000
  C   C133      1.0  0.31907  0.97089  0.36669  1.0000
  C   C134      1.0  0.27909  0.97953  0.36574  1.0000
  C   C135      1.0  0.24988  0.95151  0.34372  1.0000
  N   N60       1.0  0.27583  0.01698  0.38987  1.0000
  O   O24       1.0  0.34076  0.00264  0.39178  1.0000
  C   C136      1.0  0.31227  0.02995  0.40419  1.0000
  H   H24       1.0  0.31823  0.05793  0.42447  1.0000
  C   C137      1.0  0.41344  0.76344  0.37304  1.0000
  C   C138      1.0  0.40470  0.80349  0.37346  1.0000
  N   N61       1.0  0.36715  0.80645  0.39548  1.0000
  O   O25       1.0  0.38155  0.74136  0.39496  1.0000
  C   C139      1.0  0.35413  0.76972  0.40721  1.0000
  H   H25       1.0  0.32607  0.76349  0.42537  1.0000
  C   C140      1.0  0.52314  0.22406  0.35666  1.0000
  C   C141      1.0  0.53272  0.18414  0.35934  1.0000
  N   N62       1.0  0.50061  0.16491  0.38437  1.0000
  O   O26       1.0  0.48511  0.22985  0.37975  1.0000
  C   C142      1.0  0.47309  0.19225  0.39568  1.0000
  H   H26       1.0  0.44534  0.18551  0.41538  1.0000
  C   C143      1.0  0.76396  0.58745  0.37379  1.0000
  C   C144      1.0  0.80397  0.59583  0.37542  1.0000
  N   N63       1.0  0.80771  0.63218  0.40698  1.0000
  O   O27       1.0  0.74274  0.61854  0.40388  1.0000
  C   C145      1.0  0.77152  0.64496  0.42299  1.0000
  H   H27       1.0  0.76594  0.67224  0.44792  1.0000
  C   C146      1.0  0.22418  0.47950  0.36280  1.0000
  C   C147      1.0  0.18413  0.47071  0.36329  1.0000
  N   N64       1.0  0.16564  0.50349  0.38606  1.0000
  O   O28       1.0  0.23081  0.51772  0.38496  1.0000
  C   C148      1.0  0.19357  0.53061  0.39824  1.0000
  H   H28       1.0  0.18747  0.55877  0.41645  1.0000
  C   C149      1.0  0.14048  0.04333  0.37281  1.0000
  C   C150      1.0  0.10690  0.04665  0.42763  1.0000
  C   C151      1.0  0.08356  0.08001  0.42541  1.0000
  C   C152      1.0  0.09227  0.11282  0.37076  1.0000
  N   N65       1.0  0.05268  0.07268  0.47728  1.0000
  O   O29       1.0  0.09076  0.01810  0.48016  1.0000
  C   C153      1.0  0.05798  0.03654  0.51019  1.0000
  H   H29       1.0  0.03788  0.02296  0.55023  1.0000
  C   C154      1.0  0.86252  0.95893  0.37497  1.0000
  C   C155      1.0  0.89639  0.95562  0.42885  1.0000
  C   C156      1.0  0.91961  0.92219  0.42623  1.0000
  C   C157      1.0  0.91044  0.88925  0.37241  1.0000
  N   N66       1.0  0.95073  0.92945  0.47735  1.0000
  O   O30       1.0  0.91284  0.98417  0.48089  1.0000
  C   C158      1.0  0.94585  0.96576  0.50964  1.0000
  H   H30       1.0  0.96587  0.97909  0.55033  1.0000
  C   C159      1.0  0.95911  0.13945  0.31725  1.0000
  C   C160      1.0  0.92658  0.14956  0.37088  1.0000
  C   C161      1.0  0.89283  0.12613  0.37183  1.0000
  C   C162      1.0  0.88869  0.09232  0.31759  1.0000
  N   N67       1.0  0.87017  0.13953  0.43745  1.0000
  O   O31       1.0  0.92548  0.17738  0.43637  1.0000
  C   C163      1.0  0.88944  0.17024  0.47258  1.0000
  H   H31       1.0  0.87914  0.18541  0.52662  1.0000
  C   C164      1.0  0.04319  0.86307  0.31409  1.0000
  C   C165      1.0  0.07656  0.85190  0.36372  1.0000
  C   C166      1.0  0.11037  0.87526  0.36422  1.0000
  C   C167      1.0  0.11357  0.91029  0.31386  1.0000
  N   N68       1.0  0.13415  0.86030  0.42585  1.0000
  O   O32       1.0  0.07880  0.82250  0.42530  1.0000
  C   C168      1.0  0.11557  0.82865  0.45852  1.0000
  H   H32       1.0  0.12658  0.81250  0.51025  1.0000
  C   C169      1.0  0.37689  0.60807  0.37928  1.0000
  C   C170      1.0  0.35442  0.57360  0.37476  1.0000
  N   N69       1.0  0.32856  0.57528  0.44129  1.0000
  O   O33       1.0  0.36559  0.63121  0.44896  1.0000
  C   C171      1.0  0.33485  0.60986  0.48193  1.0000
  H   H33       1.0  0.32003  0.61801  0.53830  1.0000
  C   C172      1.0  0.62463  0.39234  0.34955  1.0000
  C   C173      1.0  0.64757  0.42650  0.35366  1.0000
  N   N70       1.0  0.67416  0.42089  0.41740  1.0000
  O   O34       1.0  0.63673  0.36524  0.41052  1.0000
  C   C174      1.0  0.66804  0.38431  0.44763  1.0000
  H   H34       1.0  0.68345  0.37288  0.50000  1.0000
  C   C175      1.0  0.58417  0.58686  0.42802  1.0000
  C   C176      1.0  0.55031  0.60940  0.42925  1.0000
  N   N71       1.0  0.52657  0.59338  0.48998  1.0000
  O   O35       1.0  0.58194  0.55648  0.48729  1.0000
  C   C177      1.0  0.54600  0.56279  0.52415  1.0000
  H   H35       1.0  0.53425  0.54474  0.57173  1.0000
  C   C178      1.0  0.39256  0.37559  0.36501  1.0000
  C   C179      1.0  0.42673  0.35311  0.36238  1.0000
  N   N72       1.0  0.42680  0.33083  0.43573  1.0000
  O   O36       1.0  0.37129  0.36786  0.44020  1.0000
  C   C180      1.0  0.39352  0.33925  0.47897  1.0000
  H   H36       1.0  0.38645  0.32688  0.53925  1.0000
