data_image0
_chemical_formula_structural       C2NCNO2C2NCNO2C2NCNO2NCHNCHNCHNCHNCHNCHNC18H12NC18H12NC18H12NC18H12NC18H12NC18H12NCHNCHNCHC2NCNO2C2NCNO2C2NCNO2C2NCNO2C2NCNO2C2NCNO2
_chemical_formula_sum              "C144 N33 O18 H81"
_cell_length_a       52.3058
_cell_length_b       52.3058
_cell_length_c       14.8638
_cell_angle_alpha    90
_cell_angle_beta     90
_cell_angle_gamma    120

_space_group_name_H-M_alt    "P 1"
_space_group_IT_number       1

loop_
  _space_group_symop_operation_xyz
  'x, y, z'

loop_
  _atom_site_type_symbol
  _atom_site_label
  _atom_site_symmetry_multiplicity
  _atom_site_fract_x
  _atom_site_fract_y
  _atom_site_fract_z
  _atom_site_occupancy
  C   C1        1.0  0.03806  0.52048  0.33949  1.0000
  C   C2        1.0  0.97554  0.48850  0.34914  1.0000
  N   N1        1.0  0.99048  0.50338  0.27402  1.0000
  C   C3        1.0  0.02045  0.51913  0.26497  1.0000
  N   N2        1.0  0.03296  0.53465  0.18457  1.0000
  O   O1        1.0  0.02488  0.55322  0.17060  1.0000
  O   O2        1.0  0.02468  0.51711  0.11917  1.0000
  C   C4        1.0  0.49113  0.52013  0.33804  1.0000
  C   C5        1.0  0.52303  0.48952  0.34785  1.0000
  N   N3        1.0  0.50799  0.48940  0.27291  1.0000
  C   C6        1.0  0.49225  0.50364  0.26384  1.0000
  N   N4        1.0  0.47651  0.50041  0.18374  1.0000
  O   O3        1.0  0.49387  0.50943  0.11786  1.0000
  O   O4        1.0  0.45786  0.47373  0.17064  1.0000
  C   C7        1.0  0.49109  0.97338  0.33477  1.0000
  C   C8        1.0  0.52144  0.03573  0.34621  1.0000
  N   N5        1.0  0.52631  0.02093  0.27908  1.0000
  C   C9        1.0  0.51251  0.99111  0.26927  1.0000
  N   N6        1.0  0.52259  0.98130  0.19644  1.0000
  O   O5        1.0  0.50352  0.96977  0.13580  1.0000
  O   O6        1.0  0.53081  0.96355  0.22081  1.0000
  N   N7        1.0  0.27340  0.56645  0.28160  1.0000
  C   C10       1.0  0.29970  0.56758  0.27166  1.0000
  H   H1        1.0  0.31264  0.57895  0.21819  1.0000
  N   N8        1.0  0.44488  0.70949  0.27832  1.0000
  C   C11       1.0  0.44372  0.73463  0.26845  1.0000
  H   H2        1.0  0.43188  0.73601  0.21599  1.0000
  N   N9        1.0  0.30224  0.73794  0.28002  1.0000
  C   C12       1.0  0.27708  0.71161  0.27071  1.0000
  H   H3        1.0  0.27564  0.69833  0.21838  1.0000
  N   N10       1.0  0.74152  0.44357  0.27501  1.0000
  C   C13       1.0  0.71527  0.44249  0.26441  1.0000
  H   H4        1.0  0.70261  0.43128  0.21034  1.0000
  N   N11       1.0  0.56772  0.30012  0.27655  1.0000
  C   C14       1.0  0.56877  0.27491  0.26647  1.0000
  H   H5        1.0  0.57983  0.27324  0.21231  1.0000
  N   N12       1.0  0.71111  0.27015  0.27548  1.0000
  C   C15       1.0  0.73628  0.29641  0.26507  1.0000
  H   H6        1.0  0.73765  0.30927  0.21167  1.0000
  N   N13       1.0  0.16436  0.58294  0.35079  1.0000
  C   C16       1.0  0.18104  0.61421  0.34483  1.0000
  C   C17       1.0  0.13304  0.56736  0.34711  1.0000
  C   C18       1.0  0.18124  0.56849  0.35366  1.0000
  C   C19       1.0  0.19513  0.56826  0.43480  1.0000
  C   C20       1.0  0.21836  0.56200  0.43509  1.0000
  C   C21       1.0  0.22828  0.55539  0.35437  1.0000
  C   C22       1.0  0.21345  0.55460  0.27369  1.0000
  C   C23       1.0  0.19046  0.56120  0.27321  1.0000
  C   C24       1.0  0.19176  0.63120  0.42397  1.0000
  C   C25       1.0  0.21489  0.66069  0.42032  1.0000
  C   C26       1.0  0.22854  0.67405  0.33759  1.0000
  C   C27       1.0  0.21644  0.65728  0.25805  1.0000
  C   C28       1.0  0.19320  0.62782  0.26160  1.0000
  C   C29       1.0  0.11638  0.56752  0.42152  1.0000
  C   C30       1.0  0.08527  0.55207  0.41868  1.0000
  C   C31       1.0  0.06971  0.53618  0.34100  1.0000
  C   C32       1.0  0.08668  0.53580  0.26718  1.0000
  C   C33       1.0  0.11778  0.55122  0.26998  1.0000
  H   H7        1.0  0.22319  0.67148  0.47993  1.0000
  H   H8        1.0  0.18422  0.62150  0.48537  1.0000
  H   H9        1.0  0.18651  0.61571  0.20359  1.0000
  H   H10       1.0  0.22514  0.66590  0.19641  1.0000
  H   H11       1.0  0.19010  0.57515  0.49313  1.0000
  H   H12       1.0  0.22954  0.56490  0.49401  1.0000
  H   H13       1.0  0.12688  0.57888  0.47850  1.0000
  H   H14       1.0  0.07404  0.55297  0.47385  1.0000
  H   H15       1.0  0.07656  0.52368  0.21096  1.0000
  H   H16       1.0  0.12925  0.55055  0.21526  1.0000
  H   H17       1.0  0.18194  0.56274  0.21291  1.0000
  H   H18       1.0  0.22030  0.55067  0.21336  1.0000
  N   N14       1.0  0.42887  0.58418  0.34877  1.0000
  C   C34       1.0  0.39757  0.56959  0.34408  1.0000
  C   C35       1.0  0.44441  0.56841  0.34529  1.0000
  C   C36       1.0  0.44336  0.61553  0.35055  1.0000
  C   C37       1.0  0.44409  0.62993  0.43159  1.0000
  C   C38       1.0  0.45042  0.65943  0.43146  1.0000
  C   C39       1.0  0.45648  0.67568  0.35030  1.0000
  C   C40       1.0  0.45665  0.66132  0.26960  1.0000
  C   C41       1.0  0.45010  0.63174  0.26962  1.0000
  C   C42       1.0  0.38095  0.56382  0.42380  1.0000
  C   C43       1.0  0.35146  0.55748  0.42098  1.0000
  C   C44       1.0  0.33769  0.55719  0.33847  1.0000
  C   C45       1.0  0.35411  0.56138  0.25843  1.0000
  C   C46       1.0  0.38358  0.56763  0.26118  1.0000
  C   C47       1.0  0.44441  0.55178  0.42004  1.0000
  C   C48       1.0  0.45981  0.53608  0.41732  1.0000
  C   C49       1.0  0.47548  0.53614  0.33943  1.0000
  C   C50       1.0  0.47571  0.55329  0.26526  1.0000
  C   C51       1.0  0.46035  0.56903  0.26794  1.0000
  H   H19       1.0  0.34090  0.55527  0.48089  1.0000
  H   H20       1.0  0.39092  0.56634  0.48492  1.0000
  H   H21       1.0  0.39544  0.57269  0.20269  1.0000
  H   H22       1.0  0.34520  0.56105  0.19695  1.0000
  H   H23       1.0  0.43770  0.61824  0.49043  1.0000
  H   H24       1.0  0.44797  0.66795  0.49056  1.0000
  H   H25       1.0  0.43321  0.55112  0.47719  1.0000
  H   H26       1.0  0.45903  0.52410  0.47276  1.0000
  H   H27       1.0  0.48768  0.55511  0.20884  1.0000
  H   H28       1.0  0.46090  0.58103  0.21299  1.0000
  H   H29       1.0  0.44810  0.62145  0.20945  1.0000
  H   H30       1.0  0.46014  0.67186  0.20901  1.0000
  N   N15       1.0  0.42760  0.84740  0.34649  1.0000
  C   C52       1.0  0.44215  0.83066  0.34115  1.0000
  C   C53       1.0  0.44334  0.87874  0.34281  1.0000
  C   C54       1.0  0.39625  0.83051  0.34936  1.0000
  C   C55       1.0  0.38212  0.81707  0.43091  1.0000
  C   C56       1.0  0.35263  0.79385  0.43161  1.0000
  C   C57       1.0  0.33615  0.78349  0.35091  1.0000
  C   C58       1.0  0.35025  0.79784  0.26974  1.0000
  C   C59       1.0  0.37983  0.82085  0.26886  1.0000
  C   C60       1.0  0.44814  0.81988  0.42064  1.0000
  C   C61       1.0  0.45448  0.79673  0.41742  1.0000
  C   C62       1.0  0.45452  0.78319  0.33479  1.0000
  C   C63       1.0  0.45009  0.79534  0.25496  1.0000
  C   C64       1.0  0.44387  0.81858  0.25806  1.0000
  C   C65       1.0  0.46131  0.89543  0.41553  1.0000
  C   C66       1.0  0.47696  0.92654  0.41261  1.0000
  C   C67       1.0  0.47537  0.94192  0.33642  1.0000
  C   C68       1.0  0.45682  0.92510  0.26458  1.0000
  C   C69       1.0  0.44125  0.89401  0.26741  1.0000
  H   H31       1.0  0.45688  0.78844  0.47718  1.0000
  H   H32       1.0  0.44579  0.82737  0.48188  1.0000
  H   H33       1.0  0.43864  0.82534  0.19980  1.0000
  H   H34       1.0  0.45022  0.78668  0.19343  1.0000
  H   H35       1.0  0.39398  0.82253  0.48943  1.0000
  H   H36       1.0  0.34424  0.78309  0.49107  1.0000
  H   H37       1.0  0.46300  0.88495  0.47135  1.0000
  H   H38       1.0  0.48991  0.93791  0.46637  1.0000
  H   H39       1.0  0.45389  0.93535  0.21028  1.0000
  H   H40       1.0  0.42818  0.88254  0.21415  1.0000
  H   H41       1.0  0.38994  0.82899  0.20836  1.0000
  H   H42       1.0  0.33954  0.79064  0.20945  1.0000
  N   N16       1.0  0.84911  0.42560  0.34594  1.0000
  C   C70       1.0  0.83244  0.39439  0.33826  1.0000
  C   C71       1.0  0.88038  0.44116  0.34685  1.0000
  C   C72       1.0  0.83248  0.44025  0.35079  1.0000
  C   C73       1.0  0.81727  0.43882  0.43072  1.0000
  C   C74       1.0  0.79440  0.44558  0.43027  1.0000
  C   C75       1.0  0.78612  0.45415  0.35000  1.0000
  C   C76       1.0  0.80224  0.45653  0.27074  1.0000
  C   C77       1.0  0.82510  0.44972  0.27108  1.0000
  C   C78       1.0  0.82289  0.37697  0.41681  1.0000
  C   C79       1.0  0.79963  0.34752  0.41325  1.0000
  C   C80       1.0  0.78489  0.33454  0.33132  1.0000
  C   C81       1.0  0.79607  0.35176  0.25206  1.0000
  C   C82       1.0  0.81925  0.38124  0.25551  1.0000
  C   C83       1.0  0.89594  0.45094  0.42863  1.0000
  C   C84       1.0  0.92706  0.46627  0.42983  1.0000
  C   C85       1.0  0.94379  0.47262  0.34936  1.0000
  C   C86       1.0  0.92771  0.46290  0.26754  1.0000
  C   C87       1.0  0.89660  0.44727  0.26625  1.0000
  H   H43       1.0  0.79217  0.33644  0.47285  1.0000
  H   H44       1.0  0.83123  0.38638  0.47803  1.0000
  H   H45       1.0  0.82513  0.39370  0.19815  1.0000
  H   H46       1.0  0.78671  0.34353  0.19081  1.0000
  H   H47       1.0  0.82119  0.43058  0.48818  1.0000
  H   H48       1.0  0.78231  0.44175  0.48780  1.0000
  H   H49       1.0  0.88461  0.44687  0.48788  1.0000
  H   H50       1.0  0.93729  0.47337  0.49068  1.0000
  H   H51       1.0  0.93854  0.46670  0.20740  1.0000
  H   H52       1.0  0.88576  0.44048  0.20608  1.0000
  H   H53       1.0  0.83478  0.44951  0.21152  1.0000
  H   H54       1.0  0.79648  0.46186  0.21073  1.0000
  N   N17       1.0  0.58587  0.42593  0.34499  1.0000
  C   C88       1.0  0.61707  0.44045  0.33733  1.0000
  C   C89       1.0  0.57031  0.44165  0.34591  1.0000
  C   C90       1.0  0.57123  0.39466  0.35063  1.0000
  C   C91       1.0  0.57278  0.38105  0.43079  1.0000
  C   C92       1.0  0.56603  0.35142  0.43093  1.0000
  C   C93       1.0  0.55734  0.33437  0.35103  1.0000
  C   C94       1.0  0.55489  0.34796  0.27151  1.0000
  C   C95       1.0  0.56168  0.37762  0.27128  1.0000
  C   C96       1.0  0.63452  0.44850  0.41585  1.0000
  C   C97       1.0  0.66395  0.45463  0.41243  1.0000
  C   C98       1.0  0.67693  0.45274  0.33066  1.0000
  C   C99       1.0  0.65969  0.44656  0.25140  1.0000
  C   C100      1.0  0.63021  0.44027  0.25471  1.0000
  C   C101      1.0  0.56039  0.44733  0.42760  1.0000
  C   C102      1.0  0.54507  0.46313  0.42868  1.0000
  C   C103      1.0  0.53888  0.47363  0.34818  1.0000
  C   C104      1.0  0.54871  0.46735  0.26645  1.0000
  C   C105      1.0  0.56434  0.45186  0.26529  1.0000
  H   H55       1.0  0.67502  0.45835  0.47207  1.0000
  H   H56       1.0  0.62512  0.44750  0.47705  1.0000
  H   H57       1.0  0.61773  0.43357  0.19739  1.0000
  H   H58       1.0  0.66789  0.44533  0.19021  1.0000
  H   H59       1.0  0.58109  0.39333  0.48800  1.0000
  H   H60       1.0  0.56994  0.34330  0.48861  1.0000
  H   H61       1.0  0.56437  0.44000  0.48687  1.0000
  H   H62       1.0  0.53790  0.46623  0.48945  1.0000
  H   H63       1.0  0.54503  0.47448  0.20631  1.0000
  H   H64       1.0  0.57122  0.44789  0.20518  1.0000
  H   H65       1.0  0.56181  0.38739  0.21152  1.0000
  H   H66       1.0  0.54947  0.33675  0.21173  1.0000
  N   N18       1.0  0.58551  0.16227  0.34672  1.0000
  C   C106      1.0  0.57101  0.17902  0.34061  1.0000
  C   C107      1.0  0.56970  0.13098  0.34662  1.0000
  C   C108      1.0  0.61683  0.17887  0.34998  1.0000
  C   C109      1.0  0.63092  0.19335  0.43048  1.0000
  C   C110      1.0  0.66052  0.21629  0.43007  1.0000
  C   C111      1.0  0.67713  0.22529  0.34933  1.0000
  C   C112      1.0  0.66306  0.20987  0.26940  1.0000
  C   C113      1.0  0.63339  0.18702  0.26961  1.0000
  C   C114      1.0  0.56419  0.18926  0.41973  1.0000
  C   C115      1.0  0.55800  0.21252  0.41633  1.0000
  C   C116      1.0  0.55875  0.22661  0.33397  1.0000
  C   C117      1.0  0.56383  0.21482  0.25438  1.0000
  C   C118      1.0  0.57006  0.19159  0.25765  1.0000
  C   C119      1.0  0.55700  0.11521  0.42656  1.0000
  C   C120      1.0  0.54124  0.08409  0.42688  1.0000
  C   C121      1.0  0.53746  0.06751  0.34736  1.0000
  C   C122      1.0  0.55060  0.08381  0.26762  1.0000
  C   C123      1.0  0.56637  0.11493  0.26711  1.0000
  H   H67       1.0  0.55516  0.22049  0.47609  1.0000
  H   H68       1.0  0.56606  0.18147  0.48103  1.0000
  H   H69       1.0  0.57588  0.18521  0.19976  1.0000
  H   H70       1.0  0.56425  0.22375  0.19289  1.0000
  H   H71       1.0  0.61896  0.18891  0.48858  1.0000
  H   H72       1.0  0.66894  0.22788  0.48832  1.0000
  H   H73       1.0  0.55942  0.12638  0.48531  1.0000
  H   H74       1.0  0.53307  0.07376  0.48704  1.0000
  H   H75       1.0  0.54851  0.07316  0.20800  1.0000
  H   H76       1.0  0.57525  0.12587  0.20815  1.0000
  H   H77       1.0  0.62328  0.17798  0.20975  1.0000
  H   H78       1.0  0.67393  0.21610  0.20908  1.0000
  N   N19       1.0  0.02326  0.50581  0.41505  1.0000
  C   C124      1.0  0.99341  0.49024  0.42299  1.0000
  H   H79       1.0  0.98455  0.47948  0.48202  1.0000
  N   N20       1.0  0.50596  0.52017  0.41342  1.0000
  C   C125      1.0  0.52150  0.50585  0.42143  1.0000
  H   H80       1.0  0.53239  0.50787  0.48029  1.0000
  N   N21       1.0  0.48627  0.98784  0.40289  1.0000
  C   C126      1.0  0.50021  0.01768  0.41100  1.0000
  H   H81       1.0  0.49449  0.02638  0.46342  1.0000
  C   C127      1.0  0.25451  0.55328  0.35163  1.0000
  C   C128      1.0  0.30921  0.55488  0.33819  1.0000
  N   N22       1.0  0.29029  0.54173  0.40816  1.0000
  C   C129      1.0  0.26356  0.54005  0.41831  1.0000
  N   N23       1.0  0.24565  0.52491  0.49263  1.0000
  O   O7        1.0  0.25907  0.53639  0.56467  1.0000
  O   O8        1.0  0.23945  0.49842  0.49183  1.0000
  C   C130      1.0  0.45859  0.70401  0.34736  1.0000
  C   C131      1.0  0.45688  0.75705  0.33421  1.0000
  N   N24       1.0  0.47056  0.75154  0.40322  1.0000
  C   C132      1.0  0.47233  0.72654  0.41312  1.0000
  N   N25       1.0  0.48806  0.72404  0.48627  1.0000
  O   O9        1.0  0.47716  0.72625  0.55916  1.0000
  O   O10       1.0  0.51453  0.74431  0.48350  1.0000
  C   C133      1.0  0.30782  0.75726  0.34871  1.0000
  C   C134      1.0  0.25474  0.70250  0.33666  1.0000
  N   N26       1.0  0.26037  0.72183  0.40538  1.0000
  C   C135      1.0  0.28540  0.74860  0.41479  1.0000
  N   N27       1.0  0.28806  0.76697  0.48769  1.0000
  O   O11       1.0  0.28596  0.75399  0.56075  1.0000
  O   O12       1.0  0.26779  0.77319  0.48508  1.0000
  C   C136      1.0  0.76009  0.45650  0.34582  1.0000
  C   C137      1.0  0.70544  0.45498  0.33082  1.0000
  N   N28       1.0  0.72414  0.46788  0.40149  1.0000
  C   C138      1.0  0.75079  0.46948  0.41254  1.0000
  N   N29       1.0  0.76841  0.48415  0.48784  1.0000
  O   O13       1.0  0.75463  0.47232  0.55910  1.0000
  O   O14       1.0  0.77470  0.51066  0.48819  1.0000
  C   C139      1.0  0.55498  0.30598  0.34742  1.0000
  C   C140      1.0  0.55650  0.25285  0.33364  1.0000
  N   N30       1.0  0.54376  0.25883  0.40435  1.0000
  C   C141      1.0  0.54217  0.28391  0.41479  1.0000
  N   N31       1.0  0.52763  0.28704  0.49012  1.0000
  O   O15       1.0  0.53959  0.28528  0.56134  1.0000
  O   O16       1.0  0.50112  0.26682  0.49105  1.0000
  C   C142      1.0  0.70554  0.25135  0.34561  1.0000
  C   C143      1.0  0.75865  0.30604  0.33122  1.0000
  N   N32       1.0  0.75293  0.28716  0.40132  1.0000
  C   C144      1.0  0.72789  0.26047  0.41202  1.0000
  N   N33       1.0  0.72509  0.24268  0.48671  1.0000
  O   O17       1.0  0.72711  0.25627  0.55846  1.0000
  O   O18       1.0  0.74534  0.23643  0.48618  1.0000
