data_image0
_chemical_formula_structural       C3NOCH3C3NOCH3C3NOCH3C3NOCH3CNHCNHCNHCNHCNHCNHCNHCNHC3NOCH3C3NOCH3C3NOCH3C3NOCH3C3NOCH3C3NOCH3C3NOCH3C3NOCH3CNHCNHCNHCNHCNHCNHCNHCNHCNHCNHC6H3C6H3C6H3C6H3C6H3C6H3C6H3C6H3C6H3C6H3C6H3C6H3C6H3C6H3C6H3C6H3C6H3C6H3C6H3C6H3CNHCNHCNHCNHC3NOCH3C3NOCH3C3NOCH3C3NOCH3C3NOCH3C3NOCH3C3NOCH3C3NOCH3CNHCNHCNHCNHCNHCNHCNHCNHC3NOCH3C3NOCH3C3NOCH3C3NOCH3C3NOCH3C3NOCH3C3NOCH3C3NOCH3C3NOCH3C3NOCH3
_chemical_formula_sum              "C270 N60 O30 H180"
_cell_length_a       43.7156
_cell_length_b       43.7156
_cell_length_c       14.7951
_cell_angle_alpha    90
_cell_angle_beta     90
_cell_angle_gamma    90

_space_group_name_H-M_alt    "P 1"
_space_group_IT_number       1

loop_
  _space_group_symop_operation_xyz
  'x, y, z'

loop_
  _atom_site_type_symbol
  _atom_site_label
  _atom_site_symmetry_multiplicity
  _atom_site_fract_x
  _atom_site_fract_y
  _atom_site_fract_z
  _atom_site_occupancy
  C   C1        1.0  0.36067  0.05274  0.26362  1.0000
  C   C2        1.0  0.37667  0.05782  0.34543  1.0000
  C   C3        1.0  0.31558  0.04075  0.34740  1.0000
  N   N1        1.0  0.33060  0.04460  0.26795  1.0000
  O   O1        1.0  0.37606  0.05630  0.18302  1.0000
  C   C4        1.0  0.35893  0.05565  0.10016  1.0000
  H   H1        1.0  0.34802  0.03341  0.09052  1.0000
  H   H2        1.0  0.37468  0.05953  0.04422  1.0000
  H   H3        1.0  0.34161  0.07366  0.09921  1.0000
  C   C5        1.0  0.65310  0.96101  0.26419  1.0000
  C   C6        1.0  0.63711  0.95610  0.34610  1.0000
  C   C7        1.0  0.69822  0.97309  0.34772  1.0000
  N   N2        1.0  0.68318  0.96911  0.26835  1.0000
  O   O2        1.0  0.63770  0.95731  0.18366  1.0000
  C   C8        1.0  0.65478  0.95811  0.10071  1.0000
  H   H4        1.0  0.66552  0.98043  0.09109  1.0000
  H   H5        1.0  0.63902  0.95414  0.04485  1.0000
  H   H6        1.0  0.67222  0.94022  0.09961  1.0000
  C   C9        1.0  0.96110  0.36068  0.26361  1.0000
  C   C10       1.0  0.95601  0.37667  0.34543  1.0000
  C   C11       1.0  0.97307  0.31559  0.34739  1.0000
  N   N3        1.0  0.96923  0.33060  0.26793  1.0000
  O   O3        1.0  0.95755  0.37607  0.18301  1.0000
  C   C12       1.0  0.95819  0.35894  0.10015  1.0000
  H   H7        1.0  0.98043  0.34803  0.09052  1.0000
  H   H8        1.0  0.95432  0.37469  0.04422  1.0000
  H   H9        1.0  0.94018  0.34162  0.09919  1.0000
  C   C13       1.0  0.05281  0.65310  0.26418  1.0000
  C   C14       1.0  0.05773  0.63711  0.34609  1.0000
  C   C15       1.0  0.04073  0.69822  0.34770  1.0000
  N   N4        1.0  0.04471  0.68318  0.26833  1.0000
  O   O4        1.0  0.05653  0.63770  0.18365  1.0000
  C   C16       1.0  0.05574  0.65478  0.10070  1.0000
  H   H10       1.0  0.03342  0.66553  0.09105  1.0000
  H   H11       1.0  0.05971  0.63902  0.04484  1.0000
  H   H12       1.0  0.07364  0.67222  0.09961  1.0000
  C   C17       1.0  0.15324  0.55379  0.26665  1.0000
  N   N5        1.0  0.18321  0.54581  0.26804  1.0000
  H   H13       1.0  0.14284  0.55731  0.20562  1.0000
  C   C18       1.0  0.86044  0.45993  0.26618  1.0000
  N   N6        1.0  0.83049  0.46794  0.26776  1.0000
  H   H14       1.0  0.87078  0.45632  0.20510  1.0000
  C   C19       1.0  0.55377  0.86061  0.26661  1.0000
  N   N7        1.0  0.54578  0.83065  0.26799  1.0000
  H   H15       1.0  0.55728  0.87102  0.20559  1.0000
  C   C20       1.0  0.45992  0.15340  0.26620  1.0000
  N   N8        1.0  0.46792  0.18336  0.26779  1.0000
  H   H16       1.0  0.45632  0.14306  0.20511  1.0000
  C   C21       1.0  0.19660  0.12717  0.26752  1.0000
  N   N9        1.0  0.20810  0.09827  0.26907  1.0000
  H   H17       1.0  0.19330  0.13755  0.20637  1.0000
  C   C22       1.0  0.81732  0.88670  0.26744  1.0000
  N   N10       1.0  0.80580  0.91558  0.26900  1.0000
  H   H18       1.0  0.82064  0.87632  0.20629  1.0000
  C   C23       1.0  0.88669  0.19658  0.26752  1.0000
  N   N11       1.0  0.91558  0.20808  0.26908  1.0000
  H   H19       1.0  0.87630  0.19327  0.20637  1.0000
  C   C24       1.0  0.12717  0.81724  0.26747  1.0000
  N   N12       1.0  0.09828  0.80572  0.26903  1.0000
  H   H20       1.0  0.13756  0.82053  0.20633  1.0000
  C   C25       1.0  0.31649  0.62728  0.26360  1.0000
  C   C26       1.0  0.32271  0.64309  0.34516  1.0000
  C   C27       1.0  0.30052  0.58292  0.34678  1.0000
  N   N13       1.0  0.30517  0.59816  0.26790  1.0000
  O   O5        1.0  0.32146  0.64216  0.18285  1.0000
  C   C28       1.0  0.30849  0.62948  0.10183  1.0000
  H   H21       1.0  0.31824  0.60701  0.08731  1.0000
  H   H22       1.0  0.31388  0.64469  0.04568  1.0000
  H   H23       1.0  0.28364  0.62767  0.10731  1.0000
  C   C29       1.0  0.69733  0.38656  0.26363  1.0000
  C   C30       1.0  0.69111  0.37075  0.34517  1.0000
  C   C31       1.0  0.71328  0.43097  0.34684  1.0000
  N   N14       1.0  0.70862  0.41568  0.26800  1.0000
  O   O6        1.0  0.69235  0.37170  0.18287  1.0000
  C   C32       1.0  0.70537  0.38437  0.10189  1.0000
  H   H24       1.0  0.69565  0.40686  0.08737  1.0000
  H   H25       1.0  0.69998  0.36917  0.04571  1.0000
  H   H26       1.0  0.73022  0.38616  0.10746  1.0000
  C   C33       1.0  0.62728  0.69741  0.26364  1.0000
  C   C34       1.0  0.64307  0.69114  0.34518  1.0000
  C   C35       1.0  0.58288  0.71334  0.34686  1.0000
  N   N15       1.0  0.59816  0.70873  0.26799  1.0000
  O   O7        1.0  0.64217  0.69250  0.18289  1.0000
  C   C36       1.0  0.62943  0.70540  0.10185  1.0000
  H   H27       1.0  0.60698  0.69556  0.08741  1.0000
  H   H28       1.0  0.64465  0.70004  0.04568  1.0000
  H   H29       1.0  0.62752  0.73025  0.10727  1.0000
  C   C37       1.0  0.38655  0.31654  0.26363  1.0000
  C   C38       1.0  0.37074  0.32276  0.34516  1.0000
  C   C39       1.0  0.43096  0.30059  0.34684  1.0000
  N   N16       1.0  0.41567  0.30524  0.26800  1.0000
  O   O8        1.0  0.37169  0.32151  0.18287  1.0000
  C   C40       1.0  0.38436  0.30849  0.10189  1.0000
  H   H30       1.0  0.40685  0.31821  0.08737  1.0000
  H   H31       1.0  0.36916  0.31388  0.04571  1.0000
  H   H32       1.0  0.38615  0.28364  0.10747  1.0000
  C   C41       1.0  0.22096  0.92346  0.26420  1.0000
  C   C42       1.0  0.21806  0.90671  0.34577  1.0000
  C   C43       1.0  0.22930  0.96987  0.34731  1.0000
  N   N17       1.0  0.22685  0.95416  0.26836  1.0000
  O   O9        1.0  0.21799  0.90799  0.18355  1.0000
  C   C44       1.0  0.22518  0.92370  0.10091  1.0000
  H   H33       1.0  0.20988  0.94315  0.09061  1.0000
  H   H34       1.0  0.22211  0.90781  0.04489  1.0000
  H   H35       1.0  0.24891  0.93153  0.10086  1.0000
  C   C45       1.0  0.79287  0.09037  0.26424  1.0000
  C   C46       1.0  0.79577  0.10712  0.34580  1.0000
  C   C47       1.0  0.78451  0.04397  0.34737  1.0000
  N   N18       1.0  0.78698  0.05967  0.26841  1.0000
  O   O10       1.0  0.79586  0.10583  0.18358  1.0000
  C   C48       1.0  0.78867  0.09012  0.10095  1.0000
  H   H36       1.0  0.80394  0.07066  0.09066  1.0000
  H   H37       1.0  0.79175  0.10601  0.04493  1.0000
  H   H38       1.0  0.76493  0.08232  0.10090  1.0000
  C   C49       1.0  0.09038  0.22098  0.26420  1.0000
  C   C50       1.0  0.10713  0.21807  0.34578  1.0000
  C   C51       1.0  0.04397  0.22931  0.34731  1.0000
  N   N19       1.0  0.05968  0.22687  0.26837  1.0000
  O   O11       1.0  0.10585  0.21801  0.18356  1.0000
  C   C52       1.0  0.09014  0.22518  0.10092  1.0000
  H   H39       1.0  0.07070  0.20988  0.09064  1.0000
  H   H40       1.0  0.10603  0.22212  0.04490  1.0000
  H   H41       1.0  0.08230  0.24891  0.10084  1.0000
  C   C53       1.0  0.92347  0.79289  0.26422  1.0000
  C   C54       1.0  0.90672  0.79578  0.34578  1.0000
  C   C55       1.0  0.96990  0.78454  0.34735  1.0000
  N   N20       1.0  0.95417  0.78701  0.26843  1.0000
  O   O12       1.0  0.90802  0.79588  0.18356  1.0000
  C   C56       1.0  0.92373  0.78867  0.10095  1.0000
  H   H42       1.0  0.94319  0.80395  0.09065  1.0000
  H   H43       1.0  0.90784  0.79174  0.04491  1.0000
  H   H44       1.0  0.93154  0.76493  0.10092  1.0000
  C   C57       1.0  0.29296  0.42343  0.26663  1.0000
  N   N21       1.0  0.28696  0.45395  0.26830  1.0000
  H   H45       1.0  0.29478  0.41273  0.20541  1.0000
  C   C58       1.0  0.72084  0.59045  0.26670  1.0000
  N   N22       1.0  0.72685  0.55993  0.26841  1.0000
  H   H46       1.0  0.71906  0.60115  0.20547  1.0000
  C   C59       1.0  0.42341  0.72086  0.26664  1.0000
  N   N23       1.0  0.45393  0.72688  0.26831  1.0000
  H   H47       1.0  0.41271  0.71905  0.20542  1.0000
  C   C60       1.0  0.59043  0.29299  0.26667  1.0000
  N   N24       1.0  0.55991  0.28700  0.26836  1.0000
  H   H48       1.0  0.60113  0.29478  0.20543  1.0000
  C   C61       1.0  0.24798  0.28706  0.26674  1.0000
  N   N25       1.0  0.22602  0.26498  0.26841  1.0000
  H   H49       1.0  0.25568  0.29466  0.20549  1.0000
  C   C62       1.0  0.76584  0.72681  0.26676  1.0000
  N   N26       1.0  0.78780  0.74888  0.26842  1.0000
  H   H50       1.0  0.75811  0.71923  0.20550  1.0000
  C   C63       1.0  0.72680  0.24798  0.26675  1.0000
  N   N27       1.0  0.74888  0.22603  0.26841  1.0000
  H   H51       1.0  0.71920  0.25569  0.20549  1.0000
  C   C64       1.0  0.28708  0.76587  0.26674  1.0000
  N   N28       1.0  0.26500  0.78782  0.26841  1.0000
  H   H52       1.0  0.29466  0.75815  0.20549  1.0000
  C   C65       1.0  0.49629  0.01742  0.26614  1.0000
  N   N29       1.0  0.51820  0.99552  0.26765  1.0000
  H   H53       1.0  0.48850  0.02511  0.20505  1.0000
  C   C66       1.0  0.99643  0.49629  0.26614  1.0000
  N   N30       1.0  0.01833  0.51820  0.26764  1.0000
  H   H54       1.0  0.98874  0.48850  0.20505  1.0000
  C   C67       1.0  0.28393  0.03548  0.34764  1.0000
  C   C68       1.0  0.26381  0.06065  0.34763  1.0000
  C   C69       1.0  0.23180  0.05639  0.34733  1.0000
  C   C70       1.0  0.22003  0.02612  0.34726  1.0000
  C   C71       1.0  0.23999  0.00048  0.34744  1.0000
  C   C72       1.0  0.27194  0.00553  0.34746  1.0000
  H   H55       1.0  0.19686  0.02277  0.34717  1.0000
  H   H56       1.0  0.28668  0.98727  0.34742  1.0000
  H   H57       1.0  0.27265  0.08241  0.34768  1.0000
  C   C73       1.0  0.72988  0.97837  0.34784  1.0000
  C   C74       1.0  0.74999  0.95319  0.34768  1.0000
  C   C75       1.0  0.78201  0.95746  0.34729  1.0000
  C   C76       1.0  0.79378  0.98772  0.34718  1.0000
  C   C77       1.0  0.77382  0.01336  0.34751  1.0000
  C   C78       1.0  0.74186  0.00831  0.34770  1.0000
  H   H58       1.0  0.81695  0.99108  0.34701  1.0000
  H   H59       1.0  0.72713  0.02657  0.34776  1.0000
  H   H60       1.0  0.74115  0.93143  0.34772  1.0000
  C   C79       1.0  0.97836  0.28393  0.34764  1.0000
  C   C80       1.0  0.95318  0.26381  0.34764  1.0000
  C   C81       1.0  0.95746  0.23180  0.34735  1.0000
  C   C82       1.0  0.98772  0.22004  0.34726  1.0000
  C   C83       1.0  0.01336  0.24000  0.34744  1.0000
  C   C84       1.0  0.00830  0.27195  0.34746  1.0000
  H   H61       1.0  0.99108  0.19686  0.34718  1.0000
  H   H62       1.0  0.02656  0.28669  0.34741  1.0000
  H   H63       1.0  0.93143  0.27265  0.34768  1.0000
  C   C85       1.0  0.03547  0.72988  0.34781  1.0000
  C   C86       1.0  0.06066  0.74998  0.34767  1.0000
  C   C87       1.0  0.05640  0.78200  0.34729  1.0000
  C   C88       1.0  0.02615  0.79378  0.34720  1.0000
  C   C89       1.0  0.00049  0.77383  0.34749  1.0000
  C   C90       1.0  0.00553  0.74188  0.34766  1.0000
  H   H64       1.0  0.02280  0.81696  0.34706  1.0000
  H   H65       1.0  0.98726  0.72715  0.34770  1.0000
  H   H66       1.0  0.08241  0.74113  0.34773  1.0000
  C   C91       1.0  0.22985  0.53545  0.34680  1.0000
  C   C92       1.0  0.24997  0.56062  0.34681  1.0000
  C   C93       1.0  0.28198  0.55635  0.34703  1.0000
  C   C94       1.0  0.29375  0.52609  0.34699  1.0000
  C   C95       1.0  0.27379  0.50045  0.34690  1.0000
  C   C96       1.0  0.24183  0.50550  0.34696  1.0000
  H   H67       1.0  0.31692  0.52273  0.34698  1.0000
  H   H68       1.0  0.22710  0.48724  0.34697  1.0000
  H   H69       1.0  0.24113  0.58238  0.34676  1.0000
  C   C97       1.0  0.78394  0.47843  0.34678  1.0000
  C   C98       1.0  0.76382  0.45326  0.34680  1.0000
  C   C99       1.0  0.73181  0.45753  0.34709  1.0000
  C   C100      1.0  0.72004  0.48779  0.34709  1.0000
  C   C101      1.0  0.74001  0.51343  0.34699  1.0000
  C   C102      1.0  0.77196  0.50838  0.34700  1.0000
  H   H70       1.0  0.69687  0.49115  0.34712  1.0000
  H   H71       1.0  0.78670  0.52663  0.34697  1.0000
  H   H72       1.0  0.77265  0.43150  0.34669  1.0000
  C   C103      1.0  0.53542  0.78400  0.34674  1.0000
  C   C104      1.0  0.56059  0.76388  0.34677  1.0000
  C   C105      1.0  0.55632  0.73187  0.34701  1.0000
  C   C106      1.0  0.52606  0.72010  0.34701  1.0000
  C   C107      1.0  0.50042  0.74006  0.34688  1.0000
  C   C108      1.0  0.50547  0.77202  0.34690  1.0000
  H   H73       1.0  0.52270  0.69693  0.34705  1.0000
  H   H74       1.0  0.48721  0.78675  0.34691  1.0000
  H   H75       1.0  0.58234  0.77272  0.34674  1.0000
  C   C109      1.0  0.47840  0.22992  0.34681  1.0000
  C   C110      1.0  0.45323  0.25005  0.34683  1.0000
  C   C111      1.0  0.45751  0.28206  0.34709  1.0000
  C   C112      1.0  0.48778  0.29381  0.34708  1.0000
  C   C113      1.0  0.51341  0.27384  0.34699  1.0000
  C   C114      1.0  0.50835  0.24189  0.34701  1.0000
  H   H76       1.0  0.49115  0.31698  0.34710  1.0000
  H   H77       1.0  0.52660  0.22715  0.34698  1.0000
  H   H78       1.0  0.43147  0.24121  0.34672  1.0000
  C   C115      1.0  0.19285  0.22943  0.34698  1.0000
  C   C116      1.0  0.20251  0.19851  0.34778  1.0000
  C   C117      1.0  0.18111  0.17417  0.34765  1.0000
  C   C118      1.0  0.14953  0.18115  0.34735  1.0000
  C   C119      1.0  0.13915  0.21180  0.34697  1.0000
  C   C120      1.0  0.16105  0.23573  0.34650  1.0000
  H   H79       1.0  0.13390  0.16367  0.34745  1.0000
  H   H80       1.0  0.15373  0.25799  0.34592  1.0000
  H   H81       1.0  0.22543  0.19362  0.34831  1.0000
  C   C121      1.0  0.82100  0.78440  0.34699  1.0000
  C   C122      1.0  0.81133  0.81532  0.34776  1.0000
  C   C123      1.0  0.83272  0.83967  0.34758  1.0000
  C   C124      1.0  0.86430  0.83270  0.34726  1.0000
  C   C125      1.0  0.87470  0.80205  0.34695  1.0000
  C   C126      1.0  0.85280  0.77811  0.34652  1.0000
  H   H82       1.0  0.87993  0.85018  0.34736  1.0000
  H   H83       1.0  0.86013  0.75585  0.34597  1.0000
  H   H84       1.0  0.78841  0.82021  0.34829  1.0000
  C   C127      1.0  0.78441  0.19284  0.34699  1.0000
  C   C128      1.0  0.81534  0.20250  0.34778  1.0000
  C   C129      1.0  0.83968  0.18111  0.34764  1.0000
  C   C130      1.0  0.83270  0.14953  0.34733  1.0000
  C   C131      1.0  0.80205  0.13914  0.34697  1.0000
  C   C132      1.0  0.77812  0.16104  0.34651  1.0000
  H   H85       1.0  0.85017  0.13389  0.34745  1.0000
  H   H86       1.0  0.75586  0.15373  0.34594  1.0000
  H   H87       1.0  0.82023  0.22543  0.34830  1.0000
  C   C133      1.0  0.22945  0.82100  0.34698  1.0000
  C   C134      1.0  0.19853  0.81132  0.34776  1.0000
  C   C135      1.0  0.17418  0.83271  0.34760  1.0000
  C   C136      1.0  0.18115  0.86429  0.34730  1.0000
  C   C137      1.0  0.21179  0.87469  0.34695  1.0000
  C   C138      1.0  0.23573  0.85280  0.34650  1.0000
  H   H88       1.0  0.16366  0.87992  0.34740  1.0000
  H   H89       1.0  0.25799  0.86012  0.34593  1.0000
  H   H90       1.0  0.19364  0.78839  0.34829  1.0000
  C   C139      1.0  0.32094  0.72937  0.34643  1.0000
  C   C140      1.0  0.31131  0.69843  0.34621  1.0000
  C   C141      1.0  0.33271  0.67411  0.34625  1.0000
  C   C142      1.0  0.36429  0.68110  0.34629  1.0000
  C   C143      1.0  0.37466  0.71175  0.34650  1.0000
  C   C144      1.0  0.35275  0.73567  0.34684  1.0000
  H   H91       1.0  0.37993  0.66363  0.34629  1.0000
  H   H92       1.0  0.36005  0.75793  0.34762  1.0000
  H   H93       1.0  0.28839  0.69353  0.34617  1.0000
  C   C145      1.0  0.69291  0.28446  0.34643  1.0000
  C   C146      1.0  0.70253  0.31540  0.34620  1.0000
  C   C147      1.0  0.68113  0.33972  0.34625  1.0000
  C   C148      1.0  0.64955  0.33272  0.34630  1.0000
  C   C149      1.0  0.63919  0.30207  0.34650  1.0000
  C   C150      1.0  0.66111  0.27815  0.34685  1.0000
  H   H94       1.0  0.63391  0.35019  0.34629  1.0000
  H   H95       1.0  0.65381  0.25589  0.34764  1.0000
  H   H96       1.0  0.72546  0.32031  0.34616  1.0000
  C   C151      1.0  0.72936  0.69293  0.34644  1.0000
  C   C152      1.0  0.69842  0.70255  0.34620  1.0000
  C   C153      1.0  0.67409  0.68115  0.34626  1.0000
  C   C154      1.0  0.68109  0.64957  0.34633  1.0000
  C   C155      1.0  0.71174  0.63921  0.34653  1.0000
  C   C156      1.0  0.73566  0.66112  0.34686  1.0000
  H   H97       1.0  0.66362  0.63393  0.34633  1.0000
  H   H98       1.0  0.75792  0.65382  0.34765  1.0000
  H   H99       1.0  0.69351  0.72548  0.34615  1.0000
  C   C157      1.0  0.28445  0.32095  0.34643  1.0000
  C   C158      1.0  0.31539  0.31133  0.34620  1.0000
  C   C159      1.0  0.33971  0.33274  0.34624  1.0000
  C   C160      1.0  0.33271  0.36432  0.34628  1.0000
  C   C161      1.0  0.30205  0.37467  0.34649  1.0000
  C   C162      1.0  0.27814  0.35276  0.34684  1.0000
  H   H100      1.0  0.35017  0.37996  0.34628  1.0000
  H   H101      1.0  0.25588  0.36005  0.34762  1.0000
  H   H102      1.0  0.32030  0.28841  0.34616  1.0000
  C   C163      1.0  0.44743  0.10607  0.34641  1.0000
  C   C164      1.0  0.41625  0.09759  0.34633  1.0000
  C   C165      1.0  0.40778  0.06642  0.34641  1.0000
  C   C166      1.0  0.43068  0.04369  0.34629  1.0000
  C   C167      1.0  0.46186  0.05199  0.34644  1.0000
  C   C168      1.0  0.47016  0.08317  0.34679  1.0000
  H   H103      1.0  0.42465  0.02102  0.34633  1.0000
  H   H104      1.0  0.49283  0.08920  0.34750  1.0000
  H   H105      1.0  0.39967  0.11417  0.34635  1.0000
  C   C169      1.0  0.56633  0.90787  0.34714  1.0000
  C   C170      1.0  0.59751  0.91634  0.34734  1.0000
  C   C171      1.0  0.60599  0.94752  0.34726  1.0000
  C   C172      1.0  0.58309  0.97025  0.34675  1.0000
  C   C173      1.0  0.55193  0.96193  0.34672  1.0000
  C   C174      1.0  0.54360  0.93077  0.34706  1.0000
  H   H106      1.0  0.58913  0.99292  0.34641  1.0000
  H   H107      1.0  0.52093  0.92474  0.34730  1.0000
  H   H108      1.0  0.61409  0.89976  0.34751  1.0000
  C   C175      1.0  0.90777  0.44744  0.34641  1.0000
  C   C176      1.0  0.91624  0.41626  0.34632  1.0000
  C   C177      1.0  0.94742  0.40779  0.34641  1.0000
  C   C178      1.0  0.97015  0.43068  0.34628  1.0000
  C   C179      1.0  0.96185  0.46186  0.34644  1.0000
  C   C180      1.0  0.93068  0.47016  0.34679  1.0000
  H   H109      1.0  0.99282  0.42464  0.34633  1.0000
  H   H110      1.0  0.92465  0.49283  0.34751  1.0000
  H   H111      1.0  0.89966  0.39968  0.34635  1.0000
  C   C181      1.0  0.10598  0.56634  0.34716  1.0000
  C   C182      1.0  0.09750  0.59752  0.34735  1.0000
  C   C183      1.0  0.06632  0.60599  0.34725  1.0000
  C   C184      1.0  0.04359  0.58308  0.34674  1.0000
  C   C185      1.0  0.05192  0.55193  0.34672  1.0000
  C   C186      1.0  0.08307  0.54361  0.34708  1.0000
  H   H112      1.0  0.02092  0.58912  0.34638  1.0000
  H   H113      1.0  0.08912  0.52094  0.34733  1.0000
  H   H114      1.0  0.11408  0.61410  0.34752  1.0000
  C   C187      1.0  0.36058  0.05391  0.42732  1.0000
  N   N31       1.0  0.33062  0.04591  0.42614  1.0000
  H   H115      1.0  0.37102  0.05747  0.48826  1.0000
  C   C188      1.0  0.65322  0.96015  0.42790  1.0000
  N   N32       1.0  0.68319  0.96811  0.42655  1.0000
  H   H116      1.0  0.64279  0.95670  0.48892  1.0000
  C   C189      1.0  0.95992  0.36058  0.42731  1.0000
  N   N33       1.0  0.96791  0.33062  0.42613  1.0000
  H   H117      1.0  0.95635  0.37102  0.48826  1.0000
  C   C190      1.0  0.05368  0.65322  0.42789  1.0000
  N   N34       1.0  0.04572  0.68319  0.42653  1.0000
  H   H118      1.0  0.05714  0.64279  0.48891  1.0000
  C   C191      1.0  0.15305  0.55274  0.43035  1.0000
  C   C192      1.0  0.13710  0.55776  0.34842  1.0000
  C   C193      1.0  0.19820  0.54072  0.34689  1.0000
  N   N35       1.0  0.18313  0.54463  0.42624  1.0000
  O   O13       1.0  0.13761  0.55636  0.51086  1.0000
  C   C194      1.0  0.15471  0.55573  0.59380  1.0000
  H   H119      1.0  0.16560  0.53349  0.60357  1.0000
  H   H120      1.0  0.13893  0.55963  0.64966  1.0000
  H   H121      1.0  0.17203  0.57374  0.59477  1.0000
  C   C195      1.0  0.86081  0.46116  0.42988  1.0000
  C   C196      1.0  0.87666  0.45604  0.34785  1.0000
  C   C197      1.0  0.81559  0.47314  0.34669  1.0000
  N   N36       1.0  0.83073  0.46932  0.42596  1.0000
  O   O14       1.0  0.87632  0.45763  0.51027  1.0000
  C   C198      1.0  0.85930  0.45818  0.59333  1.0000
  H   H122      1.0  0.84834  0.48038  0.60322  1.0000
  H   H123      1.0  0.87513  0.45432  0.64907  1.0000
  H   H124      1.0  0.84203  0.44012  0.59440  1.0000
  C   C199      1.0  0.55273  0.86080  0.43031  1.0000
  C   C200      1.0  0.55774  0.87675  0.34839  1.0000
  C   C201      1.0  0.54070  0.81565  0.34683  1.0000
  N   N37       1.0  0.54461  0.83071  0.42619  1.0000
  O   O15       1.0  0.55635  0.87622  0.51083  1.0000
  C   C202      1.0  0.55573  0.85913  0.59377  1.0000
  H   H125      1.0  0.53348  0.84823  0.60354  1.0000
  H   H126      1.0  0.55964  0.87490  0.64962  1.0000
  H   H127      1.0  0.57373  0.84180  0.59472  1.0000
  C   C203      1.0  0.46114  0.15304  0.42989  1.0000
  C   C204      1.0  0.45602  0.13718  0.34786  1.0000
  C   C205      1.0  0.47311  0.19827  0.34672  1.0000
  N   N38       1.0  0.46928  0.18312  0.42597  1.0000
  O   O16       1.0  0.45761  0.13752  0.51028  1.0000
  C   C206      1.0  0.45818  0.15454  0.59335  1.0000
  H   H128      1.0  0.48039  0.16550  0.60321  1.0000
  H   H129      1.0  0.45432  0.13871  0.64908  1.0000
  H   H130      1.0  0.44012  0.17182  0.59444  1.0000
  C   C207      1.0  0.19740  0.12740  0.43056  1.0000
  C   C208      1.0  0.19112  0.14314  0.34894  1.0000
  C   C209      1.0  0.21327  0.08296  0.34754  1.0000
  N   N39       1.0  0.20870  0.09827  0.42635  1.0000
  O   O17       1.0  0.19251  0.14234  0.51124  1.0000
  C   C210      1.0  0.20530  0.12957  0.59238  1.0000
  H   H131      1.0  0.19538  0.10716  0.60680  1.0000
  H   H132      1.0  0.19997  0.14481  0.64849  1.0000
  H   H133      1.0  0.23015  0.12757  0.58711  1.0000
  C   C211      1.0  0.81636  0.88641  0.43047  1.0000
  C   C212      1.0  0.82271  0.87069  0.34887  1.0000
  C   C213      1.0  0.80053  0.93089  0.34741  1.0000
  N   N40       1.0  0.80504  0.91553  0.42620  1.0000
  O   O18       1.0  0.82118  0.87145  0.51115  1.0000
  C   C214      1.0  0.80851  0.88432  0.59233  1.0000
  H   H134      1.0  0.81855  0.90668  0.60663  1.0000
  H   H135      1.0  0.81381  0.86906  0.64845  1.0000
  H   H136      1.0  0.78367  0.88643  0.58720  1.0000
  C   C215      1.0  0.88645  0.19740  0.43056  1.0000
  C   C216      1.0  0.87070  0.19111  0.34893  1.0000
  C   C217      1.0  0.93089  0.21327  0.34754  1.0000
  N   N41       1.0  0.91557  0.20870  0.42636  1.0000
  O   O19       1.0  0.87150  0.19251  0.51124  1.0000
  C   C218      1.0  0.88428  0.20530  0.59238  1.0000
  H   H137      1.0  0.90668  0.19537  0.60680  1.0000
  H   H138      1.0  0.86903  0.19996  0.64849  1.0000
  H   H139      1.0  0.88628  0.23014  0.58713  1.0000
  C   C219      1.0  0.12742  0.81639  0.43052  1.0000
  C   C220      1.0  0.14316  0.82269  0.34890  1.0000
  C   C221      1.0  0.08298  0.80052  0.34749  1.0000
  N   N42       1.0  0.09830  0.80508  0.42630  1.0000
  O   O20       1.0  0.14236  0.82128  0.51120  1.0000
  C   C222      1.0  0.12957  0.80853  0.59237  1.0000
  H   H140      1.0  0.10717  0.81848  0.60673  1.0000
  H   H141      1.0  0.14481  0.81387  0.64847  1.0000
  H   H142      1.0  0.12754  0.78368  0.58718  1.0000
  C   C223      1.0  0.31715  0.62718  0.42665  1.0000
  N   N43       1.0  0.30563  0.59829  0.42519  1.0000
  H   H143      1.0  0.32040  0.63761  0.48774  1.0000
  C   C224      1.0  0.69666  0.38665  0.42666  1.0000
  N   N44       1.0  0.70818  0.41554  0.42517  1.0000
  H   H144      1.0  0.69346  0.37621  0.48776  1.0000
  C   C225      1.0  0.62715  0.69667  0.42667  1.0000
  N   N45       1.0  0.59826  0.70818  0.42522  1.0000
  H   H145      1.0  0.63758  0.69338  0.48776  1.0000
  C   C226      1.0  0.38664  0.31721  0.42666  1.0000
  N   N46       1.0  0.41553  0.30570  0.42517  1.0000
  H   H146      1.0  0.37620  0.32042  0.48776  1.0000
  C   C227      1.0  0.22110  0.92333  0.42721  1.0000
  N   N47       1.0  0.22708  0.95386  0.42577  1.0000
  H   H147      1.0  0.21949  0.91255  0.48834  1.0000
  C   C228      1.0  0.79271  0.09051  0.42725  1.0000
  N   N48       1.0  0.78671  0.05998  0.42582  1.0000
  H   H148      1.0  0.79430  0.10130  0.48837  1.0000
  C   C229      1.0  0.09050  0.22112  0.42722  1.0000
  N   N49       1.0  0.05997  0.22709  0.42578  1.0000
  H   H149      1.0  0.10129  0.21949  0.48835  1.0000
  C   C230      1.0  0.92333  0.79271  0.42722  1.0000
  N   N50       1.0  0.95386  0.78672  0.42578  1.0000
  H   H150      1.0  0.91254  0.79429  0.48835  1.0000
  C   C231      1.0  0.29259  0.42331  0.42964  1.0000
  C   C232      1.0  0.29575  0.40669  0.34793  1.0000
  C   C233      1.0  0.28448  0.46985  0.34689  1.0000
  N   N51       1.0  0.28668  0.45400  0.42569  1.0000
  O   O21       1.0  0.29529  0.40771  0.51016  1.0000
  C   C234      1.0  0.28858  0.42350  0.59301  1.0000
  H   H151      1.0  0.30424  0.44267  0.60309  1.0000
  H   H152      1.0  0.29147  0.40752  0.64889  1.0000
  H   H153      1.0  0.26499  0.43175  0.59355  1.0000
  C   C235      1.0  0.72120  0.59058  0.42971  1.0000
  C   C236      1.0  0.71805  0.60720  0.34799  1.0000
  C   C237      1.0  0.72931  0.54403  0.34700  1.0000
  N   N52       1.0  0.72711  0.55988  0.42577  1.0000
  O   O22       1.0  0.71848  0.60618  0.51022  1.0000
  C   C238      1.0  0.72526  0.59041  0.59306  1.0000
  H   H154      1.0  0.70964  0.57122  0.60322  1.0000
  H   H155      1.0  0.72235  0.60639  0.64895  1.0000
  H   H156      1.0  0.74886  0.58220  0.59354  1.0000
  C   C239      1.0  0.42329  0.72122  0.42966  1.0000
  C   C240      1.0  0.40667  0.71806  0.34794  1.0000
  C   C241      1.0  0.46981  0.72937  0.34692  1.0000
  N   N53       1.0  0.45398  0.72715  0.42572  1.0000
  O   O23       1.0  0.40769  0.71850  0.51017  1.0000
  C   C242      1.0  0.42346  0.72526  0.59302  1.0000
  H   H157      1.0  0.44265  0.70963  0.60315  1.0000
  H   H158      1.0  0.40748  0.72234  0.64891  1.0000
  H   H159      1.0  0.43168  0.74886  0.59353  1.0000
  C   C243      1.0  0.59057  0.29261  0.42968  1.0000
  C   C244      1.0  0.60718  0.29577  0.34795  1.0000
  C   C245      1.0  0.54402  0.28452  0.34696  1.0000
  N   N54       1.0  0.55986  0.28671  0.42575  1.0000
  O   O24       1.0  0.60617  0.29532  0.51019  1.0000
  C   C246      1.0  0.59039  0.28858  0.59304  1.0000
  H   H160      1.0  0.57121  0.30422  0.60317  1.0000
  H   H161      1.0  0.60637  0.29148  0.64892  1.0000
  H   H162      1.0  0.58216  0.26498  0.59355  1.0000
  C   C247      1.0  0.24863  0.28652  0.42958  1.0000
  C   C248      1.0  0.26031  0.29886  0.34793  1.0000
  C   C249      1.0  0.21478  0.25344  0.34699  1.0000
  N   N55       1.0  0.22652  0.26437  0.42572  1.0000
  O   O25       1.0  0.26028  0.29728  0.51005  1.0000
  C   C250      1.0  0.24969  0.28402  0.59324  1.0000
  H   H163      1.0  0.22512  0.28754  0.60163  1.0000
  H   H164      1.0  0.26148  0.29522  0.64906  1.0000
  H   H165      1.0  0.25486  0.25959  0.59577  1.0000
  C   C251      1.0  0.76521  0.72733  0.42959  1.0000
  C   C252      1.0  0.75349  0.71503  0.34794  1.0000
  C   C253      1.0  0.79907  0.76040  0.34701  1.0000
  N   N56       1.0  0.78733  0.74946  0.42574  1.0000
  O   O26       1.0  0.75356  0.71656  0.51006  1.0000
  C   C254      1.0  0.76415  0.72983  0.59325  1.0000
  H   H166      1.0  0.78872  0.72630  0.60165  1.0000
  H   H167      1.0  0.75236  0.71862  0.64907  1.0000
  H   H168      1.0  0.75898  0.75426  0.59579  1.0000
  C   C255      1.0  0.72734  0.24863  0.42958  1.0000
  C   C256      1.0  0.71501  0.26032  0.34793  1.0000
  C   C257      1.0  0.76041  0.21478  0.34700  1.0000
  N   N57       1.0  0.74948  0.22652  0.42573  1.0000
  O   O27       1.0  0.71657  0.26028  0.51006  1.0000
  C   C258      1.0  0.72983  0.24969  0.59325  1.0000
  H   H169      1.0  0.72630  0.22512  0.60164  1.0000
  H   H170      1.0  0.71862  0.26148  0.64907  1.0000
  H   H171      1.0  0.75426  0.25486  0.59579  1.0000
  C   C259      1.0  0.28652  0.76521  0.42958  1.0000
  C   C260      1.0  0.29885  0.75351  0.34793  1.0000
  C   C261      1.0  0.25346  0.79907  0.34699  1.0000
  N   N58       1.0  0.26438  0.78732  0.42572  1.0000
  O   O28       1.0  0.29728  0.75355  0.51005  1.0000
  C   C262      1.0  0.28402  0.76415  0.59324  1.0000
  H   H172      1.0  0.28756  0.78872  0.60163  1.0000
  H   H173      1.0  0.29523  0.75235  0.64907  1.0000
  H   H174      1.0  0.25959  0.75899  0.59579  1.0000
  C   C263      1.0  0.49641  0.01758  0.43009  1.0000
  C   C264      1.0  0.48462  0.02923  0.34793  1.0000
  C   C265      1.0  0.52933  0.98454  0.34678  1.0000
  N   N59       1.0  0.51843  0.99557  0.42615  1.0000
  O   O29       1.0  0.48522  0.02891  0.51049  1.0000
  C   C266      1.0  0.49702  0.01691  0.59393  1.0000
  H   H175      1.0  0.49252  0.99241  0.59943  1.0000
  H   H176      1.0  0.48554  0.02848  0.64968  1.0000
  H   H177      1.0  0.52157  0.02114  0.59962  1.0000
  C   C267      1.0  0.99627  0.49641  0.43009  1.0000
  C   C268      1.0  0.98462  0.48462  0.34793  1.0000
  C   C269      1.0  0.02931  0.52932  0.34677  1.0000
  N   N60       1.0  0.01828  0.51842  0.42615  1.0000
  O   O30       1.0  0.98494  0.48522  0.51049  1.0000
  C   C270      1.0  0.99694  0.49702  0.59393  1.0000
  H   H178      1.0  0.02144  0.49252  0.59943  1.0000
  H   H179      1.0  0.98537  0.48554  0.64968  1.0000
  H   H180      1.0  0.99270  0.52157  0.59961  1.0000
