data_image0
_chemical_formula_structural       C3N3HCN3HCN3HNCNCNC3O3NCNCNC3O3C3HCH3NHC3HCH3NHC3HCH3NHC3N3HCN3HCN3HNCNCNC3O3NCNCNC3O3C3HCH3NHC3HCH3NHC3HCH3NHC3N3HCN3HCN3HNCNCNC3O3NCNCNC3O3C3HCH3NHC3HCH3NHC3HCH3NHC3N3HCN3HCN3HNCNCNC3O3NCNCNC3O3C3HCH3NHC3HCH3NHC3HCH3NH
_chemical_formula_sum              "C108 N72 H72 O24"
_cell_length_a       43.2343
_cell_length_b       43.2343
_cell_length_c       15.0534
_cell_angle_alpha    90
_cell_angle_beta     90
_cell_angle_gamma    120

_space_group_name_H-M_alt    "P 1"
_space_group_IT_number       1

loop_
  _space_group_symop_operation_xyz
  'x, y, z'

loop_
  _atom_site_type_symbol
  _atom_site_label
  _atom_site_symmetry_multiplicity
  _atom_site_fract_x
  _atom_site_fract_y
  _atom_site_fract_z
  _atom_site_occupancy
  C   C1        1.0  0.12768  0.31755  0.42727  1.0000
  C   C2        1.0  0.36529  0.17177  0.26945  1.0000
  C   C3        1.0  0.27391  0.23949  0.32405  1.0000
  N   N1        1.0  0.22493  0.24721  0.35386  1.0000
  N   N2        1.0  0.23845  0.22839  0.32290  1.0000
  N   N3        1.0  0.28386  0.21624  0.29186  1.0000
  H   H1        1.0  0.26411  0.19246  0.27776  1.0000
  C   C4        1.0  0.25611  0.03355  0.32426  1.0000
  N   N4        1.0  0.24838  0.47685  0.35405  1.0000
  N   N5        1.0  0.26720  0.00919  0.32310  1.0000
  N   N6        1.0  0.27935  0.06675  0.29207  1.0000
  H   H2        1.0  0.30313  0.07078  0.27796  1.0000
  C   C5        1.0  0.46202  0.22165  0.32417  1.0000
  N   N7        1.0  0.01872  0.27062  0.35394  1.0000
  N   N8        1.0  0.48639  0.25711  0.32300  1.0000
  N   N9        1.0  0.42882  0.21170  0.29199  1.0000
  H   H3        1.0  0.42480  0.23145  0.27785  1.0000
  N   N10       1.0  0.15027  0.35340  0.42667  1.0000
  C   C6        1.0  0.18632  0.36788  0.42727  1.0000
  N   N11       1.0  0.19958  0.34529  0.42666  1.0000
  C   C7        1.0  0.17802  0.30925  0.42725  1.0000
  N   N12       1.0  0.14217  0.29599  0.42665  1.0000
  C   C8        1.0  0.20941  0.40494  0.41922  1.0000
  C   C9        1.0  0.19199  0.28616  0.41913  1.0000
  C   C10       1.0  0.09062  0.30357  0.41917  1.0000
  O   O1        1.0  0.16801  0.25089  0.40950  1.0000
  O   O2        1.0  0.07932  0.32754  0.40956  1.0000
  O   O3        1.0  0.24468  0.41624  0.40962  1.0000
  N   N13       1.0  0.33739  0.13776  0.27021  1.0000
  C   C11       1.0  0.30292  0.13029  0.26952  1.0000
  N   N14       1.0  0.29680  0.15817  0.27015  1.0000
  C   C12       1.0  0.32380  0.19264  0.26941  1.0000
  N   N15       1.0  0.35781  0.19877  0.27012  1.0000
  C   C13       1.0  0.27429  0.09522  0.28024  1.0000
  C   C14       1.0  0.31739  0.22129  0.28008  1.0000
  C   C15       1.0  0.40034  0.17817  0.28019  1.0000
  O   O4        1.0  0.34658  0.25439  0.28113  1.0000
  O   O5        1.0  0.40423  0.14897  0.28137  1.0000
  O   O6        1.0  0.24119  0.09130  0.28131  1.0000
  C   C16       1.0  0.29620  0.27306  0.36413  1.0000
  C   C17       1.0  0.28197  0.29382  0.39830  1.0000
  C   C18       1.0  0.24442  0.27994  0.39196  1.0000
  H   H4        1.0  0.32274  0.28211  0.37226  1.0000
  C   C19       1.0  0.30627  0.32857  0.44197  1.0000
  H   H5        1.0  0.33393  0.33439  0.44462  1.0000
  H   H6        1.0  0.29747  0.32827  0.51006  1.0000
  H   H7        1.0  0.30596  0.35022  0.40555  1.0000
  N   N16       1.0  0.22785  0.29832  0.41793  1.0000
  H   H8        1.0  0.24323  0.32310  0.43495  1.0000
  C   C20       1.0  0.22253  0.02227  0.36433  1.0000
  C   C21       1.0  0.20177  0.48727  0.39848  1.0000
  C   C22       1.0  0.21565  0.46361  0.39212  1.0000
  H   H9        1.0  0.21348  0.03976  0.37246  1.0000
  C   C23       1.0  0.16701  0.47682  0.44212  1.0000
  H   H10       1.0  0.16120  0.49866  0.44478  1.0000
  H   H11       1.0  0.16730  0.46831  0.51022  1.0000
  H   H12       1.0  0.14536  0.45486  0.40566  1.0000
  N   N17       1.0  0.19726  0.42865  0.41805  1.0000
  H   H13       1.0  0.17247  0.41924  0.43505  1.0000
  C   C24       1.0  0.47330  0.19935  0.36424  1.0000
  C   C25       1.0  0.00829  0.21360  0.39841  1.0000
  C   C26       1.0  0.03196  0.25114  0.39204  1.0000
  H   H14       1.0  0.45580  0.17283  0.37243  1.0000
  C   C27       1.0  0.01874  0.18929  0.44209  1.0000
  H   H15       1.0  0.99691  0.16165  0.44476  1.0000
  H   H16       1.0  0.02725  0.19810  0.51021  1.0000
  H   H17       1.0  0.04071  0.18960  0.40566  1.0000
  N   N18       1.0  0.06692  0.26771  0.41799  1.0000
  H   H18       1.0  0.07632  0.25233  0.43500  1.0000
  C   C28       1.0  0.12768  0.81755  0.42727  1.0000
  C   C29       1.0  0.36529  0.67177  0.26945  1.0000
  C   C30       1.0  0.27391  0.73949  0.32405  1.0000
  N   N19       1.0  0.22493  0.74721  0.35386  1.0000
  N   N20       1.0  0.23845  0.72839  0.32290  1.0000
  N   N21       1.0  0.28386  0.71624  0.29186  1.0000
  H   H19       1.0  0.26411  0.69247  0.27776  1.0000
  C   C31       1.0  0.25611  0.53355  0.32426  1.0000
  N   N22       1.0  0.24838  0.97685  0.35405  1.0000
  N   N23       1.0  0.26720  0.50918  0.32310  1.0000
  N   N24       1.0  0.27935  0.56675  0.29207  1.0000
  H   H20       1.0  0.30313  0.57078  0.27796  1.0000
  C   C32       1.0  0.46202  0.72165  0.32417  1.0000
  N   N25       1.0  0.01872  0.77063  0.35394  1.0000
  N   N26       1.0  0.48639  0.75711  0.32300  1.0000
  N   N27       1.0  0.42882  0.71170  0.29199  1.0000
  H   H21       1.0  0.42480  0.73145  0.27785  1.0000
  N   N28       1.0  0.15027  0.85340  0.42667  1.0000
  C   C33       1.0  0.18632  0.86788  0.42727  1.0000
  N   N29       1.0  0.19958  0.84529  0.42666  1.0000
  C   C34       1.0  0.17802  0.80925  0.42725  1.0000
  N   N30       1.0  0.14217  0.79599  0.42665  1.0000
  C   C35       1.0  0.20941  0.90495  0.41922  1.0000
  C   C36       1.0  0.19199  0.78616  0.41913  1.0000
  C   C37       1.0  0.09062  0.80357  0.41917  1.0000
  O   O7        1.0  0.16801  0.75089  0.40950  1.0000
  O   O8        1.0  0.07932  0.82754  0.40956  1.0000
  O   O9        1.0  0.24468  0.91624  0.40962  1.0000
  N   N31       1.0  0.33740  0.63776  0.27021  1.0000
  C   C38       1.0  0.30292  0.63029  0.26952  1.0000
  N   N32       1.0  0.29680  0.65817  0.27015  1.0000
  C   C39       1.0  0.32380  0.69264  0.26941  1.0000
  N   N33       1.0  0.35781  0.69877  0.27012  1.0000
  C   C40       1.0  0.27429  0.59522  0.28024  1.0000
  C   C41       1.0  0.31739  0.72129  0.28008  1.0000
  C   C42       1.0  0.40034  0.67817  0.28019  1.0000
  O   O10       1.0  0.34658  0.75439  0.28113  1.0000
  O   O11       1.0  0.40423  0.64897  0.28137  1.0000
  O   O12       1.0  0.24119  0.59130  0.28131  1.0000
  C   C43       1.0  0.29620  0.77306  0.36413  1.0000
  C   C44       1.0  0.28197  0.79382  0.39830  1.0000
  C   C45       1.0  0.24442  0.77994  0.39196  1.0000
  H   H22       1.0  0.32274  0.78211  0.37226  1.0000
  C   C46       1.0  0.30627  0.82857  0.44197  1.0000
  H   H23       1.0  0.33393  0.83439  0.44462  1.0000
  H   H24       1.0  0.29747  0.82827  0.51006  1.0000
  H   H25       1.0  0.30596  0.85022  0.40555  1.0000
  N   N34       1.0  0.22785  0.79832  0.41793  1.0000
  H   H26       1.0  0.24323  0.82310  0.43495  1.0000
  C   C47       1.0  0.22253  0.52227  0.36433  1.0000
  C   C48       1.0  0.20177  0.98727  0.39848  1.0000
  C   C49       1.0  0.21565  0.96361  0.39212  1.0000
  H   H27       1.0  0.21348  0.53976  0.37246  1.0000
  C   C50       1.0  0.16701  0.97682  0.44212  1.0000
  H   H28       1.0  0.16120  0.99866  0.44478  1.0000
  H   H29       1.0  0.16730  0.96831  0.51022  1.0000
  H   H30       1.0  0.14536  0.95486  0.40566  1.0000
  N   N35       1.0  0.19726  0.92865  0.41805  1.0000
  H   H31       1.0  0.17247  0.91925  0.43505  1.0000
  C   C51       1.0  0.47330  0.69935  0.36424  1.0000
  C   C52       1.0  0.00830  0.71360  0.39841  1.0000
  C   C53       1.0  0.03196  0.75113  0.39204  1.0000
  H   H32       1.0  0.45581  0.67283  0.37243  1.0000
  C   C54       1.0  0.01874  0.68929  0.44209  1.0000
  H   H33       1.0  0.99691  0.66165  0.44476  1.0000
  H   H34       1.0  0.02725  0.69810  0.51021  1.0000
  H   H35       1.0  0.04072  0.68960  0.40566  1.0000
  N   N36       1.0  0.06692  0.76771  0.41799  1.0000
  H   H36       1.0  0.07632  0.75233  0.43500  1.0000
  C   C55       1.0  0.62768  0.31755  0.42727  1.0000
  C   C56       1.0  0.86528  0.17177  0.26945  1.0000
  C   C57       1.0  0.77391  0.23949  0.32405  1.0000
  N   N37       1.0  0.72493  0.24721  0.35386  1.0000
  N   N38       1.0  0.73845  0.22839  0.32290  1.0000
  N   N39       1.0  0.78386  0.21624  0.29186  1.0000
  H   H37       1.0  0.76411  0.19246  0.27776  1.0000
  C   C58       1.0  0.75611  0.03355  0.32426  1.0000
  N   N40       1.0  0.74838  0.47685  0.35405  1.0000
  N   N41       1.0  0.76720  0.00919  0.32310  1.0000
  N   N42       1.0  0.77935  0.06675  0.29207  1.0000
  H   H38       1.0  0.80313  0.07078  0.27796  1.0000
  C   C59       1.0  0.96202  0.22165  0.32417  1.0000
  N   N43       1.0  0.51872  0.27062  0.35394  1.0000
  N   N44       1.0  0.98639  0.25711  0.32300  1.0000
  N   N45       1.0  0.92882  0.21170  0.29199  1.0000
  H   H39       1.0  0.92480  0.23145  0.27785  1.0000
  N   N46       1.0  0.65027  0.35340  0.42667  1.0000
  C   C60       1.0  0.68632  0.36788  0.42727  1.0000
  N   N47       1.0  0.69958  0.34529  0.42666  1.0000
  C   C61       1.0  0.67802  0.30925  0.42725  1.0000
  N   N48       1.0  0.64217  0.29599  0.42665  1.0000
  C   C62       1.0  0.70941  0.40494  0.41922  1.0000
  C   C63       1.0  0.69199  0.28616  0.41913  1.0000
  C   C64       1.0  0.59062  0.30357  0.41917  1.0000
  O   O13       1.0  0.66801  0.25089  0.40950  1.0000
  O   O14       1.0  0.57932  0.32754  0.40956  1.0000
  O   O15       1.0  0.74468  0.41624  0.40962  1.0000
  N   N49       1.0  0.83740  0.13776  0.27021  1.0000
  C   C65       1.0  0.80293  0.13029  0.26952  1.0000
  N   N50       1.0  0.79680  0.15817  0.27015  1.0000
  C   C66       1.0  0.82380  0.19264  0.26941  1.0000
  N   N51       1.0  0.85781  0.19877  0.27012  1.0000
  C   C67       1.0  0.77429  0.09522  0.28024  1.0000
  C   C68       1.0  0.81739  0.22129  0.28008  1.0000
  C   C69       1.0  0.90034  0.17817  0.28019  1.0000
  O   O16       1.0  0.84658  0.25439  0.28113  1.0000
  O   O17       1.0  0.90423  0.14897  0.28137  1.0000
  O   O18       1.0  0.74119  0.09130  0.28131  1.0000
  C   C70       1.0  0.79620  0.27306  0.36413  1.0000
  C   C71       1.0  0.78197  0.29382  0.39830  1.0000
  C   C72       1.0  0.74442  0.27994  0.39196  1.0000
  H   H40       1.0  0.82274  0.28211  0.37226  1.0000
  C   C73       1.0  0.80627  0.32857  0.44197  1.0000
  H   H41       1.0  0.83393  0.33439  0.44462  1.0000
  H   H42       1.0  0.79747  0.32827  0.51006  1.0000
  H   H43       1.0  0.80596  0.35022  0.40555  1.0000
  N   N52       1.0  0.72785  0.29832  0.41793  1.0000
  H   H44       1.0  0.74323  0.32310  0.43495  1.0000
  C   C74       1.0  0.72253  0.02227  0.36433  1.0000
  C   C75       1.0  0.70177  0.48727  0.39848  1.0000
  C   C76       1.0  0.71565  0.46361  0.39212  1.0000
  H   H45       1.0  0.71348  0.03976  0.37246  1.0000
  C   C77       1.0  0.66701  0.47682  0.44212  1.0000
  H   H46       1.0  0.66120  0.49866  0.44478  1.0000
  H   H47       1.0  0.66730  0.46831  0.51022  1.0000
  H   H48       1.0  0.64536  0.45486  0.40566  1.0000
  N   N53       1.0  0.69726  0.42865  0.41805  1.0000
  H   H49       1.0  0.67247  0.41924  0.43505  1.0000
  C   C78       1.0  0.97330  0.19935  0.36424  1.0000
  C   C79       1.0  0.50830  0.21360  0.39841  1.0000
  C   C80       1.0  0.53196  0.25114  0.39204  1.0000
  H   H50       1.0  0.95581  0.17283  0.37243  1.0000
  C   C81       1.0  0.51875  0.18929  0.44209  1.0000
  H   H51       1.0  0.49691  0.16165  0.44476  1.0000
  H   H52       1.0  0.52725  0.19810  0.51021  1.0000
  H   H53       1.0  0.54072  0.18960  0.40566  1.0000
  N   N54       1.0  0.56692  0.26771  0.41799  1.0000
  H   H54       1.0  0.57632  0.25233  0.43500  1.0000
  C   C82       1.0  0.62768  0.81755  0.42727  1.0000
  C   C83       1.0  0.86529  0.67177  0.26945  1.0000
  C   C84       1.0  0.77391  0.73949  0.32405  1.0000
  N   N55       1.0  0.72493  0.74721  0.35386  1.0000
  N   N56       1.0  0.73845  0.72839  0.32290  1.0000
  N   N57       1.0  0.78386  0.71624  0.29186  1.0000
  H   H55       1.0  0.76411  0.69247  0.27776  1.0000
  C   C85       1.0  0.75611  0.53355  0.32426  1.0000
  N   N58       1.0  0.74838  0.97685  0.35405  1.0000
  N   N59       1.0  0.76720  0.50918  0.32310  1.0000
  N   N60       1.0  0.77935  0.56675  0.29207  1.0000
  H   H56       1.0  0.80313  0.57078  0.27796  1.0000
  C   C86       1.0  0.96202  0.72165  0.32417  1.0000
  N   N61       1.0  0.51872  0.77063  0.35394  1.0000
  N   N62       1.0  0.98639  0.75711  0.32300  1.0000
  N   N63       1.0  0.92882  0.71170  0.29199  1.0000
  H   H57       1.0  0.92480  0.73145  0.27785  1.0000
  N   N64       1.0  0.65027  0.85340  0.42667  1.0000
  C   C87       1.0  0.68632  0.86788  0.42727  1.0000
  N   N65       1.0  0.69958  0.84529  0.42666  1.0000
  C   C88       1.0  0.67802  0.80925  0.42725  1.0000
  N   N66       1.0  0.64217  0.79599  0.42665  1.0000
  C   C89       1.0  0.70941  0.90495  0.41922  1.0000
  C   C90       1.0  0.69199  0.78616  0.41913  1.0000
  C   C91       1.0  0.59062  0.80357  0.41917  1.0000
  O   O19       1.0  0.66801  0.75089  0.40950  1.0000
  O   O20       1.0  0.57932  0.82754  0.40956  1.0000
  O   O21       1.0  0.74468  0.91624  0.40962  1.0000
  N   N67       1.0  0.83740  0.63776  0.27021  1.0000
  C   C92       1.0  0.80293  0.63029  0.26952  1.0000
  N   N68       1.0  0.79680  0.65817  0.27015  1.0000
  C   C93       1.0  0.82380  0.69264  0.26941  1.0000
  N   N69       1.0  0.85781  0.69877  0.27012  1.0000
  C   C94       1.0  0.77430  0.59522  0.28024  1.0000
  C   C95       1.0  0.81739  0.72129  0.28008  1.0000
  C   C96       1.0  0.90034  0.67817  0.28019  1.0000
  O   O22       1.0  0.84658  0.75439  0.28113  1.0000
  O   O23       1.0  0.90424  0.64897  0.28137  1.0000
  O   O24       1.0  0.74119  0.59130  0.28131  1.0000
  C   C97       1.0  0.79620  0.77306  0.36413  1.0000
  C   C98       1.0  0.78197  0.79382  0.39830  1.0000
  C   C99       1.0  0.74442  0.77994  0.39196  1.0000
  H   H58       1.0  0.82274  0.78211  0.37226  1.0000
  C   C100      1.0  0.80627  0.82857  0.44197  1.0000
  H   H59       1.0  0.83393  0.83439  0.44462  1.0000
  H   H60       1.0  0.79747  0.82827  0.51006  1.0000
  H   H61       1.0  0.80596  0.85022  0.40555  1.0000
  N   N70       1.0  0.72785  0.79832  0.41793  1.0000
  H   H62       1.0  0.74323  0.82310  0.43495  1.0000
  C   C101      1.0  0.72253  0.52227  0.36433  1.0000
  C   C102      1.0  0.70177  0.98727  0.39848  1.0000
  C   C103      1.0  0.71565  0.96361  0.39212  1.0000
  H   H63       1.0  0.71349  0.53976  0.37246  1.0000
  C   C104      1.0  0.66701  0.97682  0.44212  1.0000
  H   H64       1.0  0.66120  0.99866  0.44478  1.0000
  H   H65       1.0  0.66730  0.96831  0.51022  1.0000
  H   H66       1.0  0.64536  0.95486  0.40566  1.0000
  N   N71       1.0  0.69726  0.92865  0.41805  1.0000
  H   H67       1.0  0.67247  0.91925  0.43505  1.0000
  C   C105      1.0  0.97330  0.69935  0.36424  1.0000
  C   C106      1.0  0.50830  0.71360  0.39841  1.0000
  C   C107      1.0  0.53196  0.75113  0.39204  1.0000
  H   H68       1.0  0.95581  0.67283  0.37243  1.0000
  C   C108      1.0  0.51875  0.68929  0.44209  1.0000
  H   H69       1.0  0.49691  0.66165  0.44476  1.0000
  H   H70       1.0  0.52725  0.69810  0.51021  1.0000
  H   H71       1.0  0.54071  0.68960  0.40566  1.0000
  N   N72       1.0  0.56692  0.76771  0.41799  1.0000
  H   H72       1.0  0.57632  0.75233  0.43500  1.0000
