data_image0
_chemical_formula_structural       C3NH2C3NOC3H2C3H2CHCHC2H3C2H3C2H3C2H3C2H3C2H3C5NCONH2C3NOC5NCONH2C5NCONH2C3NH2C5NCONH2C5NCONH2C5NCONH2C5NCONH2C5NCONH2C5NCONH2C5NCONH2C6H3C6H3C6H3C6H3C3HC3HC6H3C6H3C6H3C6H3C6H3C6H3C5NCONHC5NCONHC5NCONHC5NCONHC5NCONHC5NCONHC2H2CHC2H2C2H2CHC2H2C2H2C2H2C2H2C2H2C2H2C2H2
_chemical_formula_sum              "C216 N36 H108 O18"
_cell_length_a       37.6108
_cell_length_b       37.6109
_cell_length_c       14.8086
_cell_angle_alpha    90
_cell_angle_beta     90
_cell_angle_gamma    120

_space_group_name_H-M_alt    "P 1"
_space_group_IT_number       1

loop_
  _space_group_symop_operation_xyz
  'x, y, z'

loop_
  _atom_site_type_symbol
  _atom_site_label
  _atom_site_symmetry_multiplicity
  _atom_site_fract_x
  _atom_site_fract_y
  _atom_site_fract_z
  _atom_site_occupancy
  C   C1        1.0  0.83066  0.04501  0.34509  1.0000
  C   C2        1.0  0.82281  0.02317  0.26186  1.0000
  C   C3        1.0  0.82844  0.02406  0.10117  1.0000
  N   N1        1.0  0.83587  0.04386  0.18139  1.0000
  H   H1        1.0  0.83829  0.04008  0.04198  1.0000
  H   H2        1.0  0.85072  0.07370  0.17925  1.0000
  C   C4        1.0  0.21308  0.02232  0.26095  1.0000
  C   C5        1.0  0.22739  0.04480  0.34348  1.0000
  C   C6        1.0  0.22019  0.04138  0.17480  1.0000
  N   N2        1.0  0.20626  0.01861  0.09876  1.0000
  O   O1        1.0  0.24151  0.08242  0.16128  1.0000
  C   C7        1.0  0.22806  0.11115  0.34717  1.0000
  C   C8        1.0  0.24928  0.08884  0.34955  1.0000
  C   C9        1.0  0.29271  0.11112  0.35586  1.0000
  H   H3        1.0  0.30846  0.09541  0.35705  1.0000
  H   H4        1.0  0.19670  0.09546  0.34169  1.0000
  C   C10       1.0  0.85277  0.08906  0.35088  1.0000
  C   C11       1.0  0.89627  0.11142  0.34719  1.0000
  C   C12       1.0  0.83157  0.11131  0.35696  1.0000
  H   H5        1.0  0.80013  0.09558  0.35883  1.0000
  H   H6        1.0  0.91195  0.09575  0.34174  1.0000
  C   C13       1.0  0.81572  0.02214  0.42558  1.0000
  H   H7        1.0  0.82082  0.03691  0.48636  1.0000
  C   C14       1.0  0.21946  0.02236  0.42475  1.0000
  H   H8        1.0  0.22930  0.03747  0.48514  1.0000
  C   C15       1.0  0.21619  0.41890  0.28536  1.0000
  C   C16       1.0  0.19460  0.37570  0.28438  1.0000
  H   H9        1.0  0.18735  0.36097  0.22328  1.0000
  H   H10       1.0  0.22386  0.43403  0.22471  1.0000
  H   H11       1.0  0.18487  0.35767  0.00280  1.0000
  C   C17       1.0  0.58852  0.79174  0.28534  1.0000
  C   C18       1.0  0.63172  0.81337  0.28438  1.0000
  H   H12       1.0  0.64645  0.82084  0.22328  1.0000
  H   H13       1.0  0.57339  0.78427  0.22468  1.0000
  H   H14       1.0  0.64971  0.82170  0.00280  1.0000
  C   C19       1.0  0.21574  0.79133  0.28534  1.0000
  C   C20       1.0  0.19410  0.81290  0.28436  1.0000
  H   H15       1.0  0.18665  0.82017  0.22324  1.0000
  H   H16       1.0  0.22324  0.78370  0.22470  1.0000
  H   H17       1.0  0.18562  0.82247  0.00276  1.0000
  C   C21       1.0  0.79746  0.58239  0.28533  1.0000
  C   C22       1.0  0.81903  0.62559  0.28438  1.0000
  H   H18       1.0  0.82630  0.64032  0.22328  1.0000
  H   H19       1.0  0.78983  0.56726  0.22467  1.0000
  H   H20       1.0  0.82861  0.64357  0.00280  1.0000
  C   C23       1.0  0.42505  0.20954  0.28534  1.0000
  C   C24       1.0  0.38185  0.18792  0.28436  1.0000
  H   H21       1.0  0.36713  0.18045  0.22324  1.0000
  H   H22       1.0  0.44019  0.21702  0.22469  1.0000
  H   H23       1.0  0.36380  0.17955  0.00277  1.0000
  C   C25       1.0  0.79792  0.21006  0.28528  1.0000
  C   C26       1.0  0.81953  0.18847  0.28432  1.0000
  H   H24       1.0  0.82701  0.18122  0.22322  1.0000
  H   H25       1.0  0.79046  0.21773  0.22463  1.0000
  H   H26       1.0  0.82781  0.17874  0.00274  1.0000
  C   C27       1.0  0.22726  0.17676  0.34505  1.0000
  C   C28       1.0  0.21328  0.18461  0.26182  1.0000
  C   C29       1.0  0.19139  0.20692  0.26096  1.0000
  C   C30       1.0  0.18322  0.22124  0.34349  1.0000
  C   C31       1.0  0.17942  0.21402  0.17481  1.0000
  N   N3        1.0  0.18826  0.20009  0.09877  1.0000
  C   C32       1.0  0.20855  0.17900  0.10112  1.0000
  O   O2        1.0  0.15972  0.23535  0.16129  1.0000
  N   N4        1.0  0.22092  0.17156  0.18135  1.0000
  H   H27       1.0  0.21474  0.16915  0.04194  1.0000
  H   H28       1.0  0.23591  0.15671  0.17921  1.0000
  C   C33       1.0  0.80050  0.97897  0.26101  1.0000
  C   C34       1.0  0.78617  0.95649  0.34354  1.0000
  C   C35       1.0  0.79341  0.95990  0.17487  1.0000
  N   N5        1.0  0.80734  0.98268  0.09882  1.0000
  O   O3        1.0  0.77206  0.91887  0.16134  1.0000
  C   C36       1.0  0.96242  0.78016  0.34510  1.0000
  C   C37       1.0  0.98426  0.79415  0.26186  1.0000
  C   C38       1.0  0.02846  0.81603  0.26099  1.0000
  C   C39       1.0  0.05094  0.82420  0.34352  1.0000
  C   C40       1.0  0.04752  0.82798  0.17483  1.0000
  N   N6        1.0  0.02474  0.81914  0.09880  1.0000
  C   C41       1.0  0.98336  0.79885  0.10115  1.0000
  O   O4        1.0  0.08855  0.84770  0.16131  1.0000
  N   N7        1.0  0.96356  0.78650  0.18140  1.0000
  H   H29       1.0  0.96733  0.79268  0.04198  1.0000
  H   H30       1.0  0.93372  0.77151  0.17926  1.0000
  C   C42       1.0  0.78630  0.82453  0.34512  1.0000
  C   C43       1.0  0.80029  0.81667  0.26189  1.0000
  C   C44       1.0  0.82216  0.79435  0.26103  1.0000
  C   C45       1.0  0.83033  0.78004  0.34356  1.0000
  C   C46       1.0  0.83413  0.78724  0.17488  1.0000
  N   N8        1.0  0.82529  0.80118  0.09884  1.0000
  C   C47       1.0  0.80500  0.82228  0.10119  1.0000
  O   O5        1.0  0.85384  0.76592  0.16136  1.0000
  N   N9        1.0  0.79264  0.82972  0.18142  1.0000
  H   H31       1.0  0.79883  0.83213  0.04201  1.0000
  H   H32       1.0  0.77766  0.84458  0.17928  1.0000
  C   C48       1.0  0.18290  0.95628  0.34505  1.0000
  C   C49       1.0  0.19076  0.97812  0.26182  1.0000
  C   C50       1.0  0.18515  0.97723  0.10111  1.0000
  N   N10       1.0  0.17772  0.95743  0.18135  1.0000
  H   H33       1.0  0.17532  0.96120  0.04194  1.0000
  H   H34       1.0  0.16286  0.92759  0.17921  1.0000
  C   C51       1.0  0.05114  0.22112  0.34508  1.0000
  C   C52       1.0  0.02930  0.20714  0.26184  1.0000
  C   C53       1.0  0.98511  0.18527  0.26098  1.0000
  C   C54       1.0  0.96262  0.17709  0.34350  1.0000
  C   C55       1.0  0.96604  0.17330  0.17482  1.0000
  N   N11       1.0  0.98882  0.18214  0.09879  1.0000
  C   C56       1.0  0.03020  0.20243  0.10114  1.0000
  O   O6        1.0  0.92501  0.15358  0.16130  1.0000
  N   N12       1.0  0.05000  0.21479  0.18138  1.0000
  H   H35       1.0  0.04623  0.20859  0.04197  1.0000
  H   H36       1.0  0.07984  0.22977  0.17924  1.0000
  C   C57       1.0  0.22932  0.65014  0.32040  1.0000
  C   C58       1.0  0.23677  0.63474  0.23884  1.0000
  C   C59       1.0  0.23609  0.59641  0.23818  1.0000
  C   C60       1.0  0.22843  0.57305  0.31909  1.0000
  C   C61       1.0  0.24457  0.58382  0.15428  1.0000
  N   N13       1.0  0.25307  0.60749  0.07977  1.0000
  C   C62       1.0  0.25414  0.64387  0.08211  1.0000
  O   O7        1.0  0.24244  0.54717  0.14191  1.0000
  N   N14       1.0  0.24589  0.65705  0.16033  1.0000
  H   H37       1.0  0.26044  0.66080  0.02424  1.0000
  H   H38       1.0  0.24567  0.68282  0.15806  1.0000
  C   C63       1.0  0.35738  0.57367  0.32000  1.0000
  C   C64       1.0  0.37269  0.59657  0.23852  1.0000
  C   C65       1.0  0.41100  0.63423  0.23805  1.0000
  C   C66       1.0  0.43431  0.64984  0.31909  1.0000
  C   C67       1.0  0.42358  0.65539  0.15424  1.0000
  N   N15       1.0  0.39994  0.64028  0.07968  1.0000
  C   C68       1.0  0.36356  0.60496  0.08189  1.0000
  O   O8        1.0  0.46025  0.68990  0.14193  1.0000
  N   N16       1.0  0.35038  0.58343  0.15999  1.0000
  H   H39       1.0  0.34667  0.59437  0.02396  1.0000
  H   H40       1.0  0.32464  0.55743  0.15762  1.0000
  C   C69       1.0  0.43373  0.77816  0.32023  1.0000
  C   C70       1.0  0.41084  0.77070  0.23871  1.0000
  C   C71       1.0  0.37320  0.77138  0.23811  1.0000
  C   C72       1.0  0.35765  0.77909  0.31914  1.0000
  C   C73       1.0  0.35206  0.76285  0.15430  1.0000
  N   N17       1.0  0.36721  0.75437  0.07973  1.0000
  C   C74       1.0  0.40252  0.75329  0.08199  1.0000
  O   O9        1.0  0.31756  0.76503  0.14203  1.0000
  N   N18       1.0  0.42399  0.76154  0.16016  1.0000
  H   H41       1.0  0.41313  0.74702  0.02406  1.0000
  H   H42       1.0  0.44999  0.76180  0.15779  1.0000
  C   C75       1.0  0.78432  0.35127  0.32039  1.0000
  C   C76       1.0  0.77679  0.36653  0.23867  1.0000
  C   C77       1.0  0.77748  0.40486  0.23784  1.0000
  C   C78       1.0  0.78526  0.42826  0.31871  1.0000
  C   C79       1.0  0.76889  0.41736  0.15396  1.0000
  N   N19       1.0  0.76038  0.39365  0.07952  1.0000
  C   C80       1.0  0.75932  0.35727  0.08199  1.0000
  O   O10       1.0  0.77108  0.45403  0.14145  1.0000
  N   N20       1.0  0.76763  0.34416  0.16023  1.0000
  H   H43       1.0  0.75304  0.34033  0.02414  1.0000
  H   H44       1.0  0.76793  0.31843  0.15799  1.0000
  C   C81       1.0  0.65628  0.42758  0.31999  1.0000
  C   C82       1.0  0.64088  0.40457  0.23857  1.0000
  C   C83       1.0  0.60253  0.36694  0.23810  1.0000
  C   C84       1.0  0.57922  0.35146  0.31917  1.0000
  C   C85       1.0  0.58990  0.34575  0.15434  1.0000
  N   N21       1.0  0.61356  0.36079  0.07977  1.0000
  C   C86       1.0  0.64998  0.39606  0.08195  1.0000
  O   O11       1.0  0.55320  0.31127  0.14209  1.0000
  N   N22       1.0  0.66319  0.41761  0.16001  1.0000
  H   H45       1.0  0.66687  0.40660  0.02401  1.0000
  H   H46       1.0  0.68893  0.44362  0.15753  1.0000
  C   C87       1.0  0.57988  0.22316  0.32061  1.0000
  C   C88       1.0  0.60276  0.23076  0.23900  1.0000
  C   C89       1.0  0.64043  0.23012  0.23832  1.0000
  C   C90       1.0  0.65597  0.22231  0.31930  1.0000
  C   C91       1.0  0.66154  0.23869  0.15445  1.0000
  N   N23       1.0  0.64639  0.24724  0.07997  1.0000
  C   C92       1.0  0.61107  0.24829  0.08234  1.0000
  O   O12       1.0  0.69605  0.23653  0.14204  1.0000
  N   N24       1.0  0.58960  0.23994  0.16050  1.0000
  H   H47       1.0  0.60045  0.25458  0.02446  1.0000
  H   H48       1.0  0.56356  0.23962  0.15818  1.0000
  C   C93       1.0  0.09519  0.24306  0.35088  1.0000
  C   C94       1.0  0.11754  0.22191  0.34717  1.0000
  C   C95       1.0  0.16107  0.24313  0.34955  1.0000
  C   C96       1.0  0.18224  0.28656  0.35587  1.0000
  C   C97       1.0  0.16095  0.30877  0.35929  1.0000
  C   C98       1.0  0.11744  0.28650  0.35701  1.0000
  H   H49       1.0  0.21368  0.30231  0.35708  1.0000
  H   H50       1.0  0.10171  0.30220  0.35887  1.0000
  H   H51       1.0  0.10188  0.19056  0.34171  1.0000
  C   C99       1.0  0.76436  0.84664  0.35092  1.0000
  C   C100      1.0  0.78550  0.89014  0.34721  1.0000
  C   C101      1.0  0.76428  0.91244  0.34962  1.0000
  C   C102      1.0  0.72084  0.89017  0.35592  1.0000
  C   C103      1.0  0.69864  0.84667  0.35931  1.0000
  C   C104      1.0  0.72092  0.82544  0.35702  1.0000
  H   H52       1.0  0.70510  0.90586  0.35710  1.0000
  H   H53       1.0  0.70522  0.79400  0.35887  1.0000
  H   H54       1.0  0.81686  0.90583  0.34176  1.0000
  C   C105      1.0  0.16079  0.91223  0.35085  1.0000
  C   C106      1.0  0.11729  0.88988  0.34718  1.0000
  C   C107      1.0  0.09498  0.84635  0.34957  1.0000
  C   C108      1.0  0.11726  0.82519  0.35588  1.0000
  C   C109      1.0  0.16075  0.84648  0.35924  1.0000
  C   C110      1.0  0.18199  0.88999  0.35695  1.0000
  H   H55       1.0  0.10156  0.79374  0.35706  1.0000
  H   H56       1.0  0.21343  0.90573  0.35878  1.0000
  H   H57       1.0  0.10160  0.90554  0.34171  1.0000
  C   C111      1.0  0.91837  0.75823  0.35091  1.0000
  C   C112      1.0  0.89602  0.77937  0.34725  1.0000
  C   C113      1.0  0.85249  0.75815  0.34964  1.0000
  C   C114      1.0  0.83133  0.71471  0.35594  1.0000
  C   C115      1.0  0.85261  0.69250  0.35932  1.0000
  C   C116      1.0  0.89613  0.71479  0.35700  1.0000
  H   H58       1.0  0.79988  0.69897  0.35713  1.0000
  H   H59       1.0  0.91187  0.69908  0.35885  1.0000
  H   H60       1.0  0.91168  0.81072  0.34176  1.0000
  C   C117      1.0  0.24921  0.15465  0.35085  1.0000
  C   C118      1.0  0.31492  0.15461  0.35924  1.0000
  C   C119      1.0  0.29264  0.17584  0.35695  1.0000
  H   H61       1.0  0.30835  0.20729  0.35881  1.0000
  C   C120      1.0  0.91858  0.15494  0.34956  1.0000
  C   C121      1.0  0.89630  0.17611  0.35584  1.0000
  C   C122      1.0  0.85281  0.15483  0.35924  1.0000
  H   H62       1.0  0.91201  0.20755  0.35704  1.0000
  C   C123      1.0  0.31429  0.55001  0.33442  1.0000
  C   C124      1.0  0.29130  0.57012  0.32412  1.0000
  C   C125      1.0  0.24818  0.54973  0.33396  1.0000
  C   C126      1.0  0.22744  0.50716  0.35357  1.0000
  C   C127      1.0  0.24913  0.48531  0.36070  1.0000
  C   C128      1.0  0.29268  0.50744  0.35411  1.0000
  H   H63       1.0  0.19604  0.49150  0.35691  1.0000
  H   H64       1.0  0.30861  0.49198  0.35769  1.0000
  H   H65       1.0  0.30671  0.60111  0.31139  1.0000
  C   C129      1.0  0.45739  0.75874  0.33454  1.0000
  C   C130      1.0  0.43728  0.71566  0.32418  1.0000
  C   C131      1.0  0.45767  0.69291  0.33387  1.0000
  C   C132      1.0  0.50023  0.71473  0.35352  1.0000
  C   C133      1.0  0.52209  0.75826  0.36065  1.0000
  C   C134      1.0  0.49997  0.77970  0.35407  1.0000
  H   H66       1.0  0.51589  0.69898  0.35685  1.0000
  H   H67       1.0  0.51544  0.81109  0.35781  1.0000
  H   H68       1.0  0.40628  0.70008  0.31152  1.0000
  C   C135      1.0  0.24874  0.69321  0.33483  1.0000
  C   C136      1.0  0.29183  0.71618  0.32448  1.0000
  C   C137      1.0  0.31456  0.75931  0.33412  1.0000
  C   C138      1.0  0.29273  0.78007  0.35356  1.0000
  C   C139      1.0  0.24919  0.75838  0.36073  1.0000
  C   C140      1.0  0.22777  0.71481  0.35437  1.0000
  H   H69       1.0  0.30846  0.81147  0.35676  1.0000
  H   H70       1.0  0.19638  0.69890  0.35786  1.0000
  H   H71       1.0  0.30742  0.70077  0.31176  1.0000
  C   C141      1.0  0.69938  0.45129  0.33415  1.0000
  C   C142      1.0  0.72238  0.43120  0.32375  1.0000
  C   C143      1.0  0.76550  0.45159  0.33359  1.0000
  C   C144      1.0  0.78622  0.49413  0.35349  1.0000
  C   C145      1.0  0.76451  0.51597  0.36062  1.0000
  C   C146      1.0  0.72095  0.49382  0.35413  1.0000
  H   H72       1.0  0.81762  0.50982  0.35660  1.0000
  H   H73       1.0  0.70503  0.50929  0.35773  1.0000
  H   H74       1.0  0.70698  0.40021  0.31096  1.0000
  C   C147      1.0  0.55618  0.24256  0.33479  1.0000
  C   C148      1.0  0.57628  0.28565  0.32445  1.0000
  C   C149      1.0  0.55587  0.30838  0.33401  1.0000
  C   C150      1.0  0.51331  0.28655  0.35366  1.0000
  C   C151      1.0  0.49146  0.24301  0.36071  1.0000
  C   C152      1.0  0.51360  0.22159  0.35435  1.0000
  H   H75       1.0  0.49761  0.30227  0.35667  1.0000
  H   H76       1.0  0.49813  0.19019  0.35787  1.0000
  H   H77       1.0  0.60729  0.30124  0.31190  1.0000
  C   C153      1.0  0.76491  0.30817  0.33461  1.0000
  C   C154      1.0  0.72181  0.28520  0.32436  1.0000
  C   C155      1.0  0.69908  0.24206  0.33401  1.0000
  C   C156      1.0  0.72090  0.22132  0.35359  1.0000
  C   C157      1.0  0.76444  0.24300  0.36062  1.0000
  C   C158      1.0  0.78588  0.28656  0.35410  1.0000
  H   H78       1.0  0.70516  0.18992  0.35679  1.0000
  H   H79       1.0  0.81727  0.30249  0.35768  1.0000
  H   H80       1.0  0.70622  0.30062  0.31182  1.0000
  C   C159      1.0  0.18296  0.35279  0.36531  1.0000
  C   C160      1.0  0.19370  0.37459  0.44894  1.0000
  C   C161      1.0  0.21580  0.41878  0.44987  1.0000
  C   C162      1.0  0.22722  0.44130  0.36715  1.0000
  C   C163      1.0  0.22519  0.43789  0.53611  1.0000
  N   N25       1.0  0.21366  0.41510  0.61240  1.0000
  C   C164      1.0  0.19297  0.37369  0.61011  1.0000
  O   O13       1.0  0.24573  0.47900  0.54900  1.0000
  N   N26       1.0  0.18320  0.35387  0.52964  1.0000
  H   H81       1.0  0.16828  0.32400  0.53167  1.0000
  C   C165      1.0  0.65461  0.82465  0.36531  1.0000
  C   C166      1.0  0.63281  0.81359  0.44894  1.0000
  C   C167      1.0  0.58862  0.79148  0.44985  1.0000
  C   C168      1.0  0.56610  0.78036  0.36713  1.0000
  C   C169      1.0  0.56950  0.78176  0.53608  1.0000
  N   N27       1.0  0.59229  0.79304  0.61238  1.0000
  C   C170      1.0  0.63370  0.81377  0.61011  1.0000
  O   O14       1.0  0.52840  0.76119  0.54896  1.0000
  N   N28       1.0  0.65353  0.82383  0.52964  1.0000
  H   H82       1.0  0.68339  0.83878  0.53168  1.0000
  C   C171      1.0  0.18278  0.82448  0.36528  1.0000
  C   C172      1.0  0.19381  0.81372  0.44892  1.0000
  C   C173      1.0  0.21593  0.79165  0.44986  1.0000
  C   C174      1.0  0.22708  0.78027  0.36715  1.0000
  C   C175      1.0  0.22562  0.78224  0.53612  1.0000
  N   N29       1.0  0.21430  0.79372  0.61240  1.0000
  C   C176      1.0  0.19357  0.81439  0.61009  1.0000
  O   O15       1.0  0.24621  0.76173  0.54903  1.0000
  N   N30       1.0  0.18353  0.82418  0.52961  1.0000
  H   H83       1.0  0.16857  0.83908  0.53162  1.0000
  C   C177      1.0  0.83062  0.64848  0.36532  1.0000
  C   C178      1.0  0.81986  0.62668  0.44894  1.0000
  C   C179      1.0  0.79779  0.58249  0.44984  1.0000
  C   C180      1.0  0.78640  0.55997  0.36711  1.0000
  C   C181      1.0  0.78837  0.56336  0.53607  1.0000
  N   N31       1.0  0.79986  0.58615  0.61238  1.0000
  C   C182      1.0  0.82053  0.62755  0.61011  1.0000
  O   O16       1.0  0.76786  0.52226  0.54894  1.0000
  N   N32       1.0  0.83032  0.64739  0.52965  1.0000
  H   H84       1.0  0.84522  0.67726  0.53169  1.0000
  C   C183      1.0  0.35894  0.17663  0.36528  1.0000
  C   C184      1.0  0.38073  0.18768  0.44892  1.0000
  C   C185      1.0  0.42493  0.20978  0.44985  1.0000
  C   C186      1.0  0.44745  0.22090  0.36714  1.0000
  C   C187      1.0  0.44403  0.21949  0.53611  1.0000
  N   N33       1.0  0.42123  0.20820  0.61239  1.0000
  C   C188      1.0  0.37983  0.18748  0.61009  1.0000
  O   O17       1.0  0.48513  0.24006  0.54901  1.0000
  N   N34       1.0  0.36001  0.17743  0.52961  1.0000
  H   H85       1.0  0.33014  0.16248  0.53162  1.0000
  C   C189      1.0  0.83080  0.17683  0.36525  1.0000
  C   C190      1.0  0.81973  0.18757  0.44888  1.0000
  C   C191      1.0  0.79763  0.20966  0.44979  1.0000
  C   C192      1.0  0.78654  0.22109  0.36707  1.0000
  C   C193      1.0  0.78791  0.21906  0.53603  1.0000
  N   N35       1.0  0.79918  0.20753  0.61233  1.0000
  C   C194      1.0  0.81989  0.18684  0.61005  1.0000
  O   O18       1.0  0.76735  0.23960  0.54892  1.0000
  N   N36       1.0  0.82995  0.17707  0.52958  1.0000
  H   H86       1.0  0.84490  0.16215  0.53161  1.0000
  C   C195      1.0  0.19775  0.21333  0.42475  1.0000
  C   C196      1.0  0.21932  0.19169  0.42554  1.0000
  H   H87       1.0  0.22897  0.18657  0.48633  1.0000
  H   H88       1.0  0.19248  0.22316  0.48514  1.0000
  C   C197      1.0  0.79407  0.97893  0.42479  1.0000
  H   H89       1.0  0.78422  0.96382  0.48518  1.0000
  C   C198      1.0  0.02851  0.80968  0.42479  1.0000
  C   C199      1.0  0.98530  0.78812  0.42559  1.0000
  H   H90       1.0  0.97053  0.77847  0.48637  1.0000
  H   H91       1.0  0.04362  0.81495  0.48517  1.0000
  C   C200      1.0  0.81581  0.78796  0.42483  1.0000
  C   C201      1.0  0.79425  0.80961  0.42562  1.0000
  H   H92       1.0  0.78460  0.81472  0.48640  1.0000
  H   H93       1.0  0.82108  0.77812  0.48521  1.0000
  C   C202      1.0  0.19782  0.97915  0.42554  1.0000
  H   H94       1.0  0.19270  0.96439  0.48633  1.0000
  C   C203      1.0  0.98506  0.19162  0.42477  1.0000
  C   C204      1.0  0.02826  0.21318  0.42557  1.0000
  H   H95       1.0  0.04303  0.22282  0.48635  1.0000
  H   H96       1.0  0.96995  0.18634  0.48515  1.0000
  C   C205      1.0  0.21681  0.58673  0.39683  1.0000
  C   C206      1.0  0.21723  0.62448  0.39747  1.0000
  H   H97       1.0  0.21482  0.63576  0.45872  1.0000
  H   H98       1.0  0.21430  0.57277  0.45778  1.0000
  C   C207      1.0  0.42069  0.62441  0.39663  1.0000
  C   C208      1.0  0.38297  0.58706  0.39715  1.0000
  H   H99       1.0  0.37167  0.57327  0.45832  1.0000
  H   H100      1.0  0.43466  0.63580  0.45760  1.0000
  C   C209      1.0  0.38289  0.79068  0.39691  1.0000
  C   C210      1.0  0.42024  0.79030  0.39739  1.0000
  H   H101      1.0  0.43398  0.79263  0.45854  1.0000
  H   H102      1.0  0.37145  0.79317  0.45789  1.0000
  C   C211      1.0  0.79703  0.41479  0.39653  1.0000
  C   C212      1.0  0.79647  0.37698  0.39733  1.0000
  H   H103      1.0  0.79907  0.36574  0.45847  1.0000
  H   H104      1.0  0.79963  0.42885  0.45739  1.0000
  C   C213      1.0  0.59286  0.37690  0.39659  1.0000
  C   C214      1.0  0.63058  0.41423  0.39698  1.0000
  H   H105      1.0  0.64183  0.42825  0.45797  1.0000
  H   H106      1.0  0.57872  0.36567  0.45749  1.0000
  C   C215      1.0  0.63067  0.21053  0.39697  1.0000
  C   C216      1.0  0.59335  0.21093  0.39757  1.0000
  H   H107      1.0  0.57941  0.20823  0.45865  1.0000
  H   H108      1.0  0.64207  0.20774  0.45774  1.0000
