data_image0
_chemical_formula_structural       C3NC3NC5NC4NC35H25C21H18C16H16CNC4H2NH2CNC3H2NH2C2NC4H2NH2CNC4H2NH2CNC3H2NH2C2NC4H2NH2C18H17C3NC3NC2NC5NC34H24C3NC3NC5NC5NC36H26C4HCNHNH2C4HC2NHNH2C3HCNHNH2C4HCNHNH2C4HC2NHNH2C3HCNHNH2
_chemical_formula_sum              "C264 N36 H174"
_cell_length_a       67.217
_cell_length_b       67.217
_cell_length_c       14.9463
_cell_angle_alpha    89.8026
_cell_angle_beta     90.1974
_cell_angle_gamma    120

_space_group_name_H-M_alt    "P 1"
_space_group_IT_number       1

loop_
  _space_group_symop_operation_xyz
  'x, y, z'

loop_
  _atom_site_type_symbol
  _atom_site_label
  _atom_site_symmetry_multiplicity
  _atom_site_fract_x
  _atom_site_fract_y
  _atom_site_fract_z
  _atom_site_occupancy
  C   C1        1.0  0.04455  0.62887  0.33535  1.0000
  C   C2        1.0  0.02083  0.61700  0.33543  1.0000
  C   C3        1.0  0.01329  0.59350  0.33513  1.0000
  N   N1        1.0  0.03269  0.59202  0.33529  1.0000
  C   C4        1.0  0.05209  0.61290  0.33553  1.0000
  C   C5        1.0  0.07550  0.61850  0.33549  1.0000
  C   C6        1.0  0.08300  0.60214  0.33533  1.0000
  N   N2        1.0  0.07002  0.57897  0.33520  1.0000
  C   C7        1.0  0.08300  0.56879  0.33515  1.0000
  C   C8        1.0  0.10583  0.58661  0.33497  1.0000
  C   C9        1.0  0.10583  0.60712  0.33565  1.0000
  C   C10       1.0  0.07550  0.54492  0.33498  1.0000
  C   C11       1.0  0.05209  0.52710  0.33498  1.0000
  N   N3        1.0  0.03270  0.52859  0.33524  1.0000
  C   C12       1.0  0.01331  0.50771  0.33557  1.0000
  C   C13       1.0  0.02084  0.49174  0.33533  1.0000
  C   C14       1.0  0.04456  0.50360  0.33529  1.0000
  C   C15       1.0  0.98990  0.50211  0.33560  1.0000
  N   N4        1.0  0.99537  0.54164  0.33537  1.0000
  C   C16       1.0  0.98238  0.55182  0.33532  1.0000
  C   C17       1.0  0.95956  0.53398  0.33503  1.0000
  C   C18       1.0  0.95957  0.51347  0.33569  1.0000
  C   C19       1.0  0.98988  0.57569  0.33522  1.0000
  C   C20       1.0  0.97254  0.58203  0.33519  1.0000
  C   C21       1.0  0.96551  0.58764  0.25446  1.0000
  C   C22       1.0  0.94717  0.59212  0.25357  1.0000
  C   C23       1.0  0.93509  0.59094  0.33288  1.0000
  C   C24       1.0  0.91567  0.59441  0.33133  1.0000
  C   C25       1.0  0.88015  0.58878  0.25963  1.0000
  C   C26       1.0  0.89946  0.58582  0.26044  1.0000
  C   C27       1.0  0.97257  0.47841  0.33595  1.0000
  C   C28       1.0  0.96096  0.46749  0.25627  1.0000
  C   C29       1.0  0.94267  0.44466  0.25783  1.0000
  C   C30       1.0  0.93541  0.43192  0.33870  1.0000
  C   C31       1.0  0.91619  0.40891  0.34043  1.0000
  C   C32       1.0  0.91232  0.39316  0.27056  1.0000
  C   C33       1.0  0.89307  0.37085  0.27086  1.0000
  C   C34       1.0  0.87708  0.36329  0.34190  1.0000
  C   C35       1.0  0.09283  0.53855  0.33484  1.0000
  C   C36       1.0  0.12998  0.52920  0.33255  1.0000
  C   C37       1.0  0.11795  0.52834  0.25315  1.0000
  C   C38       1.0  0.09976  0.53304  0.25403  1.0000
  C   C39       1.0  0.14920  0.52541  0.33107  1.0000
  C   C40       1.0  0.16541  0.53398  0.26044  1.0000
  C   C41       1.0  0.18448  0.53064  0.25959  1.0000
  C   C42       1.0  0.18830  0.51890  0.33020  1.0000
  C   C43       1.0  0.09284  0.64219  0.33572  1.0000
  C   C44       1.0  0.10446  0.65312  0.25609  1.0000
  C   C45       1.0  0.12289  0.67588  0.25765  1.0000
  C   C46       1.0  0.13028  0.68855  0.33850  1.0000
  C   C47       1.0  0.14971  0.71144  0.34029  1.0000
  C   C48       1.0  0.18927  0.75677  0.34172  1.0000
  C   C49       1.0  0.17326  0.74946  0.27054  1.0000
  C   C50       1.0  0.15379  0.72730  0.27025  1.0000
  H   H1        1.0  0.17545  0.76039  0.21880  1.0000
  H   H2        1.0  0.14244  0.72296  0.21826  1.0000
  H   H3        1.0  0.13141  0.68281  0.19904  1.0000
  H   H4        1.0  0.10003  0.64432  0.19683  1.0000
  H   H5        1.0  0.05447  0.64637  0.33527  1.0000
  H   H6        1.0  0.01091  0.62459  0.33563  1.0000
  H   H7        1.0  0.03269  0.57774  0.33527  1.0000
  H   H8        1.0  0.03270  0.54287  0.33521  1.0000
  H   H9        1.0  0.12030  0.62296  0.33610  1.0000
  H   H10       1.0  0.12030  0.58525  0.33465  1.0000
  H   H11       1.0  0.09179  0.53269  0.19510  1.0000
  H   H12       1.0  0.12232  0.52426  0.19330  1.0000
  H   H13       1.0  0.05448  0.49601  0.33542  1.0000
  H   H14       1.0  0.01093  0.47424  0.33527  1.0000
  H   H15       1.0  0.94509  0.49763  0.33604  1.0000
  H   H16       1.0  0.96532  0.47632  0.19696  1.0000
  H   H17       1.0  0.93416  0.43771  0.19917  1.0000
  H   H18       1.0  0.89103  0.36001  0.21927  1.0000
  H   H19       1.0  0.92368  0.39768  0.21869  1.0000
  H   H20       1.0  0.90118  0.57671  0.20935  1.0000
  H   H21       1.0  0.86868  0.58192  0.20787  1.0000
  H   H22       1.0  0.94270  0.59625  0.19375  1.0000
  H   H23       1.0  0.97348  0.58815  0.19554  1.0000
  H   H24       1.0  0.16385  0.54331  0.20950  1.0000
  H   H25       1.0  0.19597  0.53748  0.20802  1.0000
  C   C51       1.0  0.52272  0.59914  0.33792  1.0000
  C   C52       1.0  0.50489  0.60413  0.33769  1.0000
  C   C53       1.0  0.48438  0.58362  0.33836  1.0000
  C   C54       1.0  0.50386  0.46291  0.25717  1.0000
  C   C55       1.0  0.49938  0.44009  0.25625  1.0000
  C   C56       1.0  0.50271  0.37640  0.26225  1.0000
  C   C57       1.0  0.50568  0.39867  0.26312  1.0000
  C   C58       1.0  0.62397  0.57850  0.25871  1.0000
  C   C59       1.0  0.64680  0.58305  0.26007  1.0000
  C   C60       1.0  0.69831  0.60421  0.27241  1.0000
  C   C61       1.0  0.72062  0.60727  0.27247  1.0000
  C   C62       1.0  0.72822  0.59871  0.34330  1.0000
  C   C63       1.0  0.56317  0.67465  0.25592  1.0000
  C   C64       1.0  0.55848  0.65176  0.25681  1.0000
  C   C65       1.0  0.55752  0.71645  0.26317  1.0000
  C   C66       1.0  0.56084  0.73886  0.26230  1.0000
  C   C67       1.0  0.43842  0.53639  0.25852  1.0000
  C   C68       1.0  0.41566  0.53205  0.25990  1.0000
  C   C69       1.0  0.33472  0.51740  0.34316  1.0000
  C   C70       1.0  0.34207  0.50878  0.27217  1.0000
  C   C71       1.0  0.36423  0.51147  0.27213  1.0000
  H   H26       1.0  0.33117  0.50013  0.22035  1.0000
  H   H27       1.0  0.36860  0.50454  0.22023  1.0000
  H   H28       1.0  0.40874  0.53371  0.20122  1.0000
  H   H29       1.0  0.44724  0.54083  0.19931  1.0000
  H   H30       1.0  0.46854  0.58226  0.33880  1.0000
  H   H31       1.0  0.55881  0.64422  0.19787  1.0000
  H   H32       1.0  0.56726  0.68320  0.19607  1.0000
  H   H33       1.0  0.59549  0.64338  0.33814  1.0000
  H   H34       1.0  0.61512  0.57415  0.19945  1.0000
  H   H35       1.0  0.65374  0.58161  0.20131  1.0000
  H   H36       1.0  0.73144  0.61617  0.22084  1.0000
  H   H37       1.0  0.69376  0.61115  0.22071  1.0000
  H   H38       1.0  0.51480  0.40959  0.21206  1.0000
  H   H39       1.0  0.50960  0.37189  0.21057  1.0000
  H   H40       1.0  0.49526  0.43160  0.19641  1.0000
  H   H41       1.0  0.50338  0.47047  0.19825  1.0000
  H   H42       1.0  0.54820  0.70564  0.21220  1.0000
  H   H43       1.0  0.55403  0.74359  0.21067  1.0000
  C   C72       1.0  0.62848  0.12591  0.25835  1.0000
  C   C73       1.0  0.65130  0.14425  0.25696  1.0000
  C   C74       1.0  0.71498  0.21128  0.26152  1.0000
  C   C75       1.0  0.69272  0.19198  0.26288  1.0000
  C   C76       1.0  0.51299  0.13050  0.26112  1.0000
  C   C77       1.0  0.50842  0.14877  0.26254  1.0000
  C   C78       1.0  0.48727  0.17910  0.27502  1.0000
  C   C79       1.0  0.48422  0.19836  0.27511  1.0000
  C   C80       1.0  0.41696  0.97361  0.25654  1.0000
  C   C81       1.0  0.43985  0.99180  0.25793  1.0000
  C   C82       1.0  0.37515  0.92615  0.26285  1.0000
  C   C83       1.0  0.35274  0.90707  0.26148  1.0000
  C   C84       1.0  0.55512  0.98705  0.26091  1.0000
  C   C85       1.0  0.55948  0.96864  0.26231  1.0000
  C   C86       1.0  0.58273  0.91830  0.27471  1.0000
  C   C87       1.0  0.58004  0.93776  0.27464  1.0000
  H   H44       1.0  0.59140  0.91614  0.22291  1.0000
  H   H45       1.0  0.58698  0.94915  0.22274  1.0000
  H   H46       1.0  0.55780  0.96013  0.20367  1.0000
  H   H47       1.0  0.55068  0.99151  0.20167  1.0000
  H   H48       1.0  0.44747  0.99982  0.19916  1.0000
  H   H49       1.0  0.40850  0.96928  0.19651  1.0000
  H   H50       1.0  0.51735  0.12611  0.20184  1.0000
  H   H51       1.0  0.50989  0.15726  0.20382  1.0000
  H   H52       1.0  0.47533  0.20036  0.22347  1.0000
  H   H53       1.0  0.48034  0.16771  0.22327  1.0000
  H   H54       1.0  0.68173  0.19021  0.21202  1.0000
  H   H55       1.0  0.71943  0.22271  0.20967  1.0000
  H   H56       1.0  0.65972  0.14867  0.19695  1.0000
  H   H57       1.0  0.62085  0.11790  0.19959  1.0000
  H   H58       1.0  0.38604  0.92774  0.21218  1.0000
  H   H59       1.0  0.34810  0.89563  0.20981  1.0000
  C   C88       1.0  0.30419  0.52169  0.26873  1.0000
  N   N5        1.0  0.28307  0.51956  0.27095  1.0000
  C   C89       1.0  0.24710  0.51056  0.33296  1.0000
  C   C90       1.0  0.23260  0.50339  0.25595  1.0000
  C   C91       1.0  0.21330  0.50661  0.25597  1.0000
  C   C92       1.0  0.20789  0.51596  0.33030  1.0000
  H   H60       1.0  0.20254  0.50137  0.20165  1.0000
  H   H61       1.0  0.31422  0.52895  0.21357  1.0000
  N   N6        1.0  0.23599  0.49304  0.18421  1.0000
  H   H62       1.0  0.24774  0.48868  0.18434  1.0000
  H   H63       1.0  0.22535  0.48772  0.13388  1.0000
  C   C93       1.0  0.56982  0.86752  0.27130  1.0000
  N   N7        1.0  0.57195  0.84853  0.27353  1.0000
  C   C94       1.0  0.58095  0.82146  0.33554  1.0000
  C   C95       1.0  0.58813  0.81424  0.25858  1.0000
  C   C96       1.0  0.58490  0.79172  0.25864  1.0000
  H   H64       1.0  0.59016  0.78628  0.20441  1.0000
  H   H65       1.0  0.56253  0.87035  0.21619  1.0000
  N   N8        1.0  0.59853  0.82810  0.18691  1.0000
  H   H66       1.0  0.60274  0.84417  0.18661  1.0000
  H   H67       1.0  0.60371  0.82280  0.13629  1.0000
  C   C97       1.0  0.20910  0.77914  0.34189  1.0000
  C   C98       1.0  0.22405  0.78737  0.26784  1.0000
  N   N9        1.0  0.24304  0.80848  0.27041  1.0000
  C   C99       1.0  0.27003  0.84442  0.33296  1.0000
  C   C100      1.0  0.27737  0.85896  0.25610  1.0000
  C   C101      1.0  0.29990  0.87826  0.25664  1.0000
  C   C102      1.0  0.31465  0.88361  0.33133  1.0000
  H   H68       1.0  0.30542  0.88907  0.20250  1.0000
  H   H69       1.0  0.22128  0.77736  0.21267  1.0000
  N   N10       1.0  0.26363  0.85566  0.18408  1.0000
  H   H70       1.0  0.24756  0.84381  0.18344  1.0000
  H   H71       1.0  0.26900  0.86623  0.13354  1.0000
  C   C103      1.0  0.75909  0.59520  0.26889  1.0000
  N   N11       1.0  0.78037  0.59773  0.27117  1.0000
  C   C104      1.0  0.81657  0.60728  0.33330  1.0000
  C   C105      1.0  0.83102  0.61481  0.25640  1.0000
  C   C106      1.0  0.85059  0.61202  0.25643  1.0000
  C   C107      1.0  0.85626  0.60270  0.33061  1.0000
  H   H72       1.0  0.86133  0.61752  0.20222  1.0000
  H   H73       1.0  0.74906  0.58788  0.21368  1.0000
  N   N12       1.0  0.82738  0.62515  0.18485  1.0000
  H   H74       1.0  0.81532  0.62907  0.18460  1.0000
  H   H75       1.0  0.83789  0.63058  0.13427  1.0000
  C   C108      1.0  0.49634  0.24892  0.27159  1.0000
  N   N13       1.0  0.49381  0.26767  0.27385  1.0000
  C   C109      1.0  0.48427  0.29423  0.33596  1.0000
  C   C110      1.0  0.47674  0.30126  0.25903  1.0000
  C   C111      1.0  0.47953  0.32362  0.25902  1.0000
  H   H76       1.0  0.47403  0.32893  0.20476  1.0000
  H   H77       1.0  0.50363  0.24628  0.21633  1.0000
  N   N14       1.0  0.46644  0.28739  0.18742  1.0000
  H   H78       1.0  0.46237  0.27136  0.18758  1.0000
  H   H79       1.0  0.46088  0.29250  0.13714  1.0000
  C   C112      1.0  0.85750  0.34076  0.34214  1.0000
  C   C113      1.0  0.84250  0.33237  0.26807  1.0000
  N   N15       1.0  0.82375  0.31109  0.27068  1.0000
  C   C114      1.0  0.79726  0.27493  0.33331  1.0000
  C   C115      1.0  0.79011  0.26043  0.25657  1.0000
  C   C116      1.0  0.76775  0.24087  0.25709  1.0000
  C   C117      1.0  0.75300  0.23524  0.33164  1.0000
  H   H80       1.0  0.76237  0.23008  0.20302  1.0000
  H   H81       1.0  0.84505  0.34237  0.21284  1.0000
  N   N16       1.0  0.80388  0.26401  0.18471  1.0000
  H   H82       1.0  0.81987  0.27608  0.18409  1.0000
  H   H83       1.0  0.79864  0.25347  0.13424  1.0000
  C   C118      1.0  0.98239  0.51847  0.33543  1.0000
  C   C119      1.0  0.94253  0.58555  0.41362  1.0000
  C   C120      1.0  0.96095  0.58119  0.41494  1.0000
  C   C121      1.0  0.91163  0.60609  0.40149  1.0000
  C   C122      1.0  0.89216  0.60877  0.40147  1.0000
  C   C123      1.0  0.87609  0.60017  0.33047  1.0000
  C   C124      1.0  0.94750  0.44299  0.41796  1.0000
  C   C125      1.0  0.96570  0.46588  0.41684  1.0000
  C   C126      1.0  0.88096  0.37878  0.41243  1.0000
  C   C127      1.0  0.90004  0.40119  0.41130  1.0000
  C   C128      1.0  0.10439  0.53911  0.41464  1.0000
  C   C129      1.0  0.12266  0.53454  0.41333  1.0000
  C   C130      1.0  0.17224  0.51032  0.40097  1.0000
  C   C131      1.0  0.15299  0.51339  0.40100  1.0000
  C   C132      1.0  0.09983  0.65466  0.41656  1.0000
  C   C133      1.0  0.11816  0.67748  0.41767  1.0000
  C   C134      1.0  0.16588  0.71890  0.41132  1.0000
  C   C135      1.0  0.18517  0.74117  0.41246  1.0000
  H   H84       1.0  0.19661  0.74567  0.46428  1.0000
  H   H85       1.0  0.16412  0.70796  0.46233  1.0000
  H   H86       1.0  0.12260  0.68595  0.47758  1.0000
  H   H87       1.0  0.09183  0.64708  0.47540  1.0000
  H   H88       1.0  0.09997  0.54345  0.47391  1.0000
  H   H89       1.0  0.13113  0.53600  0.47208  1.0000
  H   H90       1.0  0.94508  0.53534  0.33466  1.0000
  H   H91       1.0  0.97371  0.47345  0.47569  1.0000
  H   H92       1.0  0.94317  0.43447  0.47786  1.0000
  H   H93       1.0  0.90165  0.41204  0.46219  1.0000
  H   H94       1.0  0.86953  0.37409  0.46418  1.0000
  H   H95       1.0  0.96542  0.57675  0.47413  1.0000
  H   H96       1.0  0.93402  0.58385  0.47229  1.0000
  H   H97       1.0  0.89000  0.61743  0.45330  1.0000
  H   H98       1.0  0.92301  0.61302  0.45340  1.0000
  H   H99       1.0  0.14158  0.50645  0.45268  1.0000
  H   H100      1.0  0.17422  0.50142  0.45261  1.0000
  C   C136      1.0  0.46263  0.50060  0.33804  1.0000
  C   C137      1.0  0.47449  0.48874  0.33814  1.0000
  C   C138      1.0  0.49799  0.50471  0.33788  1.0000
  N   N17       1.0  0.49948  0.52559  0.33806  1.0000
  C   C139      1.0  0.47860  0.52410  0.33826  1.0000
  C   C140      1.0  0.47300  0.54192  0.33817  1.0000
  C   C141      1.0  0.48937  0.56579  0.33804  1.0000
  N   N18       1.0  0.51254  0.57597  0.33796  1.0000
  C   C142      1.0  0.54659  0.61550  0.33777  1.0000
  C   C143      1.0  0.56440  0.60990  0.33778  1.0000
  N   N19       1.0  0.56291  0.58902  0.33805  1.0000
  C   C144      1.0  0.58379  0.59051  0.33832  1.0000
  C   C145      1.0  0.59976  0.61401  0.33806  1.0000
  C   C146      1.0  0.58790  0.62587  0.33804  1.0000
  C   C147      1.0  0.58939  0.57270  0.33832  1.0000
  C   C148      1.0  0.57303  0.54883  0.33818  1.0000
  N   N20       1.0  0.54986  0.53865  0.33814  1.0000
  C   C149      1.0  0.53968  0.51548  0.33808  1.0000
  C   C150      1.0  0.55751  0.51049  0.33779  1.0000
  C   C151      1.0  0.57802  0.53100  0.33842  1.0000
  C   C152      1.0  0.51581  0.49911  0.33797  1.0000
  C   C153      1.0  0.50946  0.47542  0.33793  1.0000
  C   C154      1.0  0.50054  0.42906  0.33555  1.0000
  C   C155      1.0  0.50593  0.44176  0.41630  1.0000
  C   C156      1.0  0.51027  0.46453  0.41767  1.0000
  C   C157      1.0  0.49707  0.40617  0.33397  1.0000
  C   C158      1.0  0.48538  0.39034  0.40409  1.0000
  C   C159      1.0  0.48270  0.36818  0.40406  1.0000
  C   C160      1.0  0.49132  0.36084  0.33308  1.0000
  C   C161      1.0  0.61309  0.57906  0.33850  1.0000
  C   C162      1.0  0.65959  0.58841  0.34085  1.0000
  C   C163      1.0  0.64854  0.58928  0.42022  1.0000
  C   C164      1.0  0.62565  0.58459  0.41931  1.0000
  C   C165      1.0  0.68260  0.59220  0.34236  1.0000
  C   C166      1.0  0.71276  0.58697  0.41390  1.0000
  C   C167      1.0  0.69035  0.58364  0.41302  1.0000
  C   C168      1.0  0.55295  0.63920  0.33761  1.0000
  C   C169      1.0  0.55241  0.65008  0.41743  1.0000
  C   C170      1.0  0.55696  0.67292  0.41610  1.0000
  C   C171      1.0  0.56230  0.68569  0.33531  1.0000
  C   C172      1.0  0.56608  0.70870  0.33383  1.0000
  C   C173      1.0  0.57258  0.75432  0.33291  1.0000
  C   C174      1.0  0.58114  0.74672  0.40374  1.0000
  C   C175      1.0  0.57809  0.72442  0.40377  1.0000
  C   C176      1.0  0.44931  0.53557  0.33824  1.0000
  C   C177      1.0  0.43681  0.52996  0.41901  1.0000
  C   C178      1.0  0.40295  0.52665  0.34066  1.0000
  C   C179      1.0  0.41399  0.52548  0.41994  1.0000
  C   C180      1.0  0.38006  0.52317  0.34224  1.0000
  C   C181      1.0  0.37255  0.53176  0.41312  1.0000
  C   C182      1.0  0.35028  0.52880  0.41398  1.0000
  H   H101      1.0  0.34576  0.53567  0.46570  1.0000
  H   H102      1.0  0.38347  0.54088  0.46418  1.0000
  H   H103      1.0  0.40549  0.52135  0.47978  1.0000
  H   H104      1.0  0.44437  0.52947  0.47792  1.0000
  H   H105      1.0  0.44513  0.49301  0.33790  1.0000
  H   H106      1.0  0.46691  0.47123  0.33830  1.0000
  H   H107      1.0  0.51376  0.53987  0.33806  1.0000
  H   H108      1.0  0.54863  0.57474  0.33805  1.0000
  H   H109      1.0  0.50626  0.61997  0.33744  1.0000
  H   H110      1.0  0.54803  0.64122  0.47667  1.0000
  H   H111      1.0  0.55549  0.67984  0.47484  1.0000
  H   H112      1.0  0.61727  0.62160  0.33794  1.0000
  H   H113      1.0  0.55615  0.49465  0.33739  1.0000
  H   H114      1.0  0.59387  0.53237  0.33874  1.0000
  H   H115      1.0  0.61811  0.58493  0.47824  1.0000
  H   H116      1.0  0.65709  0.59338  0.48008  1.0000
  H   H117      1.0  0.67953  0.57433  0.46399  1.0000
  H   H118      1.0  0.71748  0.58015  0.46553  1.0000
  H   H119      1.0  0.51473  0.47335  0.47686  1.0000
  H   H120      1.0  0.50761  0.43486  0.47498  1.0000
  H   H121      1.0  0.47404  0.35729  0.45588  1.0000
  H   H122      1.0  0.47843  0.39470  0.45597  1.0000
  H   H123      1.0  0.58503  0.71987  0.45547  1.0000
  H   H124      1.0  0.59005  0.75754  0.45535  1.0000
  C   C183      1.0  0.59090  0.04694  0.34008  1.0000
  C   C184      1.0  0.60276  0.07066  0.34000  1.0000
  C   C185      1.0  0.58679  0.07819  0.33984  1.0000
  N   N21       1.0  0.56591  0.05880  0.34024  1.0000
  C   C186      1.0  0.56740  0.03940  0.34046  1.0000
  C   C187      1.0  0.54959  0.01599  0.34049  1.0000
  C   C188      1.0  0.52571  0.00849  0.34031  1.0000
  N   N22       1.0  0.51553  0.02147  0.34012  1.0000
  C   C189      1.0  0.49236  0.00849  0.33995  1.0000
  C   C190      1.0  0.48737  0.98566  0.33975  1.0000
  C   C191      1.0  0.50788  0.98566  0.34061  1.0000
  C   C192      1.0  0.47600  0.01599  0.33962  1.0000
  C   C193      1.0  0.48160  0.03940  0.33971  1.0000
  N   N23       1.0  0.50248  0.05879  0.34022  1.0000
  C   C194      1.0  0.50099  0.07819  0.34050  1.0000
  C   C195      1.0  0.47749  0.07065  0.34008  1.0000
  C   C196      1.0  0.46563  0.04693  0.33987  1.0000
  C   C197      1.0  0.51880  0.10160  0.34064  1.0000
  C   C198      1.0  0.54267  0.10911  0.34045  1.0000
  N   N24       1.0  0.55285  0.09612  0.34030  1.0000
  C   C199      1.0  0.57602  0.10911  0.34010  1.0000
  C   C200      1.0  0.58101  0.13193  0.33984  1.0000
  C   C201      1.0  0.56049  0.13193  0.34064  1.0000
  C   C202      1.0  0.59239  0.10161  0.33983  1.0000
  C   C203      1.0  0.61608  0.11895  0.33935  1.0000
  C   C204      1.0  0.66243  0.15640  0.33601  1.0000
  C   C205      1.0  0.64983  0.14903  0.41701  1.0000
  C   C206      1.0  0.62707  0.13060  0.41885  1.0000
  C   C207      1.0  0.68531  0.17582  0.33394  1.0000
  C   C208      1.0  0.70124  0.17993  0.40376  1.0000
  C   C209      1.0  0.72340  0.19940  0.40321  1.0000
  C   C210      1.0  0.73064  0.21540  0.33202  1.0000
  C   C211      1.0  0.51243  0.11893  0.34088  1.0000
  C   C212      1.0  0.50307  0.15607  0.34336  1.0000
  C   C213      1.0  0.50221  0.14402  0.42270  1.0000
  C   C214      1.0  0.50690  0.12582  0.42172  1.0000
  C   C215      1.0  0.49928  0.17528  0.34493  1.0000
  C   C216      1.0  0.49279  0.21440  0.34596  1.0000
  C   C217      1.0  0.50450  0.21055  0.41658  1.0000
  C   C218      1.0  0.50783  0.19147  0.41565  1.0000
  C   C219      1.0  0.45230  0.99866  0.33899  1.0000
  C   C220      1.0  0.44131  0.98705  0.41856  1.0000
  C   C221      1.0  0.41848  0.96876  0.41674  1.0000
  C   C222      1.0  0.40581  0.96151  0.33569  1.0000
  C   C223      1.0  0.38280  0.94230  0.33370  1.0000
  C   C224      1.0  0.33718  0.90319  0.33177  1.0000
  C   C225      1.0  0.34468  0.91919  0.40276  1.0000
  C   C226      1.0  0.36699  0.93844  0.40330  1.0000
  C   C227      1.0  0.55594  0.99865  0.34060  1.0000
  C   C228      1.0  0.56154  0.99164  0.42139  1.0000
  C   C229      1.0  0.56487  0.96121  0.34311  1.0000
  C   C230      1.0  0.56602  0.97330  0.42237  1.0000
  C   C231      1.0  0.56835  0.94180  0.34473  1.0000
  C   C232      1.0  0.55975  0.92559  0.41562  1.0000
  C   C233      1.0  0.56271  0.90628  0.41649  1.0000
  C   C234      1.0  0.57411  0.90223  0.34570  1.0000
  H   H125      1.0  0.55584  0.89482  0.46824  1.0000
  H   H126      1.0  0.55063  0.92731  0.46667  1.0000
  H   H127      1.0  0.57014  0.96884  0.48223  1.0000
  H   H128      1.0  0.56203  0.99960  0.48029  1.0000
  H   H129      1.0  0.59849  0.03702  0.33990  1.0000
  H   H130      1.0  0.62027  0.08058  0.34001  1.0000
  H   H131      1.0  0.55163  0.05880  0.34035  1.0000
  H   H132      1.0  0.51676  0.05880  0.34036  1.0000
  H   H133      1.0  0.50924  0.97119  0.34103  1.0000
  H   H134      1.0  0.47153  0.97119  0.33939  1.0000
  H   H135      1.0  0.45009  0.99140  0.47799  1.0000
  H   H136      1.0  0.41147  0.96024  0.47533  1.0000
  H   H137      1.0  0.44812  0.03702  0.33982  1.0000
  H   H138      1.0  0.46990  0.08057  0.33992  1.0000
  H   H139      1.0  0.59684  0.14641  0.33934  1.0000
  H   H140      1.0  0.55912  0.14640  0.34098  1.0000
  H   H141      1.0  0.50656  0.11783  0.48062  1.0000
  H   H142      1.0  0.49811  0.14837  0.48257  1.0000
  H   H143      1.0  0.51717  0.18990  0.46655  1.0000
  H   H144      1.0  0.51136  0.22203  0.46817  1.0000
  H   H145      1.0  0.61832  0.12618  0.47822  1.0000
  H   H146      1.0  0.65681  0.15757  0.47555  1.0000
  H   H147      1.0  0.73437  0.20160  0.45481  1.0000
  H   H148      1.0  0.69694  0.16858  0.45576  1.0000
  H   H149      1.0  0.37146  0.94980  0.45512  1.0000
  H   H150      1.0  0.33379  0.91716  0.45416  1.0000
  C   C235      1.0  0.31237  0.51488  0.34302  1.0000
  C   C236      1.0  0.26812  0.51034  0.34037  1.0000
  C   C237      1.0  0.27515  0.50281  0.41727  1.0000
  C   C238      1.0  0.29750  0.50559  0.41725  1.0000
  H   H151      1.0  0.30281  0.50009  0.47147  1.0000
  C   C239      1.0  0.22279  0.52240  0.40468  1.0000
  N   N25       1.0  0.24154  0.51986  0.40247  1.0000
  H   H152      1.0  0.22014  0.52968  0.45996  1.0000
  N   N26       1.0  0.26128  0.49248  0.48887  1.0000
  H   H153      1.0  0.26641  0.48700  0.53933  1.0000
  H   H154      1.0  0.24527  0.48851  0.48894  1.0000
  C   C240      1.0  0.57664  0.88240  0.34558  1.0000
  C   C241      1.0  0.58119  0.84270  0.34291  1.0000
  C   C242      1.0  0.58871  0.85714  0.41983  1.0000
  C   C243      1.0  0.58593  0.87671  0.41980  1.0000
  H   H155      1.0  0.59143  0.88744  0.47402  1.0000
  C   C244      1.0  0.57552  0.77684  0.33296  1.0000
  C   C245      1.0  0.56906  0.78519  0.40729  1.0000
  N   N27       1.0  0.57161  0.80648  0.40504  1.0000
  H   H156      1.0  0.56176  0.77517  0.46254  1.0000
  N   N28       1.0  0.59905  0.85349  0.49141  1.0000
  H   H157      1.0  0.60446  0.86399  0.54200  1.0000
  H   H158      1.0  0.60296  0.84142  0.49166  1.0000
  C   C246      1.0  0.24879  0.82340  0.33992  1.0000
  C   C247      1.0  0.23425  0.81632  0.41656  1.0000
  C   C248      1.0  0.21470  0.79396  0.41622  1.0000
  H   H159      1.0  0.20390  0.78861  0.47026  1.0000
  C   C249      1.0  0.30619  0.86865  0.40553  1.0000
  N   N29       1.0  0.28490  0.84991  0.40281  1.0000
  H   H160      1.0  0.31613  0.87124  0.46098  1.0000
  N   N30       1.0  0.23783  0.83015  0.48822  1.0000
  H   H161      1.0  0.22716  0.82500  0.53827  1.0000
  H   H162      1.0  0.24978  0.84618  0.48825  1.0000
  C   C250      1.0  0.75074  0.60165  0.34323  1.0000
  C   C251      1.0  0.79534  0.60704  0.34068  1.0000
  C   C252      1.0  0.78814  0.61422  0.41765  1.0000
  C   C253      1.0  0.76562  0.61102  0.41755  1.0000
  H   H163      1.0  0.76017  0.61627  0.47184  1.0000
  C   C254      1.0  0.84137  0.59586  0.40484  1.0000
  N   N31       1.0  0.82239  0.59801  0.40265  1.0000
  H   H164      1.0  0.84420  0.58858  0.45999  1.0000
  N   N32       1.0  0.80199  0.62461  0.48934  1.0000
  H   H165      1.0  0.79670  0.62979  0.53997  1.0000
  H   H166      1.0  0.81805  0.62880  0.48967  1.0000
  C   C255      1.0  0.48987  0.23400  0.34591  1.0000
  C   C256      1.0  0.48450  0.27322  0.34337  1.0000
  C   C257      1.0  0.47730  0.25871  0.42032  1.0000
  C   C258      1.0  0.48050  0.23940  0.42024  1.0000
  H   H167      1.0  0.47524  0.22861  0.47448  1.0000
  C   C259      1.0  0.48881  0.33849  0.33324  1.0000
  C   C260      1.0  0.49562  0.33032  0.40754  1.0000
  N   N33       1.0  0.49349  0.30920  0.40536  1.0000
  H   H168      1.0  0.50287  0.34034  0.46273  1.0000
  N   N34       1.0  0.46691  0.26206  0.49199  1.0000
  H   H169      1.0  0.46172  0.25151  0.54261  1.0000
  H   H170      1.0  0.46272  0.27393  0.49231  1.0000
  C   C261      1.0  0.81830  0.29615  0.34026  1.0000
  C   C262      1.0  0.83290  0.30340  0.41696  1.0000
  C   C263      1.0  0.85221  0.32592  0.41654  1.0000
  H   H171      1.0  0.86305  0.33140  0.47060  1.0000
  C   C264      1.0  0.76128  0.25018  0.40571  1.0000
  N   N35       1.0  0.78240  0.26916  0.40303  1.0000
  H   H172      1.0  0.75133  0.24738  0.46110  1.0000
  N   N36       1.0  0.82964  0.28959  0.48868  1.0000
  H   H173      1.0  0.84025  0.29491  0.53911  1.0000
  H   H174      1.0  0.81778  0.27352  0.48918  1.0000
