data_image0
_chemical_formula_structural       CNHC5H2C5H2NC11H8C2H2CHCHCNCHNHCNCHNHCNHNC18H12C4HC5H2C4HC5H2C4HCH
_chemical_formula_sum              "C72 N8 H42"
_cell_length_a       32.2191
_cell_length_b       32.2192
_cell_length_c       14.6007
_cell_angle_alpha    90
_cell_angle_beta     90
_cell_angle_gamma    120

_space_group_name_H-M_alt    "P 1"
_space_group_IT_number       1

loop_
  _space_group_symop_operation_xyz
  'x, y, z'

loop_
  _atom_site_type_symbol
  _atom_site_label
  _atom_site_symmetry_multiplicity
  _atom_site_fract_x
  _atom_site_fract_y
  _atom_site_fract_z
  _atom_site_occupancy
  C   C1        1.0  0.12021  0.55928  0.28207  1.0000
  N   N1        1.0  0.07156  0.53535  0.28541  1.0000
  H   H1        1.0  0.13588  0.56304  0.21952  1.0000
  C   C2        1.0  0.27650  0.65746  0.28412  1.0000
  C   C3        1.0  0.22600  0.63247  0.28586  1.0000
  C   C4        1.0  0.19990  0.60262  0.36067  1.0000
  C   C5        1.0  0.22713  0.59920  0.43378  1.0000
  C   C6        1.0  0.27760  0.62475  0.43294  1.0000
  H   H2        1.0  0.20854  0.63730  0.23209  1.0000
  H   H3        1.0  0.21054  0.57735  0.48857  1.0000
  C   C7        1.0  0.04617  0.52642  0.36439  1.0000
  C   C8        1.0  0.14821  0.57717  0.36270  1.0000
  C   C9        1.0  0.12233  0.56843  0.44586  1.0000
  C   C10       1.0  0.07168  0.54271  0.44818  1.0000
  C   C11       1.0  0.04609  0.53277  0.53135  1.0000
  H   H4        1.0  0.06387  0.54406  0.59240  1.0000
  H   H5        1.0  0.14045  0.58142  0.50613  1.0000
  N   N2        1.0  0.35387  0.67987  0.35692  1.0000
  C   C12       1.0  0.37954  0.65454  0.35826  1.0000
  C   C13       1.0  0.37905  0.73088  0.35735  1.0000
  C   C14       1.0  0.30289  0.65409  0.35791  1.0000
  C   C15       1.0  0.41062  0.66029  0.43127  1.0000
  C   C16       1.0  0.43143  0.60333  0.36061  1.0000
  C   C17       1.0  0.39966  0.59773  0.28808  1.0000
  C   C18       1.0  0.37462  0.62318  0.28635  1.0000
  C   C19       1.0  0.41096  0.75722  0.28604  1.0000
  C   C20       1.0  0.43050  0.83405  0.35943  1.0000
  C   C21       1.0  0.39750  0.80680  0.42968  1.0000
  C   C22       1.0  0.37285  0.75634  0.42951  1.0000
  H   H6        1.0  0.41512  0.68311  0.48393  1.0000
  H   H7        1.0  0.35210  0.61820  0.23283  1.0000
  H   H8        1.0  0.39355  0.57424  0.23584  1.0000
  H   H9        1.0  0.29406  0.67876  0.22919  1.0000
  H   H10       1.0  0.41639  0.73960  0.23327  1.0000
  H   H11       1.0  0.39026  0.82332  0.48194  1.0000
  H   H12       1.0  0.34969  0.73814  0.48181  1.0000
  H   H13       1.0  0.29593  0.62155  0.48711  1.0000
  C   C23       1.0  0.43644  0.63565  0.43171  1.0000
  C   C24       1.0  0.43654  0.80772  0.28773  1.0000
  H   H14       1.0  0.45974  0.64243  0.48464  1.0000
  H   H15       1.0  0.46054  0.82499  0.23615  1.0000
  C   C25       1.0  0.45718  0.57734  0.36233  1.0000
  H   H16       1.0  0.45863  0.57062  0.50672  1.0000
  C   C26       1.0  0.45667  0.88584  0.36126  1.0000
  H   H17       1.0  0.46073  0.89398  0.50583  1.0000
  C   C27       1.0  0.56893  0.46212  0.28060  1.0000
  N   N3        1.0  0.54490  0.48675  0.28394  1.0000
  C   C28       1.0  0.47202  0.56425  0.28112  1.0000
  H   H18       1.0  0.57450  0.45203  0.21759  1.0000
  N   N4        1.0  0.49617  0.53974  0.28419  1.0000
  H   H19       1.0  0.46582  0.57377  0.21809  1.0000
  C   C29       1.0  0.57365  0.11297  0.28074  1.0000
  N   N5        1.0  0.54898  0.06431  0.28382  1.0000
  C   C30       1.0  0.47139  0.91388  0.28017  1.0000
  H   H20       1.0  0.58500  0.12873  0.21810  1.0000
  N   N6        1.0  0.49590  0.96254  0.28344  1.0000
  H   H21       1.0  0.46308  0.89827  0.21697  1.0000
  C   C31       1.0  0.92124  0.46255  0.28223  1.0000
  N   N7        1.0  0.96990  0.48675  0.28538  1.0000
  H   H22       1.0  0.90564  0.45467  0.21901  1.0000
  N   N8        1.0  0.68722  0.34659  0.35713  1.0000
  C   C32       1.0  0.66140  0.37177  0.35750  1.0000
  C   C33       1.0  0.66190  0.29560  0.35809  1.0000
  C   C34       1.0  0.73823  0.37228  0.35854  1.0000
  C   C35       1.0  0.76352  0.40418  0.43052  1.0000
  C   C36       1.0  0.81399  0.43003  0.43107  1.0000
  C   C37       1.0  0.84142  0.42410  0.36144  1.0000
  C   C38       1.0  0.81525  0.39137  0.29010  1.0000
  C   C39       1.0  0.76476  0.36647  0.28793  1.0000
  C   C40       1.0  0.63066  0.36649  0.43082  1.0000
  C   C41       1.0  0.60502  0.39131  0.43121  1.0000
  C   C42       1.0  0.60992  0.42336  0.35970  1.0000
  C   C43       1.0  0.64126  0.42842  0.28670  1.0000
  C   C44       1.0  0.66616  0.40282  0.28511  1.0000
  C   C45       1.0  0.66624  0.27020  0.43258  1.0000
  C   C46       1.0  0.64145  0.21972  0.43296  1.0000
  C   C47       1.0  0.61056  0.19258  0.36004  1.0000
  C   C48       1.0  0.60648  0.21881  0.28584  1.0000
  C   C49       1.0  0.63192  0.26931  0.28445  1.0000
  H   H23       1.0  0.58206  0.38497  0.48455  1.0000
  H   H24       1.0  0.62638  0.34400  0.48397  1.0000
  H   H25       1.0  0.68852  0.40753  0.23147  1.0000
  H   H26       1.0  0.64721  0.45170  0.23413  1.0000
  H   H27       1.0  0.74518  0.40937  0.48224  1.0000
  H   H28       1.0  0.83037  0.45404  0.48302  1.0000
  H   H29       1.0  0.68802  0.28845  0.48653  1.0000
  H   H30       1.0  0.64703  0.20308  0.48725  1.0000
  H   H31       1.0  0.58405  0.20145  0.23217  1.0000
  H   H32       1.0  0.62803  0.28694  0.22983  1.0000
  H   H33       1.0  0.74729  0.34328  0.23526  1.0000
  H   H34       1.0  0.83260  0.38443  0.23900  1.0000
  C   C50       1.0  0.58447  0.44964  0.36161  1.0000
  C   C51       1.0  0.53362  0.50089  0.36325  1.0000
  C   C52       1.0  0.54745  0.48922  0.44737  1.0000
  C   C53       1.0  0.57329  0.46442  0.44514  1.0000
  H   H35       1.0  0.58454  0.45762  0.50590  1.0000
  C   C54       1.0  0.50829  0.52632  0.36340  1.0000
  C   C55       1.0  0.46932  0.56338  0.44576  1.0000
  C   C56       1.0  0.49530  0.53872  0.44769  1.0000
  C   C57       1.0  0.50864  0.52635  0.53096  1.0000
  C   C58       1.0  0.53502  0.50237  0.53079  1.0000
  H   H36       1.0  0.49980  0.53520  0.59233  1.0000
  H   H37       1.0  0.54446  0.49401  0.59204  1.0000
  C   C59       1.0  0.58441  0.14087  0.36167  1.0000
  C   C60       1.0  0.53321  0.03879  0.36280  1.0000
  C   C61       1.0  0.54314  0.06419  0.44686  1.0000
  C   C62       1.0  0.56798  0.11483  0.44484  1.0000
  H   H38       1.0  0.57354  0.13283  0.50538  1.0000
  C   C63       1.0  0.50778  0.98802  0.36272  1.0000
  C   C64       1.0  0.46910  0.91192  0.44477  1.0000
  C   C65       1.0  0.49369  0.96255  0.44684  1.0000
  C   C66       1.0  0.50432  0.98816  0.53010  1.0000
  C   C67       1.0  0.52826  0.03851  0.53004  1.0000
  H   H39       1.0  0.49419  0.97039  0.59133  1.0000
  H   H40       1.0  0.53531  0.05623  0.59125  1.0000
  C   C68       1.0  0.89323  0.44992  0.36332  1.0000
  C   C69       1.0  0.99541  0.50111  0.36452  1.0000
  C   C70       1.0  0.97001  0.49056  0.44864  1.0000
  C   C71       1.0  0.91937  0.46445  0.44673  1.0000
  H   H41       1.0  0.90148  0.45545  0.50784  1.0000
  C   C72       1.0  0.99573  0.50639  0.53167  1.0000
  H   H42       1.0  0.97802  0.49939  0.59289  1.0000
