data_image0
_chemical_formula_structural       C3OHCHCHC3HCNOCHC3OHCHCHC3HCNOCHCOHCHCH2C4HOC3NO2COHCHCH2C4HOC3NO2C5OHC2H2CHC2HC2H2C2HNOC4OC5OHC2H2CHC2HC2H2C2HNOC4OC3OHC3OHC3OHC2H2C2H2C2H2C3H2C2HCHC3H2C2OC4HNO2HNOC4HNO2C3OHC3OHC3OHC2H2C2H2C2H2C3H2C2HCHC3H2C2OC4HNO2HNOC4HNO2C6O2H2C6O2H2C6O2H2C2H2C2H2C2H2C2H2C2H2C2H2C3H2C3H2C3H2C3H2C3H2C3H2C4HNO2C4HNO2C4HNO2C4HNO2C4HNO2C4HNO2C6O2H2C6O2H2C6O2H2C2H2C2H2C2H2C2H2C2H2C2H2C3H2C3H2C3H2C3H2C3H2C3H2C4HNO2C4HNO2C4HNO2C4HNO2C4HNO2C4HNO2
_chemical_formula_sum              "C288 O72 H144 N24"
_cell_length_a       46.5677
_cell_length_b       46.5677
_cell_length_c       14.8379
_cell_angle_alpha    90
_cell_angle_beta     90
_cell_angle_gamma    120

_space_group_name_H-M_alt    "P 1"
_space_group_IT_number       1

loop_
  _space_group_symop_operation_xyz
  'x, y, z'

loop_
  _atom_site_type_symbol
  _atom_site_label
  _atom_site_symmetry_multiplicity
  _atom_site_fract_x
  _atom_site_fract_y
  _atom_site_fract_z
  _atom_site_occupancy
  C   C1        1.0  0.02626  0.26464  0.31773  1.0000
  C   C2        1.0  0.04628  0.30041  0.31329  1.0000
  C   C3        1.0  0.07980  0.31793  0.34336  1.0000
  O   O1        1.0  0.03479  0.32023  0.28177  1.0000
  H   H1        1.0  0.03081  0.31560  0.21692  1.0000
  C   C4        1.0  0.10878  0.23964  0.28243  1.0000
  H   H2        1.0  0.09664  0.23740  0.22302  1.0000
  C   C5        1.0  0.11156  0.37437  0.27863  1.0000
  H   H3        1.0  0.10105  0.36577  0.21672  1.0000
  C   C6        1.0  0.09548  0.29939  0.36151  1.0000
  C   C7        1.0  0.07928  0.26479  0.35190  1.0000
  C   C8        1.0  0.04501  0.24818  0.33210  1.0000
  H   H4        1.0  0.03374  0.22323  0.33856  1.0000
  C   C9        1.0  0.09870  0.24919  0.36183  1.0000
  N   N1        1.0  0.10881  0.26463  0.52138  1.0000
  O   O2        1.0  0.10402  0.24424  0.58310  1.0000
  C   C10       1.0  0.09991  0.35291  0.35400  1.0000
  H   H5        1.0  0.11009  0.34989  0.49148  1.0000
  C   C11       1.0  0.02627  0.76464  0.31773  1.0000
  C   C12       1.0  0.04628  0.80041  0.31329  1.0000
  C   C13       1.0  0.07980  0.81793  0.34336  1.0000
  O   O3        1.0  0.03479  0.82023  0.28177  1.0000
  H   H6        1.0  0.03081  0.81560  0.21692  1.0000
  C   C14       1.0  0.10878  0.73964  0.28243  1.0000
  H   H7        1.0  0.09664  0.73740  0.22302  1.0000
  C   C15       1.0  0.11156  0.87436  0.27863  1.0000
  H   H8        1.0  0.10106  0.86577  0.21672  1.0000
  C   C16       1.0  0.09548  0.79939  0.36151  1.0000
  C   C17       1.0  0.07929  0.76479  0.35190  1.0000
  C   C18       1.0  0.04501  0.74818  0.33210  1.0000
  H   H9        1.0  0.03374  0.72323  0.33856  1.0000
  C   C19       1.0  0.09871  0.74919  0.36183  1.0000
  N   N2        1.0  0.10881  0.76463  0.52138  1.0000
  O   O4        1.0  0.10402  0.74424  0.58310  1.0000
  C   C20       1.0  0.09991  0.85291  0.35400  1.0000
  H   H10       1.0  0.11009  0.84989  0.49148  1.0000
  C   C21       1.0  0.19574  0.26468  0.34290  1.0000
  O   O5        1.0  0.19342  0.21728  0.28185  1.0000
  H   H11       1.0  0.19803  0.21789  0.21699  1.0000
  C   C22       1.0  0.13933  0.24001  0.27821  1.0000
  H   H12       1.0  0.14795  0.23812  0.21630  1.0000
  C   C23       1.0  0.14176  0.40491  0.28284  1.0000
  H   H13       1.0  0.15165  0.41706  0.22342  1.0000
  H   H14       1.0  0.12050  0.31182  0.37457  1.0000
  C   C24       1.0  0.19641  0.43438  0.35224  1.0000
  C   C25       1.0  0.16075  0.24981  0.35363  1.0000
  C   C26       1.0  0.14866  0.25528  0.43565  1.0000
  C   C27       1.0  0.11856  0.25572  0.44032  1.0000
  H   H15       1.0  0.16379  0.26299  0.49112  1.0000
  O   O6        1.0  0.13005  0.29312  0.54801  1.0000
  C   C28       1.0  0.11752  0.36502  0.43599  1.0000
  C   C29       1.0  0.14806  0.39511  0.44067  1.0000
  C   C30       1.0  0.16139  0.41496  0.36220  1.0000
  N   N3        1.0  0.16673  0.40483  0.52173  1.0000
  O   O7        1.0  0.17396  0.38358  0.54833  1.0000
  O   O8        1.0  0.15115  0.40964  0.58346  1.0000
  C   C31       1.0  0.19574  0.76468  0.34290  1.0000
  O   O9        1.0  0.19342  0.71728  0.28185  1.0000
  H   H16       1.0  0.19803  0.71789  0.21699  1.0000
  C   C32       1.0  0.13933  0.74001  0.27821  1.0000
  H   H17       1.0  0.14795  0.73812  0.21630  1.0000
  C   C33       1.0  0.14176  0.90491  0.28284  1.0000
  H   H18       1.0  0.15165  0.91706  0.22342  1.0000
  H   H19       1.0  0.12050  0.81182  0.37457  1.0000
  C   C34       1.0  0.19641  0.93438  0.35224  1.0000
  C   C35       1.0  0.16076  0.74981  0.35363  1.0000
  C   C36       1.0  0.14866  0.75528  0.43565  1.0000
  C   C37       1.0  0.11856  0.75572  0.44032  1.0000
  H   H20       1.0  0.16379  0.76299  0.49112  1.0000
  O   O10       1.0  0.13006  0.79312  0.54801  1.0000
  C   C38       1.0  0.11752  0.86502  0.43599  1.0000
  C   C39       1.0  0.14806  0.89511  0.44067  1.0000
  C   C40       1.0  0.16139  0.91496  0.36220  1.0000
  N   N4        1.0  0.16673  0.90483  0.52173  1.0000
  O   O11       1.0  0.17396  0.88358  0.54833  1.0000
  O   O12       1.0  0.15115  0.90964  0.58346  1.0000
  C   C41       1.0  0.24901  0.26434  0.31783  1.0000
  C   C42       1.0  0.21325  0.24862  0.31320  1.0000
  C   C43       1.0  0.25136  0.04357  0.31314  1.0000
  C   C44       1.0  0.24927  0.48737  0.31778  1.0000
  C   C45       1.0  0.24901  0.43384  0.34346  1.0000
  O   O13       1.0  0.22004  0.03206  0.28171  1.0000
  H   H21       1.0  0.22067  0.02808  0.21686  1.0000
  C   C46       1.0  0.24238  0.13908  0.28255  1.0000
  C   C47       1.0  0.24276  0.10890  0.27828  1.0000
  H   H22       1.0  0.24016  0.14901  0.22316  1.0000
  H   H23       1.0  0.24089  0.09843  0.21634  1.0000
  C   C48       1.0  0.25089  0.21131  0.33223  1.0000
  H   H24       1.0  0.22595  0.19764  0.33875  1.0000
  C   C49       1.0  0.21429  0.29890  0.36103  1.0000
  C   C50       1.0  0.24889  0.31726  0.35147  1.0000
  H   H25       1.0  0.20186  0.31150  0.37396  1.0000
  C   C51       1.0  0.21481  0.41818  0.36188  1.0000
  C   C52       1.0  0.21406  0.46864  0.33226  1.0000
  H   H26       1.0  0.20224  0.39317  0.37507  1.0000
  H   H27       1.0  0.20039  0.47991  0.33871  1.0000
  C   C53       1.0  0.25850  0.39610  0.43598  1.0000
  C   C54       1.0  0.25815  0.36561  0.44049  1.0000
  H   H28       1.0  0.25095  0.40357  0.49169  1.0000
  N   N5        1.0  0.24931  0.34691  0.52146  1.0000
  O   O14       1.0  0.22081  0.33960  0.54824  1.0000
  C   C55       1.0  0.25251  0.09721  0.35366  1.0000
  C   C56       1.0  0.25799  0.11478  0.43572  1.0000
  C   C57       1.0  0.25842  0.14532  0.44051  1.0000
  C   C58       1.0  0.25189  0.15863  0.36206  1.0000
  O   O15       1.0  0.24696  0.14835  0.58330  1.0000
  C   C59       1.0  0.24901  0.76434  0.31783  1.0000
  C   C60       1.0  0.21325  0.74862  0.31320  1.0000
  C   C61       1.0  0.25137  0.54357  0.31314  1.0000
  C   C62       1.0  0.24927  0.98737  0.31778  1.0000
  C   C63       1.0  0.24901  0.93384  0.34346  1.0000
  O   O16       1.0  0.22004  0.53206  0.28171  1.0000
  H   H29       1.0  0.22067  0.52808  0.21686  1.0000
  C   C64       1.0  0.24238  0.63908  0.28255  1.0000
  C   C65       1.0  0.24276  0.60890  0.27828  1.0000
  H   H30       1.0  0.24016  0.64901  0.22316  1.0000
  H   H31       1.0  0.24089  0.59843  0.21634  1.0000
  C   C66       1.0  0.25089  0.71132  0.33223  1.0000
  H   H32       1.0  0.22595  0.69764  0.33875  1.0000
  C   C67       1.0  0.21429  0.79890  0.36103  1.0000
  C   C68       1.0  0.24889  0.81726  0.35147  1.0000
  H   H33       1.0  0.20186  0.81150  0.37396  1.0000
  C   C69       1.0  0.21481  0.91818  0.36188  1.0000
  C   C70       1.0  0.21406  0.96863  0.33226  1.0000
  H   H34       1.0  0.20224  0.89318  0.37507  1.0000
  H   H35       1.0  0.20039  0.97991  0.33871  1.0000
  C   C71       1.0  0.25850  0.89610  0.43598  1.0000
  C   C72       1.0  0.25815  0.86561  0.44049  1.0000
  H   H36       1.0  0.25095  0.90357  0.49169  1.0000
  N   N6        1.0  0.24931  0.84691  0.52146  1.0000
  O   O17       1.0  0.22081  0.83959  0.54824  1.0000
  C   C73       1.0  0.25251  0.59721  0.35366  1.0000
  C   C74       1.0  0.25799  0.61479  0.43572  1.0000
  C   C75       1.0  0.25843  0.64532  0.44051  1.0000
  C   C76       1.0  0.25189  0.65864  0.36206  1.0000
  O   O18       1.0  0.24696  0.64835  0.58330  1.0000
  C   C77       1.0  0.49010  0.24630  0.31775  1.0000
  C   C78       1.0  0.43653  0.19303  0.34316  1.0000
  C   C79       1.0  0.47006  0.21054  0.31322  1.0000
  O   O19       1.0  0.48155  0.19071  0.28174  1.0000
  H   H37       1.0  0.48552  0.19532  0.21688  1.0000
  C   C80       1.0  0.26735  0.24653  0.31783  1.0000
  C   C81       1.0  0.32064  0.24626  0.34324  1.0000
  C   C82       1.0  0.30312  0.26227  0.31328  1.0000
  O   O20       1.0  0.32293  0.29357  0.28166  1.0000
  H   H38       1.0  0.31827  0.29289  0.21681  1.0000
  C   C83       1.0  0.26709  0.02353  0.31771  1.0000
  C   C84       1.0  0.26741  0.07712  0.34296  1.0000
  C   C85       1.0  0.26501  0.46735  0.31331  1.0000
  O   O21       1.0  0.29631  0.47883  0.28172  1.0000
  H   H39       1.0  0.29564  0.48280  0.21687  1.0000
  C   C86       1.0  0.27396  0.37189  0.28245  1.0000
  C   C87       1.0  0.27350  0.40204  0.27845  1.0000
  H   H40       1.0  0.27592  0.36192  0.22282  1.0000
  H   H41       1.0  0.27523  0.41246  0.21650  1.0000
  C   C88       1.0  0.40759  0.27121  0.28261  1.0000
  C   C89       1.0  0.37698  0.27074  0.27844  1.0000
  H   H42       1.0  0.41955  0.27316  0.22306  1.0000
  H   H43       1.0  0.36832  0.27245  0.21643  1.0000
  C   C90       1.0  0.37455  0.10612  0.28233  1.0000
  C   C91       1.0  0.40469  0.13674  0.27825  1.0000
  H   H44       1.0  0.36456  0.09418  0.22274  1.0000
  H   H45       1.0  0.41508  0.14543  0.21627  1.0000
  C   C92       1.0  0.47137  0.26277  0.33230  1.0000
  C   C93       1.0  0.43708  0.24617  0.35182  1.0000
  C   C94       1.0  0.42088  0.21158  0.36169  1.0000
  H   H46       1.0  0.48264  0.28771  0.33868  1.0000
  H   H47       1.0  0.39586  0.19915  0.37473  1.0000
  C   C95       1.0  0.26750  0.19366  0.35203  1.0000
  C   C96       1.0  0.30210  0.21206  0.36171  1.0000
  H   H48       1.0  0.31454  0.19948  0.37476  1.0000
  C   C97       1.0  0.26549  0.29955  0.33236  1.0000
  H   H49       1.0  0.29044  0.31320  0.33879  1.0000
  C   C98       1.0  0.30230  0.04227  0.33218  1.0000
  C   C99       1.0  0.32000  0.07658  0.35146  1.0000
  C   C100      1.0  0.30163  0.09279  0.36122  1.0000
  H   H50       1.0  0.31597  0.03099  0.33867  1.0000
  H   H51       1.0  0.31422  0.11782  0.37412  1.0000
  C   C101      1.0  0.26386  0.41371  0.35411  1.0000
  C   C102      1.0  0.26454  0.35225  0.36189  1.0000
  O   O22       1.0  0.26972  0.36250  0.58313  1.0000
  C   C103      1.0  0.35561  0.26115  0.35399  1.0000
  C   C104      1.0  0.36782  0.25578  0.43596  1.0000
  C   C105      1.0  0.39795  0.25543  0.44072  1.0000
  C   C106      1.0  0.41774  0.26182  0.36222  1.0000
  H   H52       1.0  0.35277  0.24825  0.49161  1.0000
  N   N7        1.0  0.40776  0.24659  0.52178  1.0000
  O   O23       1.0  0.38656  0.21811  0.54855  1.0000
  O   O24       1.0  0.41256  0.26702  0.58339  1.0000
  H   H53       1.0  0.26569  0.10734  0.49118  1.0000
  N   N8        1.0  0.26734  0.16396  0.52160  1.0000
  O   O25       1.0  0.29584  0.17121  0.54819  1.0000
  C   C107      1.0  0.41641  0.15806  0.35390  1.0000
  C   C108      1.0  0.39884  0.14583  0.43584  1.0000
  C   C109      1.0  0.36836  0.11568  0.44047  1.0000
  C   C110      1.0  0.35500  0.09592  0.36192  1.0000
  H   H54       1.0  0.40633  0.16086  0.49152  1.0000
  N   N9        1.0  0.34969  0.10583  0.52149  1.0000
  O   O26       1.0  0.34237  0.12700  0.54828  1.0000
  O   O27       1.0  0.36531  0.10103  0.58313  1.0000
  C   C111      1.0  0.49010  0.74630  0.31775  1.0000
  C   C112      1.0  0.43653  0.69303  0.34316  1.0000
  C   C113      1.0  0.47006  0.71054  0.31322  1.0000
  O   O28       1.0  0.48155  0.69071  0.28174  1.0000
  H   H55       1.0  0.48552  0.69532  0.21688  1.0000
  C   C114      1.0  0.26736  0.74653  0.31783  1.0000
  C   C115      1.0  0.32064  0.74626  0.34324  1.0000
  C   C116      1.0  0.30312  0.76227  0.31328  1.0000
  O   O29       1.0  0.32293  0.79357  0.28166  1.0000
  H   H56       1.0  0.31827  0.79289  0.21681  1.0000
  C   C117      1.0  0.26709  0.52353  0.31771  1.0000
  C   C118      1.0  0.26741  0.57712  0.34296  1.0000
  C   C119      1.0  0.26501  0.96735  0.31331  1.0000
  O   O30       1.0  0.29631  0.97883  0.28172  1.0000
  H   H57       1.0  0.29564  0.98280  0.21687  1.0000
  C   C120      1.0  0.27396  0.87189  0.28245  1.0000
  C   C121      1.0  0.27350  0.90204  0.27845  1.0000
  H   H58       1.0  0.27592  0.86192  0.22282  1.0000
  H   H59       1.0  0.27523  0.91246  0.21650  1.0000
  C   C122      1.0  0.40759  0.77121  0.28261  1.0000
  C   C123      1.0  0.37698  0.77074  0.27844  1.0000
  H   H60       1.0  0.41955  0.77316  0.22306  1.0000
  H   H61       1.0  0.36832  0.77246  0.21643  1.0000
  C   C124      1.0  0.37455  0.60612  0.28233  1.0000
  C   C125      1.0  0.40469  0.63674  0.27825  1.0000
  H   H62       1.0  0.36456  0.59418  0.22274  1.0000
  H   H63       1.0  0.41508  0.64543  0.21627  1.0000
  C   C126      1.0  0.47137  0.76277  0.33230  1.0000
  C   C127      1.0  0.43708  0.74617  0.35182  1.0000
  C   C128      1.0  0.42088  0.71158  0.36169  1.0000
  H   H64       1.0  0.48264  0.78771  0.33868  1.0000
  H   H65       1.0  0.39586  0.69915  0.37473  1.0000
  C   C129      1.0  0.26750  0.69366  0.35203  1.0000
  C   C130      1.0  0.30211  0.71206  0.36171  1.0000
  H   H66       1.0  0.31454  0.69948  0.37476  1.0000
  C   C131      1.0  0.26549  0.79955  0.33236  1.0000
  H   H67       1.0  0.29044  0.81320  0.33879  1.0000
  C   C132      1.0  0.30230  0.54227  0.33218  1.0000
  C   C133      1.0  0.32001  0.57658  0.35146  1.0000
  C   C134      1.0  0.30163  0.59279  0.36122  1.0000
  H   H68       1.0  0.31597  0.53099  0.33867  1.0000
  H   H69       1.0  0.31422  0.61782  0.37412  1.0000
  C   C135      1.0  0.26386  0.91371  0.35411  1.0000
  C   C136      1.0  0.26454  0.85225  0.36189  1.0000
  O   O31       1.0  0.26972  0.86250  0.58313  1.0000
  C   C137      1.0  0.35561  0.76115  0.35399  1.0000
  C   C138      1.0  0.36782  0.75578  0.43596  1.0000
  C   C139      1.0  0.39795  0.75543  0.44072  1.0000
  C   C140      1.0  0.41774  0.76182  0.36222  1.0000
  H   H70       1.0  0.35277  0.74825  0.49161  1.0000
  N   N10       1.0  0.40776  0.74659  0.52178  1.0000
  O   O32       1.0  0.38656  0.71811  0.54855  1.0000
  O   O33       1.0  0.41256  0.76702  0.58339  1.0000
  H   H71       1.0  0.26569  0.60734  0.49118  1.0000
  N   N11       1.0  0.26734  0.66396  0.52160  1.0000
  O   O34       1.0  0.29584  0.67121  0.54819  1.0000
  C   C141      1.0  0.41641  0.65806  0.35390  1.0000
  C   C142      1.0  0.39884  0.64583  0.43584  1.0000
  C   C143      1.0  0.36836  0.61568  0.44047  1.0000
  C   C144      1.0  0.35500  0.59592  0.36192  1.0000
  H   H72       1.0  0.40633  0.66086  0.49152  1.0000
  N   N12       1.0  0.34969  0.60583  0.52149  1.0000
  O   O35       1.0  0.34237  0.62700  0.54828  1.0000
  O   O36       1.0  0.36531  0.60103  0.58313  1.0000
  C   C145      1.0  0.99010  0.24630  0.31775  1.0000
  C   C146      1.0  0.93653  0.19303  0.34316  1.0000
  C   C147      1.0  0.97006  0.21054  0.31322  1.0000
  C   C148      1.0  0.52626  0.26464  0.31773  1.0000
  C   C149      1.0  0.54628  0.30041  0.31329  1.0000
  C   C150      1.0  0.57980  0.31793  0.34336  1.0000
  O   O37       1.0  0.98155  0.19071  0.28174  1.0000
  O   O38       1.0  0.53479  0.32023  0.28177  1.0000
  H   H73       1.0  0.98552  0.19532  0.21688  1.0000
  H   H74       1.0  0.53081  0.31560  0.21692  1.0000
  C   C151      1.0  0.76736  0.24653  0.31783  1.0000
  C   C152      1.0  0.82064  0.24626  0.34324  1.0000
  C   C153      1.0  0.80312  0.26227  0.31328  1.0000
  C   C154      1.0  0.74901  0.26434  0.31783  1.0000
  C   C155      1.0  0.71325  0.24862  0.31320  1.0000
  C   C156      1.0  0.69574  0.26468  0.34290  1.0000
  O   O39       1.0  0.82293  0.29357  0.28166  1.0000
  O   O40       1.0  0.69342  0.21728  0.28185  1.0000
  H   H75       1.0  0.81827  0.29289  0.21681  1.0000
  H   H76       1.0  0.69803  0.21789  0.21699  1.0000
  C   C157      1.0  0.76709  0.02353  0.31771  1.0000
  C   C158      1.0  0.76741  0.07712  0.34296  1.0000
  C   C159      1.0  0.75136  0.04357  0.31314  1.0000
  C   C160      1.0  0.74927  0.48737  0.31778  1.0000
  C   C161      1.0  0.76501  0.46735  0.31331  1.0000
  C   C162      1.0  0.74901  0.43384  0.34346  1.0000
  O   O41       1.0  0.72004  0.03206  0.28171  1.0000
  O   O42       1.0  0.79631  0.47883  0.28172  1.0000
  H   H77       1.0  0.72067  0.02808  0.21686  1.0000
  H   H78       1.0  0.79565  0.48280  0.21687  1.0000
  C   C163      1.0  0.60878  0.23964  0.28243  1.0000
  C   C164      1.0  0.63933  0.24001  0.27821  1.0000
  H   H79       1.0  0.59664  0.23740  0.22302  1.0000
  H   H80       1.0  0.64795  0.23812  0.21630  1.0000
  C   C165      1.0  0.77396  0.37189  0.28245  1.0000
  C   C166      1.0  0.77350  0.40204  0.27845  1.0000
  H   H81       1.0  0.77592  0.36192  0.22282  1.0000
  H   H82       1.0  0.77523  0.41246  0.21650  1.0000
  C   C167      1.0  0.64175  0.40491  0.28284  1.0000
  C   C168      1.0  0.61156  0.37437  0.27863  1.0000
  H   H83       1.0  0.65165  0.41706  0.22342  1.0000
  H   H84       1.0  0.60105  0.36577  0.21672  1.0000
  C   C169      1.0  0.90759  0.27121  0.28261  1.0000
  C   C170      1.0  0.87698  0.27074  0.27844  1.0000
  H   H85       1.0  0.91955  0.27316  0.22306  1.0000
  H   H86       1.0  0.86832  0.27245  0.21643  1.0000
  C   C171      1.0  0.74238  0.13908  0.28255  1.0000
  C   C172      1.0  0.74276  0.10890  0.27828  1.0000
  H   H87       1.0  0.74016  0.14901  0.22316  1.0000
  H   H88       1.0  0.74089  0.09843  0.21634  1.0000
  C   C173      1.0  0.87455  0.10612  0.28233  1.0000
  C   C174      1.0  0.90470  0.13674  0.27825  1.0000
  H   H89       1.0  0.86456  0.09418  0.22274  1.0000
  H   H90       1.0  0.91508  0.14543  0.21627  1.0000
  C   C175      1.0  0.97137  0.26277  0.33230  1.0000
  C   C176      1.0  0.93708  0.24617  0.35182  1.0000
  C   C177      1.0  0.92088  0.21158  0.36169  1.0000
  H   H91       1.0  0.98264  0.28771  0.33868  1.0000
  H   H92       1.0  0.89586  0.19915  0.37473  1.0000
  C   C178      1.0  0.59548  0.29939  0.36151  1.0000
  C   C179      1.0  0.57929  0.26479  0.35190  1.0000
  C   C180      1.0  0.54501  0.24818  0.33210  1.0000
  H   H93       1.0  0.62050  0.31182  0.37457  1.0000
  H   H94       1.0  0.53374  0.22323  0.33856  1.0000
  C   C181      1.0  0.75089  0.21131  0.33223  1.0000
  C   C182      1.0  0.76750  0.19366  0.35203  1.0000
  C   C183      1.0  0.80210  0.21206  0.36171  1.0000
  H   H95       1.0  0.72595  0.19764  0.33875  1.0000
  H   H96       1.0  0.81454  0.19948  0.37476  1.0000
  C   C184      1.0  0.71429  0.29890  0.36103  1.0000
  C   C185      1.0  0.74889  0.31726  0.35147  1.0000
  C   C186      1.0  0.76549  0.29955  0.33236  1.0000
  H   H97       1.0  0.70186  0.31150  0.37396  1.0000
  H   H98       1.0  0.79044  0.31320  0.33879  1.0000
  C   C187      1.0  0.80230  0.04227  0.33218  1.0000
  C   C188      1.0  0.82001  0.07658  0.35146  1.0000
  C   C189      1.0  0.80163  0.09279  0.36122  1.0000
  H   H99       1.0  0.81597  0.03099  0.33867  1.0000
  H   H100      1.0  0.81422  0.11782  0.37412  1.0000
  C   C190      1.0  0.71481  0.41818  0.36188  1.0000
  C   C191      1.0  0.69641  0.43438  0.35224  1.0000
  C   C192      1.0  0.71406  0.46864  0.33226  1.0000
  H   H101      1.0  0.70224  0.39317  0.37507  1.0000
  H   H102      1.0  0.70039  0.47991  0.33871  1.0000
  C   C193      1.0  0.66076  0.24981  0.35363  1.0000
  C   C194      1.0  0.64866  0.25528  0.43565  1.0000
  C   C195      1.0  0.61856  0.25572  0.44032  1.0000
  C   C196      1.0  0.59870  0.24919  0.36183  1.0000
  H   H103      1.0  0.66379  0.26299  0.49112  1.0000
  N   N13       1.0  0.60881  0.26463  0.52138  1.0000
  O   O43       1.0  0.63006  0.29312  0.54801  1.0000
  O   O44       1.0  0.60402  0.24424  0.58310  1.0000
  C   C197      1.0  0.76386  0.41371  0.35411  1.0000
  C   C198      1.0  0.75850  0.39610  0.43598  1.0000
  C   C199      1.0  0.75815  0.36561  0.44049  1.0000
  C   C200      1.0  0.76455  0.35225  0.36189  1.0000
  H   H104      1.0  0.75095  0.40357  0.49169  1.0000
  N   N14       1.0  0.74931  0.34691  0.52146  1.0000
  O   O45       1.0  0.72081  0.33960  0.54824  1.0000
  O   O46       1.0  0.76972  0.36250  0.58313  1.0000
  C   C201      1.0  0.59991  0.35291  0.35400  1.0000
  C   C202      1.0  0.61752  0.36502  0.43599  1.0000
  C   C203      1.0  0.64806  0.39511  0.44067  1.0000
  C   C204      1.0  0.66139  0.41496  0.36220  1.0000
  H   H105      1.0  0.61009  0.34989  0.49148  1.0000
  N   N15       1.0  0.66673  0.40483  0.52173  1.0000
  O   O47       1.0  0.67396  0.38358  0.54833  1.0000
  O   O48       1.0  0.65115  0.40964  0.58346  1.0000
  C   C205      1.0  0.85561  0.26115  0.35399  1.0000
  C   C206      1.0  0.86782  0.25578  0.43596  1.0000
  C   C207      1.0  0.89795  0.25543  0.44072  1.0000
  C   C208      1.0  0.91773  0.26182  0.36222  1.0000
  H   H106      1.0  0.85277  0.24825  0.49161  1.0000
  N   N16       1.0  0.90776  0.24659  0.52178  1.0000
  O   O49       1.0  0.88656  0.21811  0.54855  1.0000
  O   O50       1.0  0.91256  0.26702  0.58339  1.0000
  C   C209      1.0  0.75251  0.09721  0.35366  1.0000
  C   C210      1.0  0.75799  0.11478  0.43572  1.0000
  C   C211      1.0  0.75842  0.14532  0.44051  1.0000
  C   C212      1.0  0.75189  0.15863  0.36206  1.0000
  H   H107      1.0  0.76569  0.10734  0.49118  1.0000
  N   N17       1.0  0.76734  0.16396  0.52160  1.0000
  O   O51       1.0  0.79584  0.17121  0.54819  1.0000
  O   O52       1.0  0.74696  0.14835  0.58330  1.0000
  C   C213      1.0  0.91641  0.15806  0.35390  1.0000
  C   C214      1.0  0.89884  0.14583  0.43584  1.0000
  C   C215      1.0  0.86836  0.11568  0.44047  1.0000
  C   C216      1.0  0.85500  0.09592  0.36192  1.0000
  H   H108      1.0  0.90633  0.16086  0.49152  1.0000
  N   N18       1.0  0.84969  0.10583  0.52149  1.0000
  O   O53       1.0  0.84237  0.12700  0.54828  1.0000
  O   O54       1.0  0.86531  0.10103  0.58313  1.0000
  C   C217      1.0  0.99011  0.74630  0.31775  1.0000
  C   C218      1.0  0.93653  0.69303  0.34316  1.0000
  C   C219      1.0  0.97006  0.71054  0.31322  1.0000
  C   C220      1.0  0.52626  0.76464  0.31773  1.0000
  C   C221      1.0  0.54628  0.80041  0.31329  1.0000
  C   C222      1.0  0.57980  0.81793  0.34336  1.0000
  O   O55       1.0  0.98155  0.69071  0.28174  1.0000
  O   O56       1.0  0.53479  0.82023  0.28177  1.0000
  H   H109      1.0  0.98552  0.69532  0.21688  1.0000
  H   H110      1.0  0.53081  0.81560  0.21692  1.0000
  C   C223      1.0  0.76735  0.74653  0.31783  1.0000
  C   C224      1.0  0.82064  0.74626  0.34324  1.0000
  C   C225      1.0  0.80312  0.76227  0.31328  1.0000
  C   C226      1.0  0.74901  0.76434  0.31783  1.0000
  C   C227      1.0  0.71325  0.74862  0.31320  1.0000
  C   C228      1.0  0.69574  0.76468  0.34290  1.0000
  O   O57       1.0  0.82293  0.79357  0.28166  1.0000
  O   O58       1.0  0.69342  0.71728  0.28185  1.0000
  H   H111      1.0  0.81827  0.79289  0.21681  1.0000
  H   H112      1.0  0.69803  0.71789  0.21699  1.0000
  C   C229      1.0  0.76709  0.52353  0.31771  1.0000
  C   C230      1.0  0.76741  0.57712  0.34296  1.0000
  C   C231      1.0  0.75137  0.54357  0.31314  1.0000
  C   C232      1.0  0.74927  0.98737  0.31778  1.0000
  C   C233      1.0  0.76501  0.96735  0.31331  1.0000
  C   C234      1.0  0.74901  0.93384  0.34346  1.0000
  O   O59       1.0  0.72004  0.53206  0.28171  1.0000
  O   O60       1.0  0.79631  0.97883  0.28172  1.0000
  H   H113      1.0  0.72067  0.52808  0.21686  1.0000
  H   H114      1.0  0.79564  0.98280  0.21687  1.0000
  C   C235      1.0  0.60878  0.73964  0.28243  1.0000
  C   C236      1.0  0.63933  0.74001  0.27821  1.0000
  H   H115      1.0  0.59664  0.73740  0.22302  1.0000
  H   H116      1.0  0.64795  0.73812  0.21630  1.0000
  C   C237      1.0  0.77396  0.87189  0.28245  1.0000
  C   C238      1.0  0.77350  0.90204  0.27845  1.0000
  H   H117      1.0  0.77592  0.86192  0.22282  1.0000
  H   H118      1.0  0.77523  0.91246  0.21650  1.0000
  C   C239      1.0  0.64176  0.90491  0.28284  1.0000
  C   C240      1.0  0.61156  0.87436  0.27863  1.0000
  H   H119      1.0  0.65165  0.91706  0.22342  1.0000
  H   H120      1.0  0.60105  0.86577  0.21672  1.0000
  C   C241      1.0  0.90759  0.77121  0.28261  1.0000
  C   C242      1.0  0.87698  0.77074  0.27844  1.0000
  H   H121      1.0  0.91955  0.77316  0.22306  1.0000
  H   H122      1.0  0.86832  0.77246  0.21643  1.0000
  C   C243      1.0  0.74238  0.63908  0.28255  1.0000
  C   C244      1.0  0.74276  0.60890  0.27828  1.0000
  H   H123      1.0  0.74016  0.64901  0.22316  1.0000
  H   H124      1.0  0.74089  0.59843  0.21634  1.0000
  C   C245      1.0  0.87455  0.60612  0.28233  1.0000
  C   C246      1.0  0.90469  0.63674  0.27825  1.0000
  H   H125      1.0  0.86456  0.59418  0.22274  1.0000
  H   H126      1.0  0.91508  0.64543  0.21627  1.0000
  C   C247      1.0  0.97137  0.76277  0.33230  1.0000
  C   C248      1.0  0.93708  0.74617  0.35182  1.0000
  C   C249      1.0  0.92088  0.71158  0.36169  1.0000
  H   H127      1.0  0.98264  0.78771  0.33868  1.0000
  H   H128      1.0  0.89586  0.69915  0.37473  1.0000
  C   C250      1.0  0.59548  0.79939  0.36151  1.0000
  C   C251      1.0  0.57929  0.76479  0.35190  1.0000
  C   C252      1.0  0.54501  0.74818  0.33210  1.0000
  H   H129      1.0  0.62050  0.81182  0.37457  1.0000
  H   H130      1.0  0.53374  0.72323  0.33856  1.0000
  C   C253      1.0  0.75089  0.71132  0.33223  1.0000
  C   C254      1.0  0.76751  0.69366  0.35203  1.0000
  C   C255      1.0  0.80210  0.71206  0.36171  1.0000
  H   H131      1.0  0.72595  0.69764  0.33875  1.0000
  H   H132      1.0  0.81454  0.69948  0.37476  1.0000
  C   C256      1.0  0.71429  0.79890  0.36103  1.0000
  C   C257      1.0  0.74889  0.81726  0.35147  1.0000
  C   C258      1.0  0.76549  0.79955  0.33236  1.0000
  H   H133      1.0  0.70186  0.81150  0.37396  1.0000
  H   H134      1.0  0.79044  0.81320  0.33879  1.0000
  C   C259      1.0  0.80230  0.54227  0.33218  1.0000
  C   C260      1.0  0.82001  0.57658  0.35146  1.0000
  C   C261      1.0  0.80163  0.59279  0.36122  1.0000
  H   H135      1.0  0.81597  0.53099  0.33867  1.0000
  H   H136      1.0  0.81422  0.61782  0.37412  1.0000
  C   C262      1.0  0.71481  0.91818  0.36188  1.0000
  C   C263      1.0  0.69641  0.93438  0.35224  1.0000
  C   C264      1.0  0.71406  0.96863  0.33226  1.0000
  H   H137      1.0  0.70224  0.89318  0.37507  1.0000
  H   H138      1.0  0.70039  0.97991  0.33871  1.0000
  C   C265      1.0  0.66076  0.74981  0.35363  1.0000
  C   C266      1.0  0.64866  0.75528  0.43565  1.0000
  C   C267      1.0  0.61856  0.75572  0.44032  1.0000
  C   C268      1.0  0.59871  0.74919  0.36183  1.0000
  H   H139      1.0  0.66379  0.76299  0.49112  1.0000
  N   N19       1.0  0.60881  0.76463  0.52138  1.0000
  O   O61       1.0  0.63005  0.79312  0.54801  1.0000
  O   O62       1.0  0.60402  0.74424  0.58310  1.0000
  C   C269      1.0  0.76386  0.91371  0.35411  1.0000
  C   C270      1.0  0.75850  0.89610  0.43598  1.0000
  C   C271      1.0  0.75815  0.86561  0.44049  1.0000
  C   C272      1.0  0.76455  0.85225  0.36189  1.0000
  H   H140      1.0  0.75095  0.90357  0.49169  1.0000
  N   N20       1.0  0.74931  0.84691  0.52146  1.0000
  O   O63       1.0  0.72081  0.83959  0.54824  1.0000
  O   O64       1.0  0.76972  0.86250  0.58313  1.0000
  C   C273      1.0  0.59991  0.85291  0.35400  1.0000
  C   C274      1.0  0.61752  0.86502  0.43599  1.0000
  C   C275      1.0  0.64806  0.89511  0.44067  1.0000
  C   C276      1.0  0.66139  0.91496  0.36220  1.0000
  H   H141      1.0  0.61009  0.84989  0.49148  1.0000
  N   N21       1.0  0.66673  0.90483  0.52173  1.0000
  O   O65       1.0  0.67396  0.88358  0.54833  1.0000
  O   O66       1.0  0.65115  0.90964  0.58346  1.0000
  C   C277      1.0  0.85561  0.76115  0.35399  1.0000
  C   C278      1.0  0.86782  0.75578  0.43596  1.0000
  C   C279      1.0  0.89795  0.75543  0.44072  1.0000
  C   C280      1.0  0.91773  0.76182  0.36222  1.0000
  H   H142      1.0  0.85277  0.74825  0.49161  1.0000
  N   N22       1.0  0.90776  0.74659  0.52178  1.0000
  O   O67       1.0  0.88656  0.71811  0.54855  1.0000
  O   O68       1.0  0.91256  0.76702  0.58339  1.0000
  C   C281      1.0  0.75251  0.59721  0.35366  1.0000
  C   C282      1.0  0.75799  0.61479  0.43572  1.0000
  C   C283      1.0  0.75842  0.64532  0.44051  1.0000
  C   C284      1.0  0.75189  0.65864  0.36206  1.0000
  H   H143      1.0  0.76569  0.60734  0.49118  1.0000
  N   N23       1.0  0.76734  0.66396  0.52160  1.0000
  O   O69       1.0  0.79584  0.67121  0.54819  1.0000
  O   O70       1.0  0.74696  0.64835  0.58330  1.0000
  C   C285      1.0  0.91641  0.65806  0.35390  1.0000
  C   C286      1.0  0.89884  0.64583  0.43584  1.0000
  C   C287      1.0  0.86836  0.61568  0.44047  1.0000
  C   C288      1.0  0.85500  0.59592  0.36192  1.0000
  H   H144      1.0  0.90633  0.66086  0.49152  1.0000
  N   N24       1.0  0.84969  0.60583  0.52149  1.0000
  O   O71       1.0  0.84237  0.62700  0.54828  1.0000
  O   O72       1.0  0.86531  0.60103  0.58313  1.0000
