data_image0
_chemical_formula_structural       C8O2H4N2C8O2H4N2C8O2H4N3C2HCHNC2HCHNC2HCHNC2HCHNC2HCHNC2HCHC2HOC2OHN2C2HOC2OHN2C2HOC2OHN2CNCNO2CHCNCNO2CHCNCNO2CHCNCNO2CHCNCNO2CHCNCNO2CH
_chemical_formula_sum              "C72 O24 H36 N30"
_cell_length_a       31.1633
_cell_length_b       31.1633
_cell_length_c       15.0726
_cell_angle_alpha    90
_cell_angle_beta     90
_cell_angle_gamma    120

_space_group_name_H-M_alt    "P 1"
_space_group_IT_number       1

loop_
  _space_group_symop_operation_xyz
  'x, y, z'

loop_
  _atom_site_type_symbol
  _atom_site_label
  _atom_site_symmetry_multiplicity
  _atom_site_fract_x
  _atom_site_fract_y
  _atom_site_fract_z
  _atom_site_occupancy
  C   C1        1.0  0.02288  0.51474  0.32945  1.0000
  C   C2        1.0  0.12747  0.57838  0.32760  1.0000
  C   C3        1.0  0.09579  0.59818  0.31490  1.0000
  C   C4        1.0  0.04445  0.56568  0.30492  1.0000
  C   C5        1.0  0.97075  0.48158  0.33052  1.0000
  C   C6        1.0  0.94891  0.43055  0.30635  1.0000
  C   C7        1.0  0.89776  0.39798  0.31869  1.0000
  C   C8        1.0  0.86621  0.41780  0.33302  1.0000
  O   O1        1.0  0.01742  0.58574  0.27289  1.0000
  O   O2        1.0  0.97558  0.41049  0.27264  1.0000
  H   H1        1.0  0.00875  0.57397  0.21141  1.0000
  H   H2        1.0  0.98332  0.42198  0.21087  1.0000
  H   H3        1.0  0.18800  0.62033  0.26783  1.0000
  H   H4        1.0  0.80513  0.37580  0.27488  1.0000
  N   N1        1.0  0.87770  0.34863  0.30619  1.0000
  N   N2        1.0  0.11593  0.64752  0.30236  1.0000
  C   C9        1.0  0.47943  0.50665  0.32971  1.0000
  C   C10       1.0  0.41520  0.54694  0.32931  1.0000
  C   C11       1.0  0.39573  0.49554  0.31588  1.0000
  C   C12       1.0  0.42852  0.47712  0.30506  1.0000
  C   C13       1.0  0.51275  0.48787  0.33054  1.0000
  C   C14       1.0  0.56382  0.51731  0.30680  1.0000
  C   C15       1.0  0.59653  0.49891  0.31916  1.0000
  C   C16       1.0  0.57690  0.44751  0.33301  1.0000
  O   O3        1.0  0.40878  0.43022  0.27229  1.0000
  O   O4        1.0  0.58378  0.56414  0.27358  1.0000
  H   H5        1.0  0.42061  0.43367  0.21080  1.0000
  H   H6        1.0  0.57238  0.56055  0.21178  1.0000
  H   H7        1.0  0.37298  0.56537  0.27016  1.0000
  H   H8        1.0  0.61943  0.42902  0.27512  1.0000
  N   N3        1.0  0.64590  0.52841  0.30722  1.0000
  N   N4        1.0  0.34644  0.46598  0.30332  1.0000
  C   C17       1.0  0.48720  0.97168  0.33266  1.0000
  C   C18       1.0  0.44709  0.86722  0.33584  1.0000
  C   C19       1.0  0.49840  0.89900  0.32124  1.0000
  C   C20       1.0  0.51666  0.95009  0.30871  1.0000
  C   C21       1.0  0.50583  0.02375  0.33126  1.0000
  C   C22       1.0  0.47616  0.04499  0.30658  1.0000
  C   C23       1.0  0.49466  0.09629  0.31626  1.0000
  C   C24       1.0  0.54609  0.12827  0.32896  1.0000
  O   O5        1.0  0.56333  0.97697  0.27481  1.0000
  O   O6        1.0  0.42911  0.01765  0.27458  1.0000
  H   H9        1.0  0.55943  0.98451  0.21298  1.0000
  H   H10       1.0  0.43226  0.00894  0.21316  1.0000
  H   H11       1.0  0.42824  0.80615  0.27784  1.0000
  H   H12       1.0  0.56442  0.18863  0.26882  1.0000
  N   N5        1.0  0.46521  0.11612  0.30334  1.0000
  N   N6        1.0  0.52790  0.87918  0.30853  1.0000
  N   N7        1.0  0.26790  0.47877  0.26163  1.0000
  C   C25       1.0  0.23536  0.49375  0.23958  1.0000
  C   C26       1.0  0.20173  0.49157  0.30437  1.0000
  H   H13       1.0  0.23755  0.50871  0.17830  1.0000
  C   C27       1.0  0.17316  0.51416  0.29156  1.0000
  H   H14       1.0  0.17965  0.53592  0.23667  1.0000
  N   N8        1.0  0.51413  0.78743  0.26567  1.0000
  C   C28       1.0  0.49895  0.73990  0.24322  1.0000
  C   C29       1.0  0.50139  0.70831  0.30745  1.0000
  H   H15       1.0  0.48359  0.72722  0.18216  1.0000
  C   C30       1.0  0.47876  0.65716  0.29422  1.0000
  H   H16       1.0  0.45677  0.64195  0.23959  1.0000
  N   N9        1.0  0.20775  0.72654  0.26372  1.0000
  C   C31       1.0  0.25543  0.75935  0.24314  1.0000
  C   C32       1.0  0.28622  0.79262  0.30901  1.0000
  H   H17       1.0  0.26885  0.75741  0.18236  1.0000
  C   C33       1.0  0.33749  0.82130  0.29773  1.0000
  H   H18       1.0  0.35326  0.81523  0.24310  1.0000
  N   N10       1.0  0.72531  0.51640  0.26554  1.0000
  C   C34       1.0  0.75835  0.50205  0.24358  1.0000
  C   C35       1.0  0.79188  0.50430  0.30870  1.0000
  H   H19       1.0  0.75658  0.48742  0.18214  1.0000
  C   C36       1.0  0.82082  0.48211  0.29597  1.0000
  H   H20       1.0  0.81465  0.46050  0.24097  1.0000
  N   N11       1.0  0.47840  0.20783  0.26343  1.0000
  C   C37       1.0  0.49353  0.25551  0.24236  1.0000
  C   C38       1.0  0.49083  0.28649  0.30757  1.0000
  H   H21       1.0  0.50885  0.26870  0.18146  1.0000
  C   C39       1.0  0.51328  0.33772  0.29560  1.0000
  H   H22       1.0  0.53538  0.35333  0.24121  1.0000
  N   N12       1.0  0.78617  0.27000  0.26402  1.0000
  C   C40       1.0  0.73874  0.23728  0.24171  1.0000
  C   C41       1.0  0.70729  0.20347  0.30633  1.0000
  H   H23       1.0  0.72599  0.23955  0.18047  1.0000
  C   C42       1.0  0.65617  0.17469  0.29323  1.0000
  H   H24       1.0  0.64084  0.18110  0.23835  1.0000
  C   C43       1.0  0.05567  0.49748  0.35374  1.0000
  C   C44       1.0  0.10718  0.52723  0.34370  1.0000
  H   H25       1.0  0.04218  0.46165  0.37347  1.0000
  O   O7        1.0  0.17770  0.60862  0.32895  1.0000
  C   C45       1.0  0.88665  0.46904  0.34843  1.0000
  C   C46       1.0  0.93826  0.49888  0.35662  1.0000
  O   O8        1.0  0.81599  0.38765  0.33574  1.0000
  H   H26       1.0  0.95194  0.53485  0.37564  1.0000
  N   N13       1.0  0.86032  0.49286  0.34778  1.0000
  N   N14       1.0  0.13350  0.50341  0.34291  1.0000
  C   C47       1.0  0.49638  0.55656  0.35460  1.0000
  C   C48       1.0  0.46634  0.57806  0.34513  1.0000
  H   H27       1.0  0.53222  0.57907  0.37410  1.0000
  O   O9        1.0  0.38469  0.56660  0.33122  1.0000
  C   C49       1.0  0.52564  0.41646  0.34782  1.0000
  C   C50       1.0  0.49561  0.43802  0.35610  1.0000
  O   O10       1.0  0.60725  0.42768  0.33584  1.0000
  H   H28       1.0  0.45963  0.41555  0.37487  1.0000
  N   N15       1.0  0.50202  0.36630  0.34682  1.0000
  N   N16       1.0  0.48989  0.62821  0.34467  1.0000
  C   C51       1.0  0.43748  0.93896  0.35884  1.0000
  C   C52       1.0  0.41602  0.88736  0.35105  1.0000
  H   H29       1.0  0.41499  0.95246  0.37759  1.0000
  O   O11       1.0  0.42730  0.81703  0.33870  1.0000
  C   C53       1.0  0.57724  0.10833  0.34526  1.0000
  C   C54       1.0  0.55581  0.05686  0.35545  1.0000
  O   O12       1.0  0.56574  0.17845  0.33008  1.0000
  H   H30       1.0  0.57836  0.04361  0.37524  1.0000
  N   N17       1.0  0.62737  0.13493  0.34446  1.0000
  N   N18       1.0  0.36588  0.86086  0.34968  1.0000
  C   C55       1.0  0.26954  0.46087  0.34309  1.0000
  N   N19       1.0  0.20191  0.47192  0.38468  1.0000
  C   C56       1.0  0.23419  0.45629  0.40722  1.0000
  N   N20       1.0  0.23372  0.43867  0.49361  1.0000
  O   O13       1.0  0.19224  0.40144  0.50982  1.0000
  O   O14       1.0  0.24142  0.47144  0.55000  1.0000
  C   C57       1.0  0.31236  0.45927  0.36564  1.0000
  H   H31       1.0  0.32340  0.46610  0.43063  1.0000
  C   C58       1.0  0.53252  0.80684  0.34698  1.0000
  N   N21       1.0  0.52147  0.72803  0.38756  1.0000
  C   C59       1.0  0.53729  0.77592  0.41051  1.0000
  N   N22       1.0  0.55541  0.79298  0.49670  1.0000
  O   O15       1.0  0.59268  0.78863  0.51187  1.0000
  O   O16       1.0  0.52293  0.76789  0.55353  1.0000
  C   C60       1.0  0.53424  0.85125  0.37018  1.0000
  H   H32       1.0  0.52743  0.85522  0.43529  1.0000
  C   C61       1.0  0.18741  0.72444  0.34456  1.0000
  N   N23       1.0  0.26559  0.79192  0.38873  1.0000
  C   C62       1.0  0.21748  0.75944  0.40972  1.0000
  N   N24       1.0  0.19949  0.75928  0.49565  1.0000
  O   O17       1.0  0.20349  0.80061  0.51231  1.0000
  O   O18       1.0  0.22407  0.75127  0.55262  1.0000
  C   C63       1.0  0.14295  0.68126  0.36539  1.0000
  H   H33       1.0  0.13780  0.67002  0.43036  1.0000
  C   C64       1.0  0.72312  0.53377  0.34719  1.0000
  N   N25       1.0  0.79114  0.52345  0.38920  1.0000
  C   C65       1.0  0.75837  0.53848  0.41164  1.0000
  N   N26       1.0  0.75823  0.55555  0.49824  1.0000
  O   O19       1.0  0.79941  0.59300  0.51521  1.0000
  O   O20       1.0  0.75067  0.52262  0.55417  1.0000
  C   C66       1.0  0.67977  0.53437  0.36942  1.0000
  H   H34       1.0  0.66856  0.52758  0.43437  1.0000
  C   C67       1.0  0.45994  0.18769  0.34429  1.0000
  N   N27       1.0  0.47064  0.26608  0.38727  1.0000
  C   C68       1.0  0.45492  0.21801  0.40884  1.0000
  N   N28       1.0  0.43673  0.20026  0.49471  1.0000
  O   O21       1.0  0.39938  0.20437  0.51048  1.0000
  O   O22       1.0  0.46912  0.22494  0.55192  1.0000
  C   C69       1.0  0.45804  0.14301  0.36603  1.0000
  H   H35       1.0  0.46436  0.13829  0.43105  1.0000
  C   C70       1.0  0.80562  0.27158  0.34554  1.0000
  N   N29       1.0  0.72706  0.20366  0.38669  1.0000
  C   C71       1.0  0.77488  0.23610  0.40949  1.0000
  N   N30       1.0  0.79198  0.23562  0.49592  1.0000
  O   O23       1.0  0.78796  0.19423  0.51198  1.0000
  O   O24       1.0  0.76672  0.24307  0.55227  1.0000
  C   C72       1.0  0.84981  0.31462  0.36820  1.0000
  H   H36       1.0  0.85391  0.32556  0.43326  1.0000
