data_image0
_chemical_formula_structural       C3NC3NC5NC5NC36H26N4C3NC3NC5NC5NC36H26N4C3NC3NC5NC5NC36H26N5C2HCHNC2HCHNC2HCHNC2HCHNC2HCHNC2HCHC16H16C16H16C16H16CNC3H3OCHCNC3H3OCHCNC3H3OCHCNC3H3OCHCNC3H3OCHCNC3H3OCH
_chemical_formula_sum              "C252 N36 H162 O6"
_cell_length_a       67.3836
_cell_length_b       67.3836
_cell_length_c       14.8596
_cell_angle_alpha    89.8352
_cell_angle_beta     90.1648
_cell_angle_gamma    120

_space_group_name_H-M_alt    "P 1"
_space_group_IT_number       1

loop_
  _space_group_symop_operation_xyz
  'x, y, z'

loop_
  _atom_site_type_symbol
  _atom_site_label
  _atom_site_symmetry_multiplicity
  _atom_site_fract_x
  _atom_site_fract_y
  _atom_site_fract_z
  _atom_site_occupancy
  C   C1        1.0  0.04883  0.50770  0.31902  1.0000
  C   C2        1.0  0.02516  0.49579  0.32059  1.0000
  C   C3        1.0  0.01757  0.51164  0.32379  1.0000
  N   N1        1.0  0.03689  0.53250  0.32434  1.0000
  C   C4        1.0  0.05629  0.53112  0.32167  1.0000
  C   C5        1.0  0.07962  0.54895  0.32171  1.0000
  C   C6        1.0  0.08699  0.57274  0.32382  1.0000
  N   N2        1.0  0.07399  0.58285  0.32352  1.0000
  C   C7        1.0  0.08690  0.60597  0.32601  1.0000
  C   C8        1.0  0.10967  0.61099  0.32813  1.0000
  C   C9        1.0  0.10973  0.59057  0.32668  1.0000
  C   C10       1.0  0.07940  0.62229  0.32593  1.0000
  C   C11       1.0  0.05602  0.61662  0.32410  1.0000
  N   N3        1.0  0.03671  0.59576  0.32488  1.0000
  C   C12       1.0  0.01732  0.59715  0.32235  1.0000
  C   C13       1.0  0.02477  0.62057  0.31961  1.0000
  C   C14       1.0  0.04844  0.63248  0.32099  1.0000
  C   C15       1.0  0.99398  0.57932  0.32253  1.0000
  C   C16       1.0  0.98662  0.55553  0.32457  1.0000
  N   N4        1.0  0.99961  0.54542  0.32387  1.0000
  C   C17       1.0  0.98671  0.52230  0.32637  1.0000
  C   C18       1.0  0.96395  0.51729  0.32895  1.0000
  C   C19       1.0  0.96389  0.53771  0.32775  1.0000
  C   C20       1.0  0.99420  0.50597  0.32593  1.0000
  C   C21       1.0  0.97685  0.48232  0.32743  1.0000
  C   C22       1.0  0.93841  0.43661  0.33201  1.0000
  C   C23       1.0  0.94726  0.44831  0.24942  1.0000
  C   C24       1.0  0.96608  0.47080  0.24704  1.0000
  C   C25       1.0  0.91841  0.41415  0.33441  1.0000
  C   C26       1.0  0.91490  0.39719  0.27008  1.0000
  C   C27       1.0  0.89504  0.37536  0.27135  1.0000
  C   C28       1.0  0.87786  0.36970  0.33697  1.0000
  C   C29       1.0  0.97655  0.58550  0.31998  1.0000
  C   C30       1.0  0.93840  0.59313  0.31697  1.0000
  C   C31       1.0  0.94668  0.58845  0.23688  1.0000
  C   C32       1.0  0.96544  0.58469  0.23822  1.0000
  C   C33       1.0  0.91863  0.59591  0.31603  1.0000
  C   C34       1.0  0.87870  0.60087  0.31623  1.0000
  C   C35       1.0  0.87936  0.58363  0.26493  1.0000
  C   C36       1.0  0.89893  0.58119  0.26476  1.0000
  C   C37       1.0  0.09673  0.64595  0.32747  1.0000
  C   C38       1.0  0.10724  0.65764  0.24701  1.0000
  C   C39       1.0  0.12592  0.68021  0.24935  1.0000
  C   C40       1.0  0.13486  0.69182  0.33196  1.0000
  C   C41       1.0  0.15468  0.71441  0.33430  1.0000
  C   C42       1.0  0.19481  0.75916  0.33707  1.0000
  C   C43       1.0  0.17747  0.75338  0.27176  1.0000
  C   C44       1.0  0.15782  0.73140  0.27041  1.0000
  C   C45       1.0  0.09707  0.54280  0.31918  1.0000
  C   C46       1.0  0.10793  0.54341  0.23726  1.0000
  C   C47       1.0  0.13553  0.53565  0.31625  1.0000
  C   C48       1.0  0.12683  0.53988  0.23596  1.0000
  C   C49       1.0  0.15551  0.53322  0.31541  1.0000
  C   C50       1.0  0.17492  0.54788  0.26274  1.0000
  C   C51       1.0  0.19473  0.54584  0.26321  1.0000
  C   C52       1.0  0.19595  0.52911  0.31637  1.0000
  H   H1        1.0  0.20846  0.55695  0.22491  1.0000
  H   H2        1.0  0.17507  0.56066  0.22487  1.0000
  H   H3        1.0  0.13429  0.54055  0.17529  1.0000
  H   H4        1.0  0.10250  0.54701  0.17821  1.0000
  H   H5        1.0  0.05879  0.50022  0.31660  1.0000
  H   H6        1.0  0.01528  0.47833  0.31918  1.0000
  H   H7        1.0  0.03686  0.54672  0.32768  1.0000
  H   H8        1.0  0.03675  0.58155  0.32829  1.0000
  H   H9        1.0  0.12418  0.58924  0.32807  1.0000
  H   H10       1.0  0.12406  0.62680  0.33037  1.0000
  H   H11       1.0  0.10179  0.64955  0.18626  1.0000
  H   H12       1.0  0.13358  0.68774  0.18974  1.0000
  H   H13       1.0  0.05831  0.64994  0.31941  1.0000
  H   H14       1.0  0.01482  0.62806  0.31718  1.0000
  H   H15       1.0  0.94955  0.50148  0.33139  1.0000
  H   H16       1.0  0.94944  0.53904  0.32957  1.0000
  H   H17       1.0  0.97060  0.58083  0.17933  1.0000
  H   H18       1.0  0.93905  0.58766  0.17634  1.0000
  H   H19       1.0  0.89841  0.56809  0.22818  1.0000
  H   H20       1.0  0.86540  0.57248  0.22766  1.0000
  H   H21       1.0  0.97142  0.47899  0.18634  1.0000
  H   H22       1.0  0.93940  0.44094  0.18988  1.0000
  H   H23       1.0  0.89334  0.36352  0.22450  1.0000
  H   H24       1.0  0.92703  0.40044  0.22216  1.0000
  H   H25       1.0  0.14554  0.72808  0.22282  1.0000
  H   H26       1.0  0.17890  0.76525  0.22529  1.0000
  N   N5        1.0  0.85884  0.34924  0.34274  1.0000
  N   N6        1.0  0.21548  0.52852  0.31360  1.0000
  N   N7        1.0  0.21364  0.77976  0.34298  1.0000
  N   N8        1.0  0.85935  0.60181  0.31328  1.0000
  C   C53       1.0  0.59479  0.63563  0.32132  1.0000
  C   C54       1.0  0.60670  0.62387  0.32288  1.0000
  C   C55       1.0  0.59084  0.60043  0.32592  1.0000
  N   N9        1.0  0.56998  0.59889  0.32648  1.0000
  C   C56       1.0  0.57137  0.61967  0.32383  1.0000
  C   C57       1.0  0.55354  0.62517  0.32377  1.0000
  C   C58       1.0  0.52975  0.60876  0.32583  1.0000
  N   N10       1.0  0.51963  0.58564  0.32559  1.0000
  C   C59       1.0  0.49652  0.57544  0.32799  1.0000
  C   C60       1.0  0.49150  0.59318  0.33000  1.0000
  C   C61       1.0  0.51193  0.61367  0.32858  1.0000
  C   C62       1.0  0.48019  0.55162  0.32792  1.0000
  C   C63       1.0  0.48585  0.53391  0.32617  1.0000
  N   N11       1.0  0.50671  0.53545  0.32696  1.0000
  C   C64       1.0  0.50532  0.51467  0.32445  1.0000
  C   C65       1.0  0.48190  0.49871  0.32175  1.0000
  C   C66       1.0  0.46999  0.51047  0.32313  1.0000
  C   C67       1.0  0.52315  0.50916  0.32461  1.0000
  C   C68       1.0  0.54694  0.52558  0.32659  1.0000
  N   N12       1.0  0.55705  0.54869  0.32594  1.0000
  C   C69       1.0  0.58017  0.55890  0.32831  1.0000
  C   C70       1.0  0.58519  0.54114  0.33078  1.0000
  C   C71       1.0  0.56475  0.52066  0.32966  1.0000
  C   C72       1.0  0.59651  0.58271  0.32792  1.0000
  C   C73       1.0  0.62016  0.58901  0.32935  1.0000
  C   C74       1.0  0.66587  0.59629  0.33367  1.0000
  C   C75       1.0  0.65416  0.59358  0.25113  1.0000
  C   C76       1.0  0.63168  0.58994  0.24886  1.0000
  C   C77       1.0  0.68834  0.59876  0.33592  1.0000
  C   C78       1.0  0.70529  0.61235  0.27166  1.0000
  C   C79       1.0  0.72713  0.61433  0.27274  1.0000
  C   C80       1.0  0.73280  0.60268  0.33810  1.0000
  C   C81       1.0  0.51696  0.48556  0.32209  1.0000
  C   C82       1.0  0.50933  0.43978  0.31914  1.0000
  C   C83       1.0  0.51399  0.45283  0.23902  1.0000
  C   C84       1.0  0.51774  0.47534  0.24033  1.0000
  C   C85       1.0  0.50655  0.41723  0.31823  1.0000
  C   C86       1.0  0.50160  0.37234  0.31844  1.0000
  C   C87       1.0  0.51882  0.39030  0.26708  1.0000
  C   C88       1.0  0.52127  0.41232  0.26695  1.0000
  C   C89       1.0  0.45653  0.54529  0.32933  1.0000
  C   C90       1.0  0.44485  0.54416  0.24876  1.0000
  C   C91       1.0  0.42229  0.54029  0.25094  1.0000
  C   C92       1.0  0.41066  0.53755  0.33346  1.0000
  C   C93       1.0  0.38807  0.53477  0.33560  1.0000
  C   C94       1.0  0.34332  0.53015  0.33782  1.0000
  C   C95       1.0  0.34911  0.51862  0.27281  1.0000
  C   C96       1.0  0.37109  0.52094  0.27174  1.0000
  C   C97       1.0  0.55970  0.64878  0.32125  1.0000
  C   C98       1.0  0.55909  0.65914  0.23933  1.0000
  C   C99       1.0  0.56685  0.69439  0.31835  1.0000
  C   C100      1.0  0.56262  0.68157  0.23805  1.0000
  C   C101      1.0  0.56928  0.71681  0.31753  1.0000
  C   C102      1.0  0.55460  0.72161  0.26489  1.0000
  C   C103      1.0  0.55664  0.74346  0.26536  1.0000
  C   C104      1.0  0.57338  0.76135  0.31848  1.0000
  H   H27       1.0  0.54554  0.74614  0.22708  1.0000
  H   H28       1.0  0.54182  0.70903  0.22703  1.0000
  H   H29       1.0  0.56194  0.68843  0.17739  1.0000
  H   H30       1.0  0.55549  0.65019  0.18029  1.0000
  H   H31       1.0  0.60228  0.65308  0.31889  1.0000
  H   H32       1.0  0.62416  0.63145  0.32142  1.0000
  H   H33       1.0  0.55577  0.58463  0.32944  1.0000
  H   H34       1.0  0.52093  0.54970  0.33030  1.0000
  H   H35       1.0  0.51326  0.62945  0.32990  1.0000
  H   H36       1.0  0.47569  0.59177  0.33216  1.0000
  H   H37       1.0  0.45296  0.54684  0.18806  1.0000
  H   H38       1.0  0.41476  0.54043  0.19124  1.0000
  H   H39       1.0  0.45253  0.50289  0.32150  1.0000
  H   H40       1.0  0.47440  0.48127  0.31933  1.0000
  H   H41       1.0  0.60099  0.54255  0.33309  1.0000
  H   H42       1.0  0.56342  0.50488  0.33135  1.0000
  H   H43       1.0  0.52160  0.48443  0.18143  1.0000
  H   H44       1.0  0.51478  0.44606  0.17849  1.0000
  H   H45       1.0  0.53435  0.42493  0.23028  1.0000
  H   H46       1.0  0.52997  0.38753  0.22979  1.0000
  H   H47       1.0  0.62349  0.58721  0.18819  1.0000
  H   H48       1.0  0.66154  0.59326  0.19151  1.0000
  H   H49       1.0  0.73896  0.62458  0.22597  1.0000
  H   H50       1.0  0.70204  0.62134  0.22397  1.0000
  H   H51       1.0  0.37444  0.51203  0.22431  1.0000
  H   H52       1.0  0.33726  0.50821  0.22636  1.0000
  N   N13       1.0  0.75327  0.60410  0.34356  1.0000
  N   N14       1.0  0.57397  0.78147  0.31572  1.0000
  N   N15       1.0  0.32271  0.52836  0.34349  1.0000
  N   N16       1.0  0.50065  0.35205  0.31547  1.0000
  C   C105      1.0  0.46684  0.05366  0.32251  1.0000
  C   C106      1.0  0.47860  0.07733  0.32418  1.0000
  C   C107      1.0  0.50204  0.08491  0.32734  1.0000
  N   N17       1.0  0.50358  0.06559  0.32785  1.0000
  C   C108      1.0  0.48280  0.04620  0.32508  1.0000
  C   C109      1.0  0.47730  0.02286  0.32499  1.0000
  C   C110      1.0  0.49372  0.01549  0.32718  1.0000
  N   N18       1.0  0.51683  0.02849  0.32701  1.0000
  C   C111      1.0  0.52704  0.01558  0.32955  1.0000
  C   C112      1.0  0.50929  0.99281  0.33160  1.0000
  C   C113      1.0  0.48881  0.99275  0.32999  1.0000
  C   C114      1.0  0.55085  0.02306  0.32950  1.0000
  C   C115      1.0  0.56856  0.04644  0.32754  1.0000
  N   N19       1.0  0.56702  0.06576  0.32820  1.0000
  C   C116      1.0  0.58780  0.08515  0.32553  1.0000
  C   C117      1.0  0.60376  0.07769  0.32281  1.0000
  C   C118      1.0  0.59200  0.05402  0.32436  1.0000
  C   C119      1.0  0.59330  0.10848  0.32558  1.0000
  C   C120      1.0  0.57689  0.11586  0.32772  1.0000
  N   N20       1.0  0.55378  0.10286  0.32722  1.0000
  C   C121      1.0  0.54357  0.11577  0.32975  1.0000
  C   C122      1.0  0.56133  0.13853  0.33216  1.0000
  C   C123      1.0  0.58181  0.13859  0.33080  1.0000
  C   C124      1.0  0.51976  0.10828  0.32946  1.0000
  C   C125      1.0  0.51345  0.12564  0.33097  1.0000
  C   C126      1.0  0.50618  0.16407  0.33553  1.0000
  C   C127      1.0  0.50888  0.15519  0.25293  1.0000
  C   C128      1.0  0.51252  0.13635  0.25055  1.0000
  C   C129      1.0  0.50372  0.18407  0.33787  1.0000
  C   C130      1.0  0.49011  0.18752  0.27370  1.0000
  C   C131      1.0  0.48814  0.20737  0.27485  1.0000
  C   C132      1.0  0.49982  0.22462  0.34017  1.0000
  C   C133      1.0  0.61691  0.12591  0.32276  1.0000
  C   C134      1.0  0.66269  0.16406  0.31914  1.0000
  C   C135      1.0  0.64958  0.15569  0.23918  1.0000
  C   C136      1.0  0.62707  0.13694  0.24082  1.0000
  C   C137      1.0  0.68524  0.18383  0.31789  1.0000
  C   C138      1.0  0.73012  0.22378  0.31762  1.0000
  C   C139      1.0  0.71215  0.22304  0.26613  1.0000
  C   C140      1.0  0.69013  0.20347  0.26623  1.0000
  C   C141      1.0  0.55718  0.00573  0.33105  1.0000
  C   C142      1.0  0.55834  0.99528  0.25053  1.0000
  C   C143      1.0  0.56221  0.97659  0.25281  1.0000
  C   C144      1.0  0.56493  0.96760  0.33538  1.0000
  C   C145      1.0  0.56771  0.94778  0.33761  1.0000
  C   C146      1.0  0.57233  0.90765  0.34001  1.0000
  C   C147      1.0  0.58387  0.92505  0.27497  1.0000
  C   C148      1.0  0.58154  0.94471  0.27379  1.0000
  C   C149      1.0  0.45370  0.00542  0.32220  1.0000
  C   C150      1.0  0.44340  0.99461  0.24013  1.0000
  C   C151      1.0  0.40809  0.96695  0.31865  1.0000
  C   C152      1.0  0.42098  0.97571  0.23852  1.0000
  C   C153      1.0  0.38568  0.94697  0.31748  1.0000
  C   C154      1.0  0.38091  0.92759  0.26465  1.0000
  C   C155      1.0  0.35907  0.90779  0.26481  1.0000
  C   C156      1.0  0.34113  0.90653  0.31776  1.0000
  H   H53       1.0  0.35641  0.89408  0.22638  1.0000
  H   H54       1.0  0.39353  0.92747  0.22692  1.0000
  H   H55       1.0  0.41417  0.96828  0.17776  1.0000
  H   H56       1.0  0.45240  0.00007  0.18120  1.0000
  H   H57       1.0  0.44940  0.04370  0.32003  1.0000
  H   H58       1.0  0.47102  0.08721  0.32278  1.0000
  H   H59       1.0  0.51784  0.06563  0.33101  1.0000
  H   H60       1.0  0.55277  0.06572  0.33162  1.0000
  H   H61       1.0  0.47303  0.97830  0.33136  1.0000
  H   H62       1.0  0.51070  0.97840  0.33383  1.0000
  H   H63       1.0  0.55564  0.00076  0.18980  1.0000
  H   H64       1.0  0.56205  0.96898  0.19314  1.0000
  H   H65       1.0  0.59958  0.04415  0.32288  1.0000
  H   H66       1.0  0.62120  0.08764  0.32035  1.0000
  H   H67       1.0  0.55992  0.15293  0.33454  1.0000
  H   H68       1.0  0.59759  0.15303  0.33243  1.0000
  H   H69       1.0  0.61794  0.13171  0.18202  1.0000
  H   H70       1.0  0.65631  0.16326  0.17852  1.0000
  H   H71       1.0  0.67751  0.20395  0.22954  1.0000
  H   H72       1.0  0.71490  0.23696  0.22861  1.0000
  H   H73       1.0  0.51523  0.13097  0.18984  1.0000
  H   H74       1.0  0.50919  0.16298  0.19335  1.0000
  H   H75       1.0  0.47789  0.20903  0.22812  1.0000
  H   H76       1.0  0.48111  0.17534  0.22600  1.0000
  H   H77       1.0  0.59046  0.95702  0.22637  1.0000
  H   H78       1.0  0.59428  0.92367  0.22855  1.0000
  N   N21       1.0  0.49840  0.24365  0.34570  1.0000
  N   N22       1.0  0.32101  0.88701  0.31465  1.0000
  N   N23       1.0  0.57412  0.88882  0.34572  1.0000
  N   N24       1.0  0.75040  0.24313  0.31441  1.0000
  N   N25       1.0  0.25400  0.52617  0.26002  1.0000
  C   C157      1.0  0.27452  0.52848  0.23683  1.0000
  C   C158      1.0  0.28742  0.52455  0.30219  1.0000
  H   H79       1.0  0.28020  0.53289  0.17217  1.0000
  C   C159      1.0  0.30820  0.52601  0.28195  1.0000
  H   H80       1.0  0.31221  0.52583  0.21769  1.0000
  N   N26       1.0  0.57630  0.82241  0.26218  1.0000
  C   C160      1.0  0.57398  0.84064  0.23905  1.0000
  C   C161      1.0  0.57793  0.85739  0.30440  1.0000
  H   H81       1.0  0.56954  0.84199  0.17441  1.0000
  C   C162      1.0  0.57645  0.87673  0.28419  1.0000
  H   H82       1.0  0.57662  0.88099  0.21992  1.0000
  N   N27       1.0  0.28016  0.84848  0.26059  1.0000
  C   C163      1.0  0.26194  0.82797  0.23711  1.0000
  C   C164      1.0  0.24510  0.81506  0.30214  1.0000
  H   H83       1.0  0.26069  0.82229  0.17249  1.0000
  C   C165      1.0  0.22579  0.79429  0.28161  1.0000
  H   H84       1.0  0.22157  0.79032  0.21728  1.0000
  N   N28       1.0  0.82146  0.60561  0.25777  1.0000
  C   C166      1.0  0.80099  0.60357  0.23529  1.0000
  C   C167      1.0  0.78823  0.60732  0.30146  1.0000
  H   H85       1.0  0.79526  0.59953  0.17048  1.0000
  C   C168      1.0  0.76754  0.60617  0.28177  1.0000
  H   H86       1.0  0.76342  0.60642  0.21759  1.0000
  N   N29       1.0  0.49687  0.31045  0.25997  1.0000
  C   C169      1.0  0.49892  0.29205  0.23748  1.0000
  C   C170      1.0  0.49518  0.27546  0.30364  1.0000
  H   H87       1.0  0.50298  0.29045  0.17268  1.0000
  C   C171      1.0  0.49634  0.25595  0.28393  1.0000
  H   H88       1.0  0.49610  0.25167  0.21974  1.0000
  N   N30       1.0  0.79183  0.28106  0.25888  1.0000
  C   C172      1.0  0.81023  0.30148  0.23581  1.0000
  C   C173      1.0  0.82699  0.31425  0.30142  1.0000
  H   H89       1.0  0.81169  0.30719  0.17102  1.0000
  C   C174      1.0  0.84649  0.33491  0.28122  1.0000
  H   H90       1.0  0.85069  0.33897  0.21694  1.0000
  C   C175      1.0  0.96849  0.47073  0.41006  1.0000
  C   C176      1.0  0.94965  0.44826  0.41213  1.0000
  C   C177      1.0  0.88140  0.38631  0.40223  1.0000
  C   C178      1.0  0.90120  0.40816  0.40057  1.0000
  C   C179      1.0  0.96866  0.59045  0.40007  1.0000
  C   C180      1.0  0.94996  0.59431  0.39838  1.0000
  C   C181      1.0  0.91791  0.61324  0.36721  1.0000
  C   C182      1.0  0.89836  0.61574  0.36721  1.0000
  C   C183      1.0  0.12390  0.67999  0.41215  1.0000
  C   C184      1.0  0.10521  0.65743  0.41013  1.0000
  C   C185      1.0  0.17208  0.72050  0.40005  1.0000
  C   C186      1.0  0.19166  0.74250  0.40183  1.0000
  C   C187      1.0  0.10536  0.53828  0.39949  1.0000
  C   C188      1.0  0.12420  0.53465  0.39785  1.0000
  C   C189      1.0  0.17656  0.51427  0.36862  1.0000
  C   C190      1.0  0.15678  0.51635  0.36827  1.0000
  H   H91       1.0  0.17659  0.50174  0.40738  1.0000
  H   H92       1.0  0.14307  0.50511  0.40631  1.0000
  H   H93       1.0  0.13021  0.53224  0.45782  1.0000
  H   H94       1.0  0.09816  0.53830  0.46005  1.0000
  H   H95       1.0  0.09814  0.64925  0.46957  1.0000
  H   H96       1.0  0.12951  0.68768  0.47345  1.0000
  H   H97       1.0  0.97606  0.59060  0.46053  1.0000
  H   H98       1.0  0.94426  0.59706  0.45822  1.0000
  H   H99       1.0  0.89872  0.62858  0.40479  1.0000
  H   H100      1.0  0.93183  0.62452  0.40425  1.0000
  H   H101      1.0  0.90264  0.41989  0.44754  1.0000
  H   H102      1.0  0.86932  0.38272  0.45084  1.0000
  H   H103      1.0  0.94411  0.44050  0.47341  1.0000
  H   H104      1.0  0.97572  0.47880  0.46948  1.0000
  H   H105      1.0  0.17090  0.70877  0.44669  1.0000
  H   H106      1.0  0.20387  0.74617  0.45017  1.0000
  C   C191      1.0  0.63174  0.59207  0.41194  1.0000
  C   C192      1.0  0.65422  0.59570  0.41388  1.0000
  C   C193      1.0  0.71620  0.58946  0.40327  1.0000
  C   C194      1.0  0.69433  0.58739  0.40178  1.0000
  C   C195      1.0  0.51205  0.47263  0.40222  1.0000
  C   C196      1.0  0.50818  0.45007  0.40056  1.0000
  C   C197      1.0  0.48923  0.39911  0.36944  1.0000
  C   C198      1.0  0.48674  0.37707  0.36945  1.0000
  C   C199      1.0  0.42248  0.53838  0.41376  1.0000
  C   C200      1.0  0.44504  0.54224  0.41192  1.0000
  C   C201      1.0  0.38195  0.54602  0.40111  1.0000
  C   C202      1.0  0.35995  0.54361  0.40262  1.0000
  C   C203      1.0  0.56422  0.66149  0.40157  1.0000
  C   C204      1.0  0.56785  0.68397  0.39995  1.0000
  C   C205      1.0  0.58823  0.75674  0.37070  1.0000
  C   C206      1.0  0.58615  0.73487  0.37035  1.0000
  H   H107      1.0  0.60077  0.76926  0.40944  1.0000
  H   H108      1.0  0.59740  0.73237  0.40837  1.0000
  H   H109      1.0  0.57024  0.69230  0.45991  1.0000
  H   H110      1.0  0.56419  0.65419  0.46213  1.0000
  H   H111      1.0  0.45321  0.54333  0.47143  1.0000
  H   H112      1.0  0.41477  0.53625  0.47502  1.0000
  H   H113      1.0  0.51188  0.47980  0.46267  1.0000
  H   H114      1.0  0.50543  0.44154  0.46039  1.0000
  H   H115      1.0  0.47390  0.36454  0.40707  1.0000
  H   H116      1.0  0.47796  0.40172  0.40650  1.0000
  H   H117      1.0  0.68262  0.57701  0.44870  1.0000
  H   H118      1.0  0.71979  0.58086  0.45166  1.0000
  H   H119      1.0  0.66198  0.59780  0.47514  1.0000
  H   H120      1.0  0.62367  0.59109  0.47141  1.0000
  H   H121      1.0  0.39367  0.55656  0.44770  1.0000
  H   H122      1.0  0.35626  0.55212  0.45076  1.0000
  C   C207      1.0  0.51041  0.13405  0.41362  1.0000
  C   C208      1.0  0.50680  0.15290  0.41567  1.0000
  C   C209      1.0  0.51304  0.22114  0.40530  1.0000
  C   C210      1.0  0.51510  0.20134  0.40376  1.0000
  C   C211      1.0  0.62989  0.13389  0.40272  1.0000
  C   C212      1.0  0.65245  0.15258  0.40073  1.0000
  C   C213      1.0  0.70338  0.18462  0.36916  1.0000
  C   C214      1.0  0.72541  0.20417  0.36892  1.0000
  C   C215      1.0  0.56408  0.97850  0.41563  1.0000
  C   C216      1.0  0.56021  0.99719  0.41368  1.0000
  C   C217      1.0  0.55645  0.93034  0.40315  1.0000
  C   C218      1.0  0.55887  0.91075  0.40476  1.0000
  C   C219      1.0  0.44093  0.99707  0.40235  1.0000
  C   C220      1.0  0.41845  0.97823  0.40040  1.0000
  C   C221      1.0  0.34570  0.92588  0.37015  1.0000
  C   C222      1.0  0.36757  0.94567  0.37013  1.0000
  H   H123      1.0  0.33316  0.92583  0.40877  1.0000
  H   H124      1.0  0.37005  0.95934  0.40829  1.0000
  H   H125      1.0  0.41007  0.97217  0.46026  1.0000
  H   H126      1.0  0.44817  0.00422  0.46302  1.0000
  H   H127      1.0  0.55912  0.00422  0.47315  1.0000
  H   H128      1.0  0.56620  0.97285  0.47692  1.0000
  H   H129      1.0  0.62276  0.12655  0.46331  1.0000
  H   H130      1.0  0.66101  0.15835  0.46047  1.0000
  H   H131      1.0  0.73796  0.20386  0.40655  1.0000
  H   H132      1.0  0.70079  0.17073  0.40644  1.0000
  H   H133      1.0  0.52549  0.19994  0.45061  1.0000
  H   H134      1.0  0.52165  0.23327  0.45368  1.0000
  H   H135      1.0  0.50472  0.15848  0.47697  1.0000
  H   H136      1.0  0.51142  0.12688  0.47306  1.0000
  H   H137      1.0  0.54591  0.93147  0.44970  1.0000
  H   H138      1.0  0.55035  0.89850  0.45289  1.0000
  C   C223      1.0  0.24475  0.52026  0.34393  1.0000
  N   N31       1.0  0.27818  0.51856  0.38596  1.0000
  C   C224      1.0  0.25762  0.51621  0.41020  1.0000
  C   C225      1.0  0.25055  0.51000  0.49824  1.0000
  C   C226      1.0  0.24969  0.52586  0.56155  1.0000
  H   H139      1.0  0.25209  0.54145  0.52883  1.0000
  H   H140      1.0  0.26303  0.53076  0.61249  1.0000
  H   H141      1.0  0.23303  0.51761  0.59480  1.0000
  O   O1        1.0  0.25044  0.49306  0.52880  1.0000
  C   C227      1.0  0.22316  0.51751  0.35920  1.0000
  H   H142      1.0  0.21367  0.50710  0.40829  1.0000
  C   C228      1.0  0.58225  0.81898  0.34604  1.0000
  N   N32       1.0  0.58394  0.85404  0.38815  1.0000
  C   C229      1.0  0.58630  0.83581  0.41234  1.0000
  C   C230      1.0  0.59256  0.83483  0.50034  1.0000
  C   C231      1.0  0.57652  0.81812  0.56349  1.0000
  H   H143      1.0  0.56101  0.80491  0.53050  1.0000
  H   H144      1.0  0.57148  0.82657  0.61361  1.0000
  H   H145      1.0  0.58469  0.80973  0.59782  1.0000
  O   O2        1.0  0.60935  0.85170  0.53121  1.0000
  C   C232      1.0  0.58499  0.80011  0.36130  1.0000
  H   H146      1.0  0.59542  0.80097  0.41033  1.0000
  C   C233      1.0  0.28348  0.85771  0.34447  1.0000
  N   N33       1.0  0.24834  0.82429  0.38590  1.0000
  C   C234      1.0  0.26655  0.84484  0.41042  1.0000
  C   C235      1.0  0.26741  0.85194  0.49839  1.0000
  C   C236      1.0  0.28392  0.85230  0.56205  1.0000
  H   H147      1.0  0.29718  0.85007  0.52941  1.0000
  H   H148      1.0  0.27530  0.83864  0.61162  1.0000
  H   H149      1.0  0.29227  0.86873  0.59698  1.0000
  O   O3        1.0  0.25050  0.85182  0.52880  1.0000
  C   C237      1.0  0.30234  0.87929  0.36008  1.0000
  H   H150      1.0  0.30146  0.88874  0.40928  1.0000
  C   C238      1.0  0.83076  0.61104  0.34179  1.0000
  N   N34       1.0  0.79753  0.61281  0.38539  1.0000
  C   C239      1.0  0.81803  0.61485  0.40901  1.0000
  C   C240      1.0  0.82523  0.62061  0.49726  1.0000
  C   C241      1.0  0.82709  0.60479  0.55820  1.0000
  H   H151      1.0  0.82453  0.58934  0.52412  1.0000
  H   H152      1.0  0.81431  0.59963  0.61147  1.0000
  H   H153      1.0  0.84411  0.61321  0.58871  1.0000
  O   O4        1.0  0.82540  0.63737  0.52966  1.0000
  C   C242      1.0  0.85234  0.61370  0.35624  1.0000
  H   H154      1.0  0.86231  0.62471  0.40293  1.0000
  C   C243      1.0  0.49143  0.31419  0.34398  1.0000
  N   N35       1.0  0.48968  0.27915  0.38756  1.0000
  C   C244      1.0  0.48763  0.29758  0.41120  1.0000
  C   C245      1.0  0.48186  0.29889  0.49944  1.0000
  C   C246      1.0  0.49767  0.31650  0.56039  1.0000
  H   H155      1.0  0.51312  0.32944  0.52632  1.0000
  H   H156      1.0  0.50284  0.30883  0.61366  1.0000
  H   H157      1.0  0.48925  0.32505  0.59090  1.0000
  O   O5        1.0  0.46511  0.28226  0.53184  1.0000
  C   C247      1.0  0.48877  0.33310  0.35846  1.0000
  H   H158      1.0  0.47777  0.33200  0.40517  1.0000
  C   C248      1.0  0.78825  0.27180  0.34293  1.0000
  N   N36       1.0  0.82347  0.30499  0.38538  1.0000
  C   C249      1.0  0.80506  0.28454  0.40954  1.0000
  C   C250      1.0  0.80395  0.27743  0.49780  1.0000
  C   C251      1.0  0.78667  0.27584  0.55981  1.0000
  H   H159      1.0  0.77374  0.27858  0.52656  1.0000
  H   H160      1.0  0.79466  0.28864  0.61282  1.0000
  H   H161      1.0  0.77803  0.25885  0.59052  1.0000
  O   O6        1.0  0.82052  0.27691  0.52883  1.0000
  C   C252      1.0  0.76930  0.25029  0.35805  1.0000
  H   H162      1.0  0.77031  0.24045  0.40555  1.0000
