data_image0
_chemical_formula_structural       C2NC2OHC2NC2OHC2NC2OHC2NC2OHC2NC2OHC2NC2OHNCHNCHNCHNCHNCHNCHC2NC2OHC2NC2OHC2NC2OHC2NC2OHC2NC2OHC2NC2OHCNCNCNCNCNCNCNCNCNCNCNCNCNCNCNCNCNCNCNCNCNCNCNCNCNCNCNCNCNCNCNCNCNCNCNCN2CHNCHNCHNCHNCHNCHC2NC2OHC2NC2OHC2NC2OHC2NC2OHC2NC2OHC2NC2OHNCHNCHNCHNCHNCHNCH
_chemical_formula_sum              "C126 N72 O18 H36"
_cell_length_a       38.9909
_cell_length_b       38.9908
_cell_length_c       14.817
_cell_angle_alpha    90
_cell_angle_beta     90
_cell_angle_gamma    120

_space_group_name_H-M_alt    "P 1"
_space_group_IT_number       1

loop_
  _space_group_symop_operation_xyz
  'x, y, z'

loop_
  _atom_site_type_symbol
  _atom_site_label
  _atom_site_symmetry_multiplicity
  _atom_site_fract_x
  _atom_site_fract_y
  _atom_site_fract_z
  _atom_site_occupancy
  C   C1        1.0  0.27460  0.46734  0.30984  1.0000
  C   C2        1.0  0.19920  0.46162  0.31698  1.0000
  N   N1        1.0  0.23237  0.49477  0.28895  1.0000
  C   C3        1.0  0.26932  0.49950  0.28236  1.0000
  C   C4        1.0  0.29909  0.53510  0.24806  1.0000
  O   O1        1.0  0.29453  0.56392  0.24529  1.0000
  H   H1        1.0  0.31428  0.53282  0.19699  1.0000
  C   C5        1.0  0.56680  0.82885  0.30937  1.0000
  C   C6        1.0  0.57250  0.75917  0.31683  1.0000
  N   N2        1.0  0.53947  0.75923  0.28799  1.0000
  C   C7        1.0  0.53479  0.79146  0.28116  1.0000
  C   C8        1.0  0.49938  0.78564  0.24593  1.0000
  O   O2        1.0  0.47054  0.75234  0.24076  1.0000
  H   H2        1.0  0.50133  0.80382  0.19675  1.0000
  C   C9        1.0  0.20496  0.75944  0.30920  1.0000
  C   C10       1.0  0.27469  0.83477  0.31706  1.0000
  N   N3        1.0  0.27461  0.80169  0.28807  1.0000
  C   C11       1.0  0.24235  0.76480  0.28106  1.0000
  C   C12       1.0  0.24816  0.73521  0.24577  1.0000
  O   O3        1.0  0.28144  0.73964  0.24059  1.0000
  H   H3        1.0  0.22997  0.71899  0.19659  1.0000
  C   C13       1.0  0.75623  0.56957  0.30971  1.0000
  C   C14       1.0  0.83162  0.57528  0.31690  1.0000
  N   N4        1.0  0.79845  0.54214  0.28883  1.0000
  C   C15       1.0  0.76150  0.53741  0.28222  1.0000
  C   C16       1.0  0.73172  0.50185  0.24786  1.0000
  O   O4        1.0  0.73651  0.47317  0.24446  1.0000
  H   H4        1.0  0.71607  0.50367  0.19727  1.0000
  C   C17       1.0  0.46417  0.20809  0.31016  1.0000
  C   C18       1.0  0.45838  0.27775  0.31724  1.0000
  N   N5        1.0  0.49152  0.27773  0.28904  1.0000
  C   C19       1.0  0.49627  0.24553  0.28246  1.0000
  C   C20       1.0  0.53184  0.25136  0.24795  1.0000
  O   O5        1.0  0.56061  0.28475  0.24479  1.0000
  H   H5        1.0  0.52951  0.23380  0.19704  1.0000
  C   C21       1.0  0.82586  0.27742  0.30927  1.0000
  C   C22       1.0  0.75613  0.20207  0.31693  1.0000
  N   N6        1.0  0.75623  0.23516  0.28797  1.0000
  C   C23       1.0  0.78848  0.27206  0.28102  1.0000
  C   C24       1.0  0.78269  0.30164  0.24566  1.0000
  O   O6        1.0  0.74940  0.29720  0.24037  1.0000
  H   H6        1.0  0.80090  0.31786  0.19652  1.0000
  N   N7        1.0  0.16829  0.57399  0.31276  1.0000
  C   C25       1.0  0.17232  0.61073  0.30892  1.0000
  H   H7        1.0  0.19511  0.63255  0.27276  1.0000
  N   N8        1.0  0.46018  0.61586  0.31249  1.0000
  C   C26       1.0  0.42344  0.58315  0.30855  1.0000
  H   H8        1.0  0.40164  0.58410  0.27226  1.0000
  N   N9        1.0  0.41789  0.86545  0.31336  1.0000
  C   C27       1.0  0.45059  0.86138  0.30957  1.0000
  H   H9        1.0  0.44944  0.83825  0.27451  1.0000
  N   N10       1.0  0.86251  0.46288  0.31261  1.0000
  C   C28       1.0  0.85846  0.42612  0.30892  1.0000
  H   H10       1.0  0.83570  0.40429  0.27269  1.0000
  N   N11       1.0  0.57074  0.42099  0.31311  1.0000
  C   C29       1.0  0.60749  0.45370  0.30927  1.0000
  H   H11       1.0  0.62939  0.45262  0.27368  1.0000
  N   N12       1.0  0.61281  0.17115  0.31268  1.0000
  C   C30       1.0  0.58009  0.17517  0.30874  1.0000
  H   H12       1.0  0.58098  0.19783  0.27216  1.0000
  C   C31       1.0  0.05377  0.40317  0.35571  1.0000
  C   C32       1.0  0.97014  0.36331  0.36184  1.0000
  N   N13       1.0  0.99031  0.35830  0.29277  1.0000
  C   C33       1.0  0.03075  0.37524  0.28760  1.0000
  C   C34       1.0  0.04710  0.36932  0.21012  1.0000
  O   O7        1.0  0.02612  0.34148  0.16076  1.0000
  H   H13       1.0  0.07498  0.37549  0.21401  1.0000
  C   C35       1.0  0.63097  0.67224  0.35561  1.0000
  C   C36       1.0  0.67067  0.62836  0.36159  1.0000
  N   N14       1.0  0.67561  0.65345  0.29235  1.0000
  C   C37       1.0  0.65873  0.67699  0.28724  1.0000
  C   C38       1.0  0.66455  0.69910  0.20972  1.0000
  O   O8        1.0  0.69235  0.70625  0.15988  1.0000
  H   H14       1.0  0.65771  0.72039  0.21173  1.0000
  C   C39       1.0  0.36155  0.98016  0.35627  1.0000
  C   C40       1.0  0.40562  0.06376  0.36212  1.0000
  N   N15       1.0  0.38026  0.04367  0.29330  1.0000
  C   C41       1.0  0.35670  0.00324  0.28825  1.0000
  C   C42       1.0  0.33418  0.98692  0.21128  1.0000
  O   O9        1.0  0.32707  0.00762  0.16156  1.0000
  H   H15       1.0  0.31270  0.95887  0.21385  1.0000
  C   C43       1.0  0.97709  0.63367  0.35517  1.0000
  C   C44       1.0  0.06065  0.67356  0.36150  1.0000
  N   N16       1.0  0.04055  0.67856  0.29228  1.0000
  C   C45       1.0  0.00010  0.66159  0.28702  1.0000
  C   C46       1.0  0.98383  0.66748  0.20947  1.0000
  O   O10       1.0  0.00429  0.69721  0.16467  1.0000
  H   H16       1.0  0.95543  0.65958  0.21064  1.0000
  C   C47       1.0  0.39985  0.36466  0.35581  1.0000
  C   C48       1.0  0.36026  0.40866  0.36184  1.0000
  N   N17       1.0  0.35525  0.38356  0.29259  1.0000
  C   C49       1.0  0.37208  0.35996  0.28745  1.0000
  C   C50       1.0  0.36625  0.33781  0.20983  1.0000
  O   O11       1.0  0.33851  0.33108  0.16028  1.0000
  H   H17       1.0  0.37235  0.31604  0.21366  1.0000
  C   C51       1.0  0.66905  0.05668  0.35613  1.0000
  C   C52       1.0  0.62523  0.97315  0.36190  1.0000
  N   N18       1.0  0.65066  0.99327  0.29320  1.0000
  C   C53       1.0  0.67419  0.03371  0.28830  1.0000
  C   C54       1.0  0.69671  0.05003  0.21133  1.0000
  O   O12       1.0  0.70418  0.02943  0.16215  1.0000
  H   H18       1.0  0.71798  0.07818  0.21366  1.0000
  C   C55       1.0  0.09386  0.43411  0.34695  1.0000
  N   N19       1.0  0.12662  0.43045  0.33414  1.0000
  C   C56       1.0  0.16364  0.46319  0.32685  1.0000
  N   N20       1.0  0.16698  0.49972  0.33363  1.0000
  C   C57       1.0  0.13533  0.50464  0.34828  1.0000
  N   N21       1.0  0.09952  0.47128  0.35354  1.0000
  C   C58       1.0  0.59998  0.68134  0.34696  1.0000
  N   N22       1.0  0.60364  0.71776  0.33413  1.0000
  C   C59       1.0  0.57091  0.72204  0.32686  1.0000
  N   N23       1.0  0.53438  0.68886  0.33366  1.0000
  C   C60       1.0  0.52947  0.65229  0.34835  1.0000
  N   N24       1.0  0.56282  0.64982  0.35357  1.0000
  C   C61       1.0  0.35247  0.94008  0.34739  1.0000
  N   N25       1.0  0.31606  0.90731  0.33459  1.0000
  C   C62       1.0  0.31182  0.87031  0.32704  1.0000
  N   N26       1.0  0.34503  0.86700  0.33346  1.0000
  C   C63       1.0  0.38161  0.89867  0.34800  1.0000
  N   N27       1.0  0.38400  0.93444  0.35357  1.0000
  C   C64       1.0  0.93697  0.60276  0.34655  1.0000
  N   N28       1.0  0.90421  0.60644  0.33384  1.0000
  C   C65       1.0  0.86718  0.57371  0.32666  1.0000
  N   N29       1.0  0.86383  0.53718  0.33346  1.0000
  C   C66       1.0  0.89548  0.53225  0.34799  1.0000
  N   N30       1.0  0.93130  0.56560  0.35314  1.0000
  C   C67       1.0  0.43079  0.35552  0.34703  1.0000
  N   N31       1.0  0.42716  0.31910  0.33434  1.0000
  C   C68       1.0  0.45992  0.31486  0.32702  1.0000
  N   N32       1.0  0.49643  0.34808  0.33364  1.0000
  C   C69       1.0  0.50132  0.38465  0.34813  1.0000
  N   N33       1.0  0.46794  0.38705  0.35343  1.0000
  C   C70       1.0  0.67822  0.09680  0.34742  1.0000
  N   N34       1.0  0.71465  0.12952  0.33445  1.0000
  C   C71       1.0  0.71899  0.16656  0.32710  1.0000
  N   N35       1.0  0.68584  0.16997  0.33398  1.0000
  C   C72       1.0  0.64926  0.13835  0.34882  1.0000
  N   N36       1.0  0.64675  0.10252  0.35409  1.0000
  C   C73       1.0  0.43709  0.10327  0.35024  1.0000
  N   N37       1.0  0.43363  0.13586  0.33255  1.0000
  C   C74       1.0  0.46637  0.17261  0.32040  1.0000
  N   N38       1.0  0.50263  0.17537  0.32636  1.0000
  C   C75       1.0  0.50740  0.14384  0.34318  1.0000
  N   N39       1.0  0.47412  0.10841  0.35521  1.0000
  C   C76       1.0  0.67864  0.59687  0.34944  1.0000
  N   N40       1.0  0.71466  0.60025  0.33196  1.0000
  C   C77       1.0  0.71858  0.56746  0.31983  1.0000
  N   N41       1.0  0.68503  0.53124  0.32573  1.0000
  C   C78       1.0  0.64874  0.52655  0.34238  1.0000
  N   N42       1.0  0.64668  0.55988  0.35434  1.0000
  C   C79       1.0  0.93062  0.35518  0.34975  1.0000
  N   N43       1.0  0.89808  0.31913  0.33195  1.0000
  C   C80       1.0  0.86132  0.31510  0.31966  1.0000
  N   N44       1.0  0.85850  0.34857  0.32571  1.0000
  C   C81       1.0  0.89001  0.38489  0.34265  1.0000
  N   N45       1.0  0.92545  0.38705  0.35474  1.0000
  C   C82       1.0  0.59382  0.93362  0.34976  1.0000
  N   N46       1.0  0.59730  0.90105  0.33206  1.0000
  C   C83       1.0  0.56457  0.86430  0.31978  1.0000
  N   N47       1.0  0.52828  0.86150  0.32569  1.0000
  C   C84       1.0  0.52349  0.89304  0.34249  1.0000
  N   N48       1.0  0.55678  0.92845  0.35457  1.0000
  C   C85       1.0  0.35225  0.44012  0.34971  1.0000
  N   N49       1.0  0.31622  0.43671  0.33214  1.0000
  C   C86       1.0  0.31226  0.46949  0.32000  1.0000
  N   N50       1.0  0.34580  0.50572  0.32592  1.0000
  C   C87       1.0  0.38209  0.51044  0.34269  1.0000
  N   N51       1.0  0.38418  0.47713  0.35471  1.0000
  C   C88       1.0  0.10018  0.68169  0.34943  1.0000
  N   N52       1.0  0.13274  0.71774  0.33169  1.0000
  C   C89       1.0  0.16949  0.72177  0.31951  1.0000
  N   N53       1.0  0.17230  0.68830  0.32563  1.0000
  C   C90       1.0  0.14078  0.65199  0.34255  1.0000
  N   N54       1.0  0.10534  0.64982  0.35453  1.0000
  N   N55       1.0  0.24119  0.43368  0.33663  1.0000
  C   C91       1.0  0.20418  0.42919  0.33936  1.0000
  H   H19       1.0  0.18103  0.40326  0.36274  1.0000
  N   N56       1.0  0.60033  0.82904  0.33706  1.0000
  C   C92       1.0  0.60485  0.79654  0.33979  1.0000
  H   H20       1.0  0.63061  0.79925  0.36417  1.0000
  N   N57       1.0  0.20479  0.79278  0.33695  1.0000
  C   C93       1.0  0.23732  0.82978  0.33990  1.0000
  H   H21       1.0  0.23459  0.85283  0.36414  1.0000
  N   N58       1.0  0.78965  0.60323  0.33649  1.0000
  C   C94       1.0  0.82666  0.60772  0.33923  1.0000
  H   H22       1.0  0.84981  0.63365  0.36258  1.0000
  N   N59       1.0  0.43052  0.20784  0.33711  1.0000
  C   C95       1.0  0.42600  0.24034  0.33981  1.0000
  H   H23       1.0  0.40008  0.23755  0.36332  1.0000
  N   N60       1.0  0.82602  0.24408  0.33710  1.0000
  C   C96       1.0  0.79350  0.20707  0.33992  1.0000
  H   H24       1.0  0.79619  0.18403  0.36441  1.0000
  C   C97       1.0  0.13824  0.54243  0.35638  1.0000
  C   C98       1.0  0.14290  0.61683  0.34855  1.0000
  N   N61       1.0  0.11375  0.58565  0.39389  1.0000
  C   C99       1.0  0.10999  0.54920  0.40213  1.0000
  C   C100      1.0  0.07983  0.52179  0.45668  1.0000
  O   O13       1.0  0.05625  0.52982  0.49125  1.0000
  H   H25       1.0  0.08628  0.50497  0.49529  1.0000
  C   C101      1.0  0.49168  0.61740  0.35648  1.0000
  C   C102      1.0  0.41726  0.54769  0.34863  1.0000
  N   N62       1.0  0.44837  0.54977  0.39437  1.0000
  C   C103      1.0  0.48484  0.58246  0.40275  1.0000
  C   C104      1.0  0.51230  0.57992  0.45779  1.0000
  O   O14       1.0  0.50320  0.54845  0.49467  1.0000
  H   H26       1.0  0.52925  0.60336  0.49557  1.0000
  C   C105      1.0  0.41657  0.89584  0.35581  1.0000
  C   C106      1.0  0.48624  0.89099  0.34830  1.0000
  N   N63       1.0  0.48441  0.92051  0.39240  1.0000
  C   C107      1.0  0.45180  0.92443  0.40032  1.0000
  C   C108      1.0  0.45476  0.95509  0.45353  1.0000
  O   O15       1.0  0.48699  0.97974  0.48348  1.0000
  H   H27       1.0  0.43220  0.94797  0.49500  1.0000
  C   C109      1.0  0.89257  0.49445  0.35615  1.0000
  C   C110      1.0  0.88789  0.42004  0.34856  1.0000
  N   N64       1.0  0.91705  0.45124  0.39385  1.0000
  C   C111      1.0  0.92082  0.48770  0.40196  1.0000
  C   C112      1.0  0.95096  0.51512  0.45654  1.0000
  O   O16       1.0  0.97452  0.50710  0.49120  1.0000
  H   H28       1.0  0.94449  0.53194  0.49508  1.0000
  C   C113      1.0  0.53910  0.41959  0.35606  1.0000
  C   C114      1.0  0.61353  0.48931  0.34824  1.0000
  N   N65       1.0  0.58227  0.48740  0.39290  1.0000
  C   C115      1.0  0.54579  0.45474  0.40104  1.0000
  C   C116      1.0  0.51827  0.45765  0.45484  1.0000
  O   O17       1.0  0.52596  0.48950  0.48747  1.0000
  H   H29       1.0  0.50173  0.43470  0.49452  1.0000
  C   C117      1.0  0.61441  0.14130  0.35703  1.0000
  C   C118      1.0  0.54468  0.14597  0.34915  1.0000
  N   N66       1.0  0.54682  0.11704  0.39526  1.0000
  C   C119      1.0  0.57953  0.11331  0.40371  1.0000
  C   C120      1.0  0.57707  0.08344  0.45914  1.0000
  O   O18       1.0  0.54574  0.06139  0.49696  1.0000
  H   H30       1.0  0.60066  0.08995  0.49639  1.0000
  N   N67       1.0  0.03338  0.40826  0.42401  1.0000
  C   C121      1.0  0.99350  0.38876  0.43198  1.0000
  H   H31       1.0  0.98112  0.39648  0.48331  1.0000
  N   N68       1.0  0.62590  0.64682  0.42401  1.0000
  C   C122      1.0  0.64544  0.62647  0.43207  1.0000
  H   H32       1.0  0.63756  0.60624  0.48315  1.0000
  N   N69       1.0  0.38728  0.00051  0.42422  1.0000
  C   C123      1.0  0.40779  0.04041  0.43220  1.0000
  H   H33       1.0  0.42810  0.05267  0.48314  1.0000
  N   N70       1.0  0.99743  0.62867  0.42372  1.0000
  C   C124      1.0  0.03731  0.64820  0.43177  1.0000
  H   H34       1.0  0.04969  0.64056  0.48323  1.0000
  N   N71       1.0  0.40490  0.39006  0.42427  1.0000
  C   C125      1.0  0.38551  0.41055  0.43222  1.0000
  H   H35       1.0  0.39320  0.43059  0.48366  1.0000
  N   N72       1.0  0.64335  0.03629  0.42408  1.0000
  C   C126      1.0  0.62299  0.99640  0.43212  1.0000
  H   H36       1.0  0.60257  0.98403  0.48282  1.0000
