data_image0
_chemical_formula_structural       C3N2O4NC3N2O4NC3H2N2CNO2C3N2O3C2NO2NC3N2O4NCNCNCNC3H3CNCNCNC3H5CNCNCNC3H3CNCNCNC3H3C3H2NC3H2NC3N2O4NONOC2HNC2HNCHC2HC3N2O4NC3N2O4NC3H2NC3H2C3H2NC3H2NC3N2O4NONC3N2O4NCNCNCNC3H3CNCNCNC3H2CNCNCNC2H2CNCNCNC3H2CNCNCNC2H2CNCNCNC3H3C3H2NC3H2NC3N2O3C3N2O3NC3N2O4NC3N2O4NC3H2NCHCHNC3H2NC3N2O4NC3N2O4NC3H2NC2NO2NCNO2CNCNCNC3H3CHCHCNCNCNC3H3C3H2NC3H2NC3N2O4NCHC2HN
_chemical_formula_sum              "C180 N108 O72 H72"
_cell_length_a       60.4161
_cell_length_b       60.4162
_cell_length_c       14.4535
_cell_angle_alpha    90
_cell_angle_beta     90
_cell_angle_gamma    120

_space_group_name_H-M_alt    "P 1"
_space_group_IT_number       1

loop_
  _space_group_symop_operation_xyz
  'x, y, z'

loop_
  _atom_site_type_symbol
  _atom_site_label
  _atom_site_symmetry_multiplicity
  _atom_site_fract_x
  _atom_site_fract_y
  _atom_site_fract_z
  _atom_site_occupancy
  C   C1        1.0  0.23882  0.48677  0.36584  1.0000
  C   C2        1.0  0.24749  0.48029  0.28394  1.0000
  C   C3        1.0  0.27109  0.48031  0.28381  1.0000
  N   N1        1.0  0.23391  0.47458  0.19916  1.0000
  N   N2        1.0  0.27892  0.47458  0.19900  1.0000
  O   O1        1.0  0.23077  0.49253  0.17136  1.0000
  O   O2        1.0  0.28009  0.45444  0.20378  1.0000
  O   O3        1.0  0.21272  0.45431  0.20360  1.0000
  O   O4        1.0  0.29992  0.49260  0.17088  1.0000
  N   N3        1.0  0.21854  0.49018  0.36710  1.0000
  C   C4        1.0  0.28576  0.82611  0.36583  1.0000
  C   C5        1.0  0.27061  0.81745  0.28395  1.0000
  C   C6        1.0  0.24703  0.79385  0.28381  1.0000
  N   N4        1.0  0.27847  0.83103  0.19918  1.0000
  N   N5        1.0  0.23346  0.78602  0.19901  1.0000
  O   O5        1.0  0.29956  0.83418  0.17135  1.0000
  O   O6        1.0  0.21216  0.78486  0.20383  1.0000
  O   O7        1.0  0.27940  0.85223  0.20365  1.0000
  O   O8        1.0  0.23048  0.76502  0.17087  1.0000
  N   N6        1.0  0.30945  0.84640  0.36709  1.0000
  C   C7        1.0  0.15616  0.56805  0.38106  1.0000
  C   C8        1.0  0.16126  0.58261  0.29944  1.0000
  C   C9        1.0  0.16142  0.60596  0.30027  1.0000
  H   H1        1.0  0.16429  0.61574  0.23950  1.0000
  H   H2        1.0  0.16404  0.57585  0.23815  1.0000
  N   N7        1.0  0.15323  0.54473  0.37749  1.0000
  N   N8        1.0  0.42932  0.91171  0.37750  1.0000
  C   C10       1.0  0.04841  0.42211  0.29459  1.0000
  N   N9        1.0  0.06324  0.42125  0.22019  1.0000
  O   O9        1.0  0.05934  0.42974  0.14634  1.0000
  O   O10       1.0  0.05948  0.39908  0.20689  1.0000
  C   C11       1.0  0.44149  0.05787  0.36835  1.0000
  C   C12       1.0  0.42513  0.04386  0.29329  1.0000
  C   C13       1.0  0.41151  0.01652  0.29460  1.0000
  N   N10       1.0  0.42244  0.05598  0.21362  1.0000
  N   N11       1.0  0.39582  0.00169  0.22020  1.0000
  O   O11       1.0  0.41170  0.06869  0.23122  1.0000
  O   O12       1.0  0.40821  0.00560  0.14634  1.0000
  O   O13       1.0  0.37741  0.00545  0.20690  1.0000
  C   C14       1.0  0.06143  0.65063  0.36833  1.0000
  C   C15       1.0  0.04742  0.65299  0.29330  1.0000
  N   N12       1.0  0.05954  0.66781  0.21366  1.0000
  O   O14       1.0  0.07225  0.69126  0.23131  1.0000
  O   O15       1.0  0.07345  0.66083  0.17327  1.0000
  N   N13       1.0  0.08680  0.66030  0.36689  1.0000
  C   C16       1.0  0.41431  0.43793  0.36835  1.0000
  C   C17       1.0  0.41196  0.42157  0.29329  1.0000
  C   C18       1.0  0.42568  0.40795  0.29460  1.0000
  N   N14       1.0  0.39715  0.41888  0.21362  1.0000
  N   N15       1.0  0.42482  0.39226  0.22020  1.0000
  O   O16       1.0  0.37370  0.40814  0.23122  1.0000
  O   O17       1.0  0.43330  0.40465  0.14634  1.0000
  O   O18       1.0  0.40414  0.43978  0.17328  1.0000
  O   O19       1.0  0.40265  0.37385  0.20690  1.0000
  N   N16       1.0  0.40463  0.45362  0.36691  1.0000
  C   C19       1.0  0.17569  0.48063  0.36633  1.0000
  N   N17       1.0  0.15043  0.46235  0.36470  1.0000
  C   C20       1.0  0.13139  0.46827  0.36474  1.0000
  N   N18       1.0  0.13831  0.49344  0.36560  1.0000
  C   C21       1.0  0.16327  0.51235  0.36677  1.0000
  N   N19       1.0  0.18164  0.50555  0.36705  1.0000
  C   C22       1.0  0.17009  0.53788  0.36700  1.0000
  C   C23       1.0  0.19443  0.47367  0.36641  1.0000
  C   C24       1.0  0.10589  0.44912  0.36144  1.0000
  H   H3        1.0  0.10189  0.43126  0.35021  1.0000
  H   H4        1.0  0.18892  0.45515  0.36553  1.0000
  H   H5        1.0  0.18846  0.55113  0.36131  1.0000
  C   C25       1.0  0.34275  0.88925  0.36633  1.0000
  N   N20       1.0  0.34973  0.91451  0.36471  1.0000
  C   C26       1.0  0.37469  0.93354  0.36475  1.0000
  N   N21       1.0  0.39295  0.92663  0.36560  1.0000
  C   C27       1.0  0.38689  0.90167  0.36676  1.0000
  N   N22       1.0  0.36173  0.88330  0.36705  1.0000
  C   C28       1.0  0.40561  0.89484  0.36699  1.0000
  C   C29       1.0  0.31705  0.87050  0.36642  1.0000
  C   C30       1.0  0.38105  0.95905  0.36144  1.0000
  H   H6        1.0  0.36718  0.96304  0.35021  1.0000
  H   H7        1.0  0.30405  0.87602  0.36556  1.0000
  H   H8        1.0  0.40048  0.87647  0.36130  1.0000
  H   H9        1.0  0.43483  0.36362  0.35021  1.0000
  H   H10       1.0  0.43456  0.09781  0.38261  1.0000
  C   C31       1.0  0.34318  0.48053  0.36689  1.0000
  N   N23       1.0  0.35013  0.46224  0.37084  1.0000
  C   C32       1.0  0.37508  0.46811  0.36989  1.0000
  N   N24       1.0  0.39335  0.49324  0.36489  1.0000
  C   C33       1.0  0.38731  0.51212  0.36072  1.0000
  N   N25       1.0  0.36217  0.50540  0.36144  1.0000
  C   C34       1.0  0.40605  0.53755  0.35481  1.0000
  C   C35       1.0  0.31750  0.47365  0.36789  1.0000
  C   C36       1.0  0.38141  0.44895  0.37390  1.0000
  H   H11       1.0  0.36743  0.43100  0.38261  1.0000
  H   H12       1.0  0.30445  0.45514  0.36952  1.0000
  H   H13       1.0  0.40142  0.55024  0.33192  1.0000
  C   C37       1.0  0.17517  0.72175  0.36689  1.0000
  N   N26       1.0  0.14993  0.71480  0.37085  1.0000
  C   C38       1.0  0.13084  0.68985  0.36989  1.0000
  N   N27       1.0  0.13770  0.67158  0.36488  1.0000
  C   C39       1.0  0.16263  0.67763  0.36072  1.0000
  N   N28       1.0  0.18105  0.70276  0.36143  1.0000
  C   C40       1.0  0.16930  0.65888  0.35479  1.0000
  C   C41       1.0  0.19396  0.74743  0.36790  1.0000
  C   C42       1.0  0.10535  0.68353  0.37391  1.0000
  H   H14       1.0  0.10138  0.69751  0.38264  1.0000
  H   H15       1.0  0.18850  0.76048  0.36954  1.0000
  H   H16       1.0  0.18663  0.66351  0.33192  1.0000
  C   C43       1.0  0.28628  0.48680  0.36553  1.0000
  C   C44       1.0  0.27776  0.49383  0.44519  1.0000
  C   C45       1.0  0.25445  0.49382  0.44530  1.0000
  H   H17       1.0  0.24921  0.49965  0.50373  1.0000
  H   H18       1.0  0.28888  0.49968  0.50349  1.0000
  N   N29       1.0  0.30998  0.49021  0.36632  1.0000
  C   C46       1.0  0.23834  0.77865  0.36552  1.0000
  C   C47       1.0  0.25389  0.78717  0.44517  1.0000
  C   C48       1.0  0.27719  0.81048  0.44529  1.0000
  H   H19       1.0  0.28827  0.81572  0.50370  1.0000
  H   H20       1.0  0.24862  0.77605  0.50346  1.0000
  N   N30       1.0  0.21805  0.75496  0.36631  1.0000
  C   C49       1.0  0.15642  0.61524  0.38268  1.0000
  C   C50       1.0  0.15114  0.60067  0.46534  1.0000
  C   C51       1.0  0.15105  0.57711  0.46459  1.0000
  N   N31       1.0  0.14579  0.60869  0.55054  1.0000
  N   N32       1.0  0.14562  0.56335  0.54895  1.0000
  O   O20       1.0  0.12587  0.61030  0.54644  1.0000
  O   O21       1.0  0.16392  0.56047  0.57424  1.0000
  O   O22       1.0  0.16413  0.62975  0.57664  1.0000
  O   O23       1.0  0.12568  0.54185  0.54387  1.0000
  N   N33       1.0  0.15386  0.63590  0.38169  1.0000
  O   O24       1.0  0.43517  0.56153  0.57660  1.0000
  N   N34       1.0  0.42904  0.54508  0.38169  1.0000
  O   O25       1.0  0.43436  0.90101  0.57424  1.0000
  C   C52       1.0  0.06187  0.43829  0.37040  1.0000
  C   C53       1.0  0.04767  0.44097  0.44254  1.0000
  H   H21       1.0  0.05690  0.45326  0.49620  1.0000
  N   N35       1.0  0.08734  0.45366  0.37271  1.0000
  C   C54       1.0  0.41424  0.00307  0.37040  1.0000
  C   C55       1.0  0.43112  0.01727  0.44254  1.0000
  H   H22       1.0  0.43417  0.00803  0.49620  1.0000
  N   N36       1.0  0.40413  0.97759  0.37271  1.0000
  C   C56       1.0  0.04772  0.63390  0.44149  1.0000
  H   H23       1.0  0.05732  0.63099  0.49421  1.0000
  C   C57       1.0  0.44186  0.41068  0.37040  1.0000
  C   C58       1.0  0.43102  0.44093  0.44154  1.0000
  H   H24       1.0  0.43393  0.45343  0.49427  1.0000
  C   C59       1.0  0.57817  0.77918  0.36582  1.0000
  C   C60       1.0  0.58465  0.79432  0.28393  1.0000
  C   C61       1.0  0.58464  0.81791  0.28380  1.0000
  N   N37       1.0  0.59037  0.78646  0.19916  1.0000
  N   N38       1.0  0.59037  0.83147  0.19900  1.0000
  O   O26       1.0  0.57243  0.76537  0.17134  1.0000
  O   O27       1.0  0.61051  0.85278  0.20380  1.0000
  O   O28       1.0  0.61063  0.78553  0.20363  1.0000
  O   O29       1.0  0.57235  0.83445  0.17086  1.0000
  N   N39       1.0  0.57476  0.75548  0.36709  1.0000
  C   C62       1.0  0.49033  0.28219  0.36584  1.0000
  C   C63       1.0  0.48386  0.26705  0.28394  1.0000
  C   C64       1.0  0.48387  0.24347  0.28381  1.0000
  N   N40       1.0  0.47815  0.27492  0.19916  1.0000
  N   N41       1.0  0.47814  0.22990  0.19900  1.0000
  O   O30       1.0  0.49609  0.29601  0.17136  1.0000
  O   O31       1.0  0.45800  0.20860  0.20378  1.0000
  O   O32       1.0  0.45788  0.27585  0.20360  1.0000
  O   O33       1.0  0.49617  0.22693  0.17089  1.0000
  N   N42       1.0  0.49374  0.30589  0.36710  1.0000
  C   C65       1.0  0.49688  0.61523  0.38100  1.0000
  C   C66       1.0  0.48233  0.60575  0.29937  1.0000
  C   C67       1.0  0.45898  0.58257  0.30022  1.0000
  H   H25       1.0  0.44921  0.57566  0.23945  1.0000
  H   H26       1.0  0.48909  0.61529  0.23807  1.0000
  N   N43       1.0  0.52020  0.63562  0.37742  1.0000
  C   C68       1.0  0.44970  0.90877  0.38106  1.0000
  C   C69       1.0  0.45917  0.90368  0.29944  1.0000
  C   C70       1.0  0.48235  0.90351  0.30028  1.0000
  H   H27       1.0  0.48925  0.90063  0.23950  1.0000
  H   H28       1.0  0.44962  0.90089  0.23816  1.0000
  C   C71       1.0  0.57162  0.44614  0.38106  1.0000
  C   C72       1.0  0.58618  0.45561  0.29944  1.0000
  C   C73       1.0  0.60953  0.47879  0.30027  1.0000
  H   H29       1.0  0.61930  0.48569  0.23950  1.0000
  H   H30       1.0  0.57942  0.44606  0.23815  1.0000
  N   N44       1.0  0.54830  0.42576  0.37749  1.0000
  C   C74       1.0  0.61879  0.15260  0.38099  1.0000
  C   C75       1.0  0.60931  0.15767  0.29937  1.0000
  C   C76       1.0  0.58613  0.15784  0.30022  1.0000
  H   H31       1.0  0.57922  0.16070  0.23944  1.0000
  H   H32       1.0  0.61885  0.16044  0.23807  1.0000
  N   N45       1.0  0.63918  0.14966  0.37742  1.0000
  C   C77       1.0  0.65419  0.62344  0.36833  1.0000
  C   C78       1.0  0.65656  0.63982  0.29329  1.0000
  C   C79       1.0  0.64284  0.65343  0.29459  1.0000
  N   N46       1.0  0.67137  0.64252  0.21365  1.0000
  N   N47       1.0  0.64371  0.66913  0.22022  1.0000
  O   O34       1.0  0.69483  0.65326  0.23130  1.0000
  O   O35       1.0  0.63524  0.65676  0.14633  1.0000
  O   O36       1.0  0.66440  0.62163  0.17327  1.0000
  O   O37       1.0  0.66588  0.68754  0.20697  1.0000
  N   N48       1.0  0.66387  0.60775  0.36689  1.0000
  O   O38       1.0  0.44334  0.06989  0.17328  1.0000
  N   N49       1.0  0.45718  0.08324  0.36691  1.0000
  C   C80       1.0  0.62701  0.00350  0.36833  1.0000
  C   C81       1.0  0.64338  0.01751  0.29329  1.0000
  C   C82       1.0  0.65699  0.04485  0.29459  1.0000
  N   N50       1.0  0.64608  0.00539  0.21365  1.0000
  N   N51       1.0  0.67269  0.05968  0.22021  1.0000
  O   O39       1.0  0.65682  0.99268  0.23130  1.0000
  O   O40       1.0  0.66032  0.05577  0.14633  1.0000
  O   O41       1.0  0.62519  0.99148  0.17327  1.0000
  O   O42       1.0  0.69111  0.05591  0.20697  1.0000
  N   N52       1.0  0.61131  0.97813  0.36689  1.0000
  C   C83       1.0  0.58431  0.72218  0.36632  1.0000
  N   N53       1.0  0.60259  0.71520  0.36468  1.0000
  C   C84       1.0  0.59667  0.69024  0.36472  1.0000
  N   N54       1.0  0.57149  0.67199  0.36559  1.0000
  C   C85       1.0  0.55259  0.67804  0.36678  1.0000
  N   N55       1.0  0.55938  0.70320  0.36705  1.0000
  C   C86       1.0  0.52705  0.65933  0.36704  1.0000
  C   C87       1.0  0.59126  0.74788  0.36640  1.0000
  C   C88       1.0  0.61581  0.68388  0.36142  1.0000
  H   H33       1.0  0.63367  0.69776  0.35020  1.0000
  H   H34       1.0  0.60978  0.76089  0.36553  1.0000
  H   H35       1.0  0.51380  0.66445  0.36148  1.0000
  C   C89       1.0  0.48419  0.33919  0.36633  1.0000
  N   N56       1.0  0.46591  0.34617  0.36471  1.0000
  C   C90       1.0  0.47183  0.37113  0.36475  1.0000
  N   N57       1.0  0.49701  0.38938  0.36560  1.0000
  C   C91       1.0  0.51591  0.38333  0.36677  1.0000
  N   N58       1.0  0.50912  0.35817  0.36705  1.0000
  C   C92       1.0  0.54145  0.40205  0.36699  1.0000
  C   C93       1.0  0.47724  0.31349  0.36641  1.0000
  C   C94       1.0  0.45269  0.37749  0.36144  1.0000
  H   H36       1.0  0.45872  0.30048  0.36554  1.0000
  H   H37       1.0  0.55470  0.39692  0.36131  1.0000
  C   C95       1.0  0.72575  0.17213  0.36631  1.0000
  N   N59       1.0  0.71876  0.14686  0.36468  1.0000
  C   C96       1.0  0.69380  0.12782  0.36472  1.0000
  N   N60       1.0  0.67555  0.13474  0.36560  1.0000
  C   C97       1.0  0.68160  0.15970  0.36678  1.0000
  N   N61       1.0  0.70677  0.17807  0.36705  1.0000
  C   C98       1.0  0.66289  0.16653  0.36705  1.0000
  C   C99       1.0  0.68745  0.10232  0.36142  1.0000
  H   H38       1.0  0.70132  0.09833  0.35020  1.0000
  H   H39       1.0  0.66802  0.18491  0.36149  1.0000
  C   C100      1.0  0.48410  0.17160  0.36689  1.0000
  N   N62       1.0  0.46581  0.14636  0.37084  1.0000
  C   C101      1.0  0.47167  0.12728  0.36989  1.0000
  N   N63       1.0  0.49680  0.13414  0.36489  1.0000
  C   C102      1.0  0.51568  0.15906  0.36073  1.0000
  N   N64       1.0  0.50897  0.17748  0.36144  1.0000
  C   C103      1.0  0.54111  0.16574  0.35481  1.0000
  C   C104      1.0  0.47721  0.19040  0.36789  1.0000
  C   C105      1.0  0.45251  0.10179  0.37390  1.0000
  H   H40       1.0  0.45871  0.18494  0.36952  1.0000
  H   H41       1.0  0.55380  0.18307  0.33193  1.0000
  C   C106      1.0  0.72532  0.58084  0.36688  1.0000
  N   N65       1.0  0.71837  0.59913  0.37084  1.0000
  C   C107      1.0  0.69342  0.59326  0.36988  1.0000
  N   N66       1.0  0.67515  0.56813  0.36488  1.0000
  C   C108      1.0  0.68119  0.54925  0.36072  1.0000
  N   N67       1.0  0.70633  0.55597  0.36143  1.0000
  C   C109      1.0  0.66244  0.52382  0.35479  1.0000
  C   C110      1.0  0.68710  0.61243  0.37390  1.0000
  H   H42       1.0  0.70107  0.63038  0.38264  1.0000
  H   H43       1.0  0.66707  0.51113  0.33191  1.0000
  C   C111      1.0  0.58440  0.88977  0.36688  1.0000
  N   N68       1.0  0.60269  0.91501  0.37084  1.0000
  C   C112      1.0  0.59682  0.93409  0.36988  1.0000
  N   N69       1.0  0.57170  0.92724  0.36487  1.0000
  C   C113      1.0  0.55281  0.90231  0.36072  1.0000
  N   N70       1.0  0.55953  0.88389  0.36143  1.0000
  C   C114      1.0  0.52739  0.89563  0.35479  1.0000
  C   C115      1.0  0.59129  0.87097  0.36788  1.0000
  C   C116      1.0  0.61599  0.95958  0.37390  1.0000
  H   H44       1.0  0.63394  0.96356  0.38264  1.0000
  H   H45       1.0  0.60979  0.87643  0.36953  1.0000
  H   H46       1.0  0.51469  0.87831  0.33191  1.0000
  C   C117      1.0  0.57813  0.82660  0.36552  1.0000
  C   C118      1.0  0.57110  0.81104  0.44517  1.0000
  C   C119      1.0  0.57111  0.78775  0.44528  1.0000
  H   H47       1.0  0.56527  0.77667  0.50370  1.0000
  H   H48       1.0  0.56524  0.81632  0.50346  1.0000
  N   N71       1.0  0.57473  0.84689  0.36630  1.0000
  C   C120      1.0  0.49037  0.23477  0.36553  1.0000
  C   C121      1.0  0.49739  0.25032  0.44519  1.0000
  C   C122      1.0  0.49738  0.27362  0.44530  1.0000
  H   H49       1.0  0.50322  0.28469  0.50373  1.0000
  H   H50       1.0  0.50324  0.24505  0.50349  1.0000
  N   N72       1.0  0.49377  0.21448  0.36632  1.0000
  C   C123      1.0  0.44969  0.56830  0.38265  1.0000
  C   C124      1.0  0.46426  0.57761  0.46532  1.0000
  C   C125      1.0  0.48782  0.60107  0.46455  1.0000
  N   N73       1.0  0.45624  0.56425  0.55054  1.0000
  N   N74       1.0  0.50157  0.60941  0.54892  1.0000
  O   O43       1.0  0.45463  0.54272  0.54650  1.0000
  O   O44       1.0  0.50445  0.63061  0.57416  1.0000
  O   O45       1.0  0.52307  0.61098  0.54388  1.0000
  C   C126      1.0  0.49664  0.90852  0.38268  1.0000
  C   C127      1.0  0.48734  0.91380  0.46534  1.0000
  C   C128      1.0  0.46387  0.91389  0.46459  1.0000
  N   N75       1.0  0.50071  0.91914  0.55054  1.0000
  N   N76       1.0  0.45555  0.91931  0.54895  1.0000
  O   O46       1.0  0.52224  0.93907  0.54643  1.0000
  O   O47       1.0  0.50344  0.90080  0.57664  1.0000
  O   O48       1.0  0.45398  0.93925  0.54386  1.0000
  N   N77       1.0  0.51985  0.91107  0.38169  1.0000
  C   C129      1.0  0.61881  0.49307  0.38268  1.0000
  C   C130      1.0  0.60423  0.48378  0.46534  1.0000
  C   C131      1.0  0.58067  0.46031  0.46459  1.0000
  N   N78       1.0  0.61225  0.49715  0.55054  1.0000
  N   N79       1.0  0.56692  0.45198  0.54895  1.0000
  O   O49       1.0  0.61386  0.51867  0.54644  1.0000
  O   O50       1.0  0.56403  0.43079  0.57424  1.0000
  O   O51       1.0  0.63332  0.49987  0.57664  1.0000
  O   O52       1.0  0.54542  0.45042  0.54386  1.0000
  N   N80       1.0  0.63946  0.51629  0.38169  1.0000
  C   C132      1.0  0.57186  0.15285  0.38265  1.0000
  C   C133      1.0  0.58117  0.14759  0.46532  1.0000
  C   C134      1.0  0.60464  0.14750  0.46455  1.0000
  N   N81       1.0  0.56781  0.14227  0.55054  1.0000
  N   N82       1.0  0.61298  0.14209  0.54893  1.0000
  O   O53       1.0  0.54628  0.12234  0.54650  1.0000
  O   O54       1.0  0.63417  0.16040  0.57416  1.0000
  O   O55       1.0  0.56509  0.16061  0.57660  1.0000
  O   O56       1.0  0.61454  0.12216  0.54388  1.0000
  N   N83       1.0  0.54864  0.15030  0.38169  1.0000
  C   C135      1.0  0.62665  0.65070  0.37037  1.0000
  C   C136      1.0  0.62395  0.63381  0.44249  1.0000
  C   C137      1.0  0.63746  0.62043  0.44149  1.0000
  H   H51       1.0  0.63455  0.60793  0.49421  1.0000
  H   H52       1.0  0.61166  0.63075  0.49612  1.0000
  N   N84       1.0  0.61128  0.66080  0.37267  1.0000
  C   C138      1.0  0.44449  0.04416  0.44154  1.0000
  H   H53       1.0  0.45699  0.05375  0.49427  1.0000
  C   C139      1.0  0.44454  0.42756  0.44254  1.0000
  H   H54       1.0  0.45682  0.43061  0.49620  1.0000
  N   N85       1.0  0.45722  0.40057  0.37271  1.0000
  C   C140      1.0  0.65426  0.05830  0.37037  1.0000
  C   C141      1.0  0.63737  0.04410  0.44249  1.0000
  C   C142      1.0  0.62399  0.01721  0.44149  1.0000
  H   H55       1.0  0.61149  0.00762  0.49421  1.0000
  H   H56       1.0  0.63431  0.05334  0.49612  1.0000
  N   N86       1.0  0.66436  0.08378  0.37267  1.0000
  C   C143      1.0  0.82968  0.57460  0.36582  1.0000
  C   C144      1.0  0.82101  0.58108  0.28393  1.0000
  C   C145      1.0  0.79742  0.58107  0.28380  1.0000
  N   N87       1.0  0.83459  0.58680  0.19916  1.0000
  N   N88       1.0  0.78958  0.58681  0.19900  1.0000
  O   O57       1.0  0.83774  0.56886  0.17134  1.0000
  O   O58       1.0  0.78842  0.60695  0.20381  1.0000
  O   O59       1.0  0.85579  0.60707  0.20363  1.0000
  O   O60       1.0  0.76858  0.56878  0.17087  1.0000
  N   N89       1.0  0.84996  0.57119  0.36709  1.0000
  C   C146      1.0  0.78274  0.23525  0.36583  1.0000
  C   C147      1.0  0.79788  0.24393  0.28392  1.0000
  C   C148      1.0  0.82147  0.26753  0.28379  1.0000
  N   N90       1.0  0.79001  0.23035  0.19915  1.0000
  N   N91       1.0  0.83503  0.27536  0.19898  1.0000
  O   O61       1.0  0.76892  0.22721  0.17136  1.0000
  O   O62       1.0  0.85633  0.27653  0.20376  1.0000
  O   O63       1.0  0.78908  0.20916  0.20358  1.0000
  O   O64       1.0  0.83800  0.29636  0.17088  1.0000
  N   N92       1.0  0.75904  0.21497  0.36709  1.0000
  C   C149      1.0  0.91233  0.49332  0.38099  1.0000
  C   C150      1.0  0.90726  0.47876  0.29937  1.0000
  C   C151      1.0  0.90709  0.45541  0.30022  1.0000
  H   H57       1.0  0.90424  0.44564  0.23944  1.0000
  H   H58       1.0  0.90449  0.48552  0.23807  1.0000
  N   N93       1.0  0.91527  0.51664  0.37742  1.0000
  C   C152      1.0  0.00707  0.41074  0.36835  1.0000
  C   C153      1.0  0.02108  0.40839  0.29329  1.0000
  N   N94       1.0  0.00896  0.39359  0.21362  1.0000
  O   O65       1.0  0.99624  0.37013  0.23122  1.0000
  O   O66       1.0  0.99505  0.40057  0.17327  1.0000
  N   N95       1.0  0.98170  0.40107  0.36691  1.0000
  C   C154      1.0  0.02009  0.63927  0.29460  1.0000
  N   N96       1.0  0.00526  0.64014  0.22022  1.0000
  O   O67       1.0  0.00916  0.63167  0.14633  1.0000
  O   O68       1.0  0.00902  0.66232  0.20698  1.0000
  C   C155      1.0  0.89281  0.58074  0.36632  1.0000
  N   N97       1.0  0.91807  0.59902  0.36469  1.0000
  C   C156      1.0  0.93711  0.59310  0.36472  1.0000
  N   N98       1.0  0.93019  0.56793  0.36560  1.0000
  C   C157      1.0  0.90523  0.54902  0.36678  1.0000
  N   N99       1.0  0.88686  0.55581  0.36705  1.0000
  C   C158      1.0  0.89841  0.52348  0.36704  1.0000
  C   C159      1.0  0.87406  0.58770  0.36640  1.0000
  C   C160      1.0  0.96261  0.61224  0.36142  1.0000
  H   H59       1.0  0.96661  0.63011  0.35021  1.0000
  H   H60       1.0  0.87958  0.60622  0.36554  1.0000
  H   H61       1.0  0.88003  0.51023  0.36148  1.0000
  C   C161      1.0  0.75145  0.19087  0.36640  1.0000
  H   H62       1.0  0.76445  0.18535  0.36551  1.0000
  C   C162      1.0  0.75100  0.58772  0.36788  1.0000
  H   H63       1.0  0.76405  0.60623  0.36953  1.0000
  C   C163      1.0  0.89333  0.33962  0.36688  1.0000
  N   N100      1.0  0.91857  0.34657  0.37084  1.0000
  C   C164      1.0  0.93765  0.37151  0.36988  1.0000
  N   N101      1.0  0.93080  0.38978  0.36488  1.0000
  C   C165      1.0  0.90587  0.38374  0.36072  1.0000
  N   N102      1.0  0.88745  0.35861  0.36143  1.0000
  C   C166      1.0  0.89919  0.40249  0.35481  1.0000
  C   C167      1.0  0.87454  0.31393  0.36788  1.0000
  C   C168      1.0  0.96315  0.37784  0.37390  1.0000
  H   H64       1.0  0.96712  0.36386  0.38261  1.0000
  H   H65       1.0  0.87999  0.30089  0.36951  1.0000
  H   H66       1.0  0.88187  0.39786  0.33192  1.0000
  C   C169      1.0  0.78222  0.57457  0.36552  1.0000
  C   C170      1.0  0.79074  0.56753  0.44517  1.0000
  C   C171      1.0  0.81405  0.56755  0.44528  1.0000
  H   H67       1.0  0.81928  0.56171  0.50370  1.0000
  H   H68       1.0  0.77961  0.56168  0.50346  1.0000
  N   N103      1.0  0.75852  0.57116  0.36630  1.0000
  C   C172      1.0  0.83016  0.28272  0.36552  1.0000
  C   C173      1.0  0.81461  0.27419  0.44519  1.0000
  C   C174      1.0  0.79132  0.25088  0.44530  1.0000
  H   H69       1.0  0.78024  0.24564  0.50373  1.0000
  H   H70       1.0  0.81989  0.28531  0.50349  1.0000
  N   N104      1.0  0.85045  0.30641  0.36631  1.0000
  C   C175      1.0  0.91208  0.44613  0.38264  1.0000
  C   C176      1.0  0.91734  0.46070  0.46532  1.0000
  C   C177      1.0  0.91743  0.48425  0.46455  1.0000
  N   N105      1.0  0.92267  0.45267  0.55054  1.0000
  N   N106      1.0  0.92284  0.49800  0.54892  1.0000
  O   O69       1.0  0.94259  0.45106  0.54650  1.0000
  O   O70       1.0  0.90453  0.50089  0.57416  1.0000
  O   O71       1.0  0.90432  0.43160  0.57659  1.0000
  O   O72       1.0  0.94278  0.51950  0.54388  1.0000
  N   N107      1.0  0.91464  0.42547  0.38169  1.0000
  C   C178      1.0  0.02078  0.42746  0.44154  1.0000
  H   H71       1.0  0.01118  0.43036  0.49427  1.0000
  C   C179      1.0  0.00663  0.62308  0.37037  1.0000
  C   C180      1.0  0.02083  0.62038  0.44249  1.0000
  H   H72       1.0  0.01159  0.60809  0.49612  1.0000
  N   N108      1.0  0.98116  0.60771  0.37267  1.0000
