data_image0
_chemical_formula_structural       C2NCHC2NCHC2NCHC2NCHCNHCNHCNHCNHCNHCNHCNHCNHC2NCHC2NCHC2NCHC2NCHC2NCHC2NCHC2NCHC2NCHCNHCNHCNHCNHCNHCNHCNHCNHCNHCNHC6H3C6H3C6H3C6H3C6H3C6H3C6H3C6H3C6H3C6H3C6H3C6H3C6H3C6H3C6H3C6H3C6H3C6H3C6H3C6H3CNHCNHCNHCNHC2NCHC2NCHC2NCHC2NCHC2NCHC2NCHC2NCHC2NCHCNHCNHCNHCNHCNHCNHCNHCNHC2NCHC2NCHC2NCHC2NCHC2NCHC2NCHC2NCHC2NCHC2NCHC2NCH
_chemical_formula_sum              "C240 N60 H120"
_cell_length_a       43.6338
_cell_length_b       43.6338
_cell_length_c       14.7782
_cell_angle_alpha    90
_cell_angle_beta     90
_cell_angle_gamma    90

_space_group_name_H-M_alt    "P 1"
_space_group_IT_number       1

loop_
  _space_group_symop_operation_xyz
  'x, y, z'

loop_
  _atom_site_type_symbol
  _atom_site_label
  _atom_site_symmetry_multiplicity
  _atom_site_fract_x
  _atom_site_fract_y
  _atom_site_fract_z
  _atom_site_occupancy
  C   C1        1.0  0.31637  0.04134  0.34641  1.0000
  C   C2        1.0  0.33263  0.04612  0.26517  1.0000
  N   N1        1.0  0.36255  0.05443  0.26982  1.0000
  C   C3        1.0  0.37747  0.05833  0.34968  1.0000
  H   H1        1.0  0.32225  0.04409  0.20346  1.0000
  C   C4        1.0  0.69864  0.97365  0.34682  1.0000
  C   C5        1.0  0.68226  0.96930  0.26557  1.0000
  N   N2        1.0  0.65235  0.96098  0.27021  1.0000
  C   C6        1.0  0.63753  0.95666  0.35006  1.0000
  H   H2        1.0  0.69256  0.97164  0.20383  1.0000
  C   C7        1.0  0.97366  0.31637  0.34640  1.0000
  C   C8        1.0  0.96887  0.33264  0.26516  1.0000
  N   N3        1.0  0.96057  0.36255  0.26981  1.0000
  C   C9        1.0  0.95667  0.37748  0.34968  1.0000
  H   H3        1.0  0.97090  0.32225  0.20344  1.0000
  C   C10       1.0  0.04132  0.69864  0.34685  1.0000
  C   C11       1.0  0.04567  0.68226  0.26559  1.0000
  N   N4        1.0  0.05400  0.65235  0.27023  1.0000
  C   C12       1.0  0.05832  0.63753  0.35008  1.0000
  H   H4        1.0  0.04334  0.69256  0.20385  1.0000
  C   C13       1.0  0.15375  0.55353  0.26574  1.0000
  N   N5        1.0  0.18377  0.54562  0.27041  1.0000
  H   H5        1.0  0.14359  0.55645  0.20400  1.0000
  C   C14       1.0  0.86113  0.46102  0.26533  1.0000
  N   N6        1.0  0.83112  0.46895  0.27000  1.0000
  H   H6        1.0  0.87121  0.45778  0.20361  1.0000
  C   C15       1.0  0.55354  0.86125  0.26575  1.0000
  N   N7        1.0  0.54564  0.83122  0.27041  1.0000
  H   H7        1.0  0.55647  0.87140  0.20401  1.0000
  C   C16       1.0  0.46103  0.15386  0.26535  1.0000
  N   N8        1.0  0.46896  0.18388  0.27003  1.0000
  H   H8        1.0  0.45780  0.14379  0.20362  1.0000
  C   C17       1.0  0.19790  0.12796  0.26593  1.0000
  N   N9        1.0  0.20954  0.09909  0.27051  1.0000
  H   H9        1.0  0.19539  0.13830  0.20430  1.0000
  C   C18       1.0  0.81712  0.88706  0.26595  1.0000
  N   N10       1.0  0.80548  0.91594  0.27057  1.0000
  H   H10       1.0  0.81963  0.87674  0.20431  1.0000
  C   C19       1.0  0.88706  0.19789  0.26592  1.0000
  N   N11       1.0  0.91593  0.20954  0.27051  1.0000
  H   H11       1.0  0.87672  0.19539  0.20429  1.0000
  C   C20       1.0  0.12793  0.81717  0.26591  1.0000
  N   N12       1.0  0.09906  0.80551  0.27048  1.0000
  H   H12       1.0  0.13825  0.81974  0.20427  1.0000
  C   C21       1.0  0.30113  0.58366  0.34720  1.0000
  C   C22       1.0  0.30747  0.59959  0.26611  1.0000
  N   N13       1.0  0.31817  0.62884  0.27040  1.0000
  C   C23       1.0  0.32350  0.64379  0.34969  1.0000
  H   H13       1.0  0.30256  0.59019  0.20442  1.0000
  C   C24       1.0  0.71384  0.43139  0.34710  1.0000
  C   C25       1.0  0.70754  0.41539  0.26609  1.0000
  N   N14       1.0  0.69684  0.38614  0.27040  1.0000
  C   C26       1.0  0.69149  0.37121  0.34969  1.0000
  H   H14       1.0  0.71245  0.42477  0.20437  1.0000
  C   C27       1.0  0.58363  0.71385  0.34713  1.0000
  C   C28       1.0  0.59958  0.70747  0.26609  1.0000
  N   N15       1.0  0.62883  0.69677  0.27040  1.0000
  C   C29       1.0  0.64379  0.69148  0.34970  1.0000
  H   H15       1.0  0.59017  0.71234  0.20439  1.0000
  C   C30       1.0  0.43137  0.30115  0.34704  1.0000
  C   C31       1.0  0.41541  0.30751  0.26602  1.0000
  N   N16       1.0  0.38616  0.31822  0.27036  1.0000
  C   C32       1.0  0.37122  0.32350  0.34966  1.0000
  H   H16       1.0  0.42481  0.30264  0.20431  1.0000
  C   C33       1.0  0.22993  0.97039  0.34716  1.0000
  C   C34       1.0  0.22703  0.95345  0.26616  1.0000
  N   N17       1.0  0.22145  0.92280  0.27059  1.0000
  C   C35       1.0  0.21868  0.90721  0.34994  1.0000
  H   H17       1.0  0.22980  0.96364  0.20442  1.0000
  C   C36       1.0  0.78505  0.04462  0.34717  1.0000
  C   C37       1.0  0.78797  0.06155  0.26615  1.0000
  N   N18       1.0  0.79356  0.09220  0.27059  1.0000
  C   C38       1.0  0.79634  0.10779  0.34993  1.0000
  H   H18       1.0  0.78520  0.05136  0.20441  1.0000
  C   C39       1.0  0.04463  0.22996  0.34721  1.0000
  C   C40       1.0  0.06155  0.22705  0.26619  1.0000
  N   N19       1.0  0.09220  0.22146  0.27062  1.0000
  C   C41       1.0  0.10780  0.21868  0.34997  1.0000
  H   H19       1.0  0.05136  0.22983  0.20446  1.0000
  C   C42       1.0  0.97041  0.78511  0.34715  1.0000
  C   C43       1.0  0.95346  0.78797  0.26616  1.0000
  N   N20       1.0  0.92281  0.79355  0.27058  1.0000
  C   C44       1.0  0.90722  0.79633  0.34992  1.0000
  H   H20       1.0  0.96365  0.78518  0.20441  1.0000
  C   C45       1.0  0.29334  0.42410  0.26573  1.0000
  N   N21       1.0  0.28730  0.45466  0.27026  1.0000
  H   H21       1.0  0.29491  0.41367  0.20397  1.0000
  C   C46       1.0  0.72171  0.59093  0.26575  1.0000
  N   N22       1.0  0.72774  0.56036  0.27030  1.0000
  H   H22       1.0  0.72014  0.60135  0.20400  1.0000
  C   C47       1.0  0.42409  0.72166  0.26573  1.0000
  N   N23       1.0  0.45466  0.72770  0.27027  1.0000
  H   H23       1.0  0.41367  0.72008  0.20397  1.0000
  C   C48       1.0  0.59092  0.29332  0.26578  1.0000
  N   N24       1.0  0.56036  0.28729  0.27032  1.0000
  H   H24       1.0  0.60134  0.29490  0.20401  1.0000
  C   C49       1.0  0.24879  0.28738  0.26609  1.0000
  N   N25       1.0  0.22686  0.26521  0.27051  1.0000
  H   H25       1.0  0.25652  0.29455  0.20433  1.0000
  C   C50       1.0  0.76623  0.72763  0.26608  1.0000
  N   N26       1.0  0.78817  0.74979  0.27049  1.0000
  H   H26       1.0  0.75851  0.72044  0.20432  1.0000
  C   C51       1.0  0.72763  0.24878  0.26608  1.0000
  N   N27       1.0  0.74980  0.22684  0.27050  1.0000
  H   H27       1.0  0.72045  0.25650  0.20431  1.0000
  C   C52       1.0  0.28738  0.76621  0.26609  1.0000
  N   N28       1.0  0.26521  0.78815  0.27051  1.0000
  H   H28       1.0  0.29455  0.75849  0.20433  1.0000
  C   C53       1.0  0.51793  0.99708  0.26540  1.0000
  N   N29       1.0  0.49601  0.01902  0.27008  1.0000
  H   H29       1.0  0.52542  0.98961  0.20366  1.0000
  C   C54       1.0  0.01793  0.51793  0.26539  1.0000
  N   N30       1.0  0.99599  0.49600  0.27008  1.0000
  H   H30       1.0  0.02540  0.52541  0.20366  1.0000
  C   C55       1.0  0.28464  0.03608  0.34701  1.0000
  C   C56       1.0  0.26452  0.06131  0.34791  1.0000
  C   C57       1.0  0.23246  0.05702  0.34894  1.0000
  C   C58       1.0  0.22066  0.02672  0.34884  1.0000
  C   C59       1.0  0.24066  0.00106  0.34777  1.0000
  C   C60       1.0  0.27267  0.00609  0.34715  1.0000
  H   H31       1.0  0.19744  0.02336  0.34930  1.0000
  H   H32       1.0  0.28743  0.98779  0.34647  1.0000
  H   H33       1.0  0.27338  0.08311  0.34792  1.0000
  C   C61       1.0  0.73037  0.97891  0.34727  1.0000
  C   C62       1.0  0.75049  0.95369  0.34821  1.0000
  C   C63       1.0  0.78255  0.95799  0.34905  1.0000
  C   C64       1.0  0.79434  0.98829  0.34882  1.0000
  C   C65       1.0  0.77433  0.01394  0.34775  1.0000
  C   C66       1.0  0.74233  0.00891  0.34719  1.0000
  H   H34       1.0  0.81756  0.99166  0.34921  1.0000
  H   H35       1.0  0.72756  0.02721  0.34653  1.0000
  H   H36       1.0  0.74163  0.93188  0.34832  1.0000
  C   C67       1.0  0.97892  0.28464  0.34699  1.0000
  C   C68       1.0  0.95369  0.26452  0.34788  1.0000
  C   C69       1.0  0.95800  0.23246  0.34893  1.0000
  C   C70       1.0  0.98829  0.22066  0.34886  1.0000
  C   C71       1.0  0.01395  0.24068  0.34778  1.0000
  C   C72       1.0  0.00891  0.27268  0.34715  1.0000
  H   H37       1.0  0.99167  0.19745  0.34932  1.0000
  H   H38       1.0  0.02721  0.28745  0.34648  1.0000
  H   H39       1.0  0.93189  0.27337  0.34788  1.0000
  C   C73       1.0  0.03608  0.73037  0.34730  1.0000
  C   C74       1.0  0.06132  0.75047  0.34822  1.0000
  C   C75       1.0  0.05704  0.78253  0.34905  1.0000
  C   C76       1.0  0.02675  0.79435  0.34879  1.0000
  C   C77       1.0  0.00108  0.77436  0.34774  1.0000
  C   C78       1.0  0.00609  0.74235  0.34721  1.0000
  H   H40       1.0  0.02339  0.81757  0.34915  1.0000
  H   H41       1.0  0.98779  0.72760  0.34656  1.0000
  H   H42       1.0  0.08311  0.74160  0.34832  1.0000
  C   C79       1.0  0.23036  0.53608  0.34964  1.0000
  C   C80       1.0  0.25048  0.56132  0.34876  1.0000
  C   C81       1.0  0.28253  0.55703  0.34774  1.0000
  C   C82       1.0  0.29435  0.52674  0.34787  1.0000
  C   C83       1.0  0.27435  0.50108  0.34891  1.0000
  C   C84       1.0  0.24234  0.50610  0.34953  1.0000
  H   H43       1.0  0.31757  0.52338  0.34744  1.0000
  H   H44       1.0  0.22758  0.48779  0.35020  1.0000
  H   H45       1.0  0.24161  0.58312  0.34875  1.0000
  C   C85       1.0  0.78463  0.47891  0.34936  1.0000
  C   C86       1.0  0.76451  0.45369  0.34842  1.0000
  C   C87       1.0  0.73245  0.45800  0.34762  1.0000
  C   C88       1.0  0.72066  0.48829  0.34791  1.0000
  C   C89       1.0  0.74067  0.51395  0.34896  1.0000
  C   C90       1.0  0.77267  0.50891  0.34949  1.0000
  H   H46       1.0  0.69744  0.49167  0.34756  1.0000
  H   H47       1.0  0.78744  0.52720  0.35014  1.0000
  H   H48       1.0  0.77337  0.43189  0.34830  1.0000
  C   C91       1.0  0.53609  0.78463  0.34966  1.0000
  C   C92       1.0  0.56132  0.76451  0.34875  1.0000
  C   C93       1.0  0.55702  0.73246  0.34773  1.0000
  C   C94       1.0  0.52673  0.72066  0.34785  1.0000
  C   C95       1.0  0.50107  0.74066  0.34892  1.0000
  C   C96       1.0  0.50610  0.77267  0.34957  1.0000
  H   H49       1.0  0.52336  0.69744  0.34740  1.0000
  H   H50       1.0  0.48780  0.78743  0.35024  1.0000
  H   H51       1.0  0.58312  0.77337  0.34872  1.0000
  C   C97       1.0  0.47892  0.23036  0.34939  1.0000
  C   C98       1.0  0.45369  0.25049  0.34843  1.0000
  C   C99       1.0  0.45799  0.28254  0.34762  1.0000
  C   C100      1.0  0.48828  0.29435  0.34788  1.0000
  C   C101      1.0  0.51394  0.27434  0.34897  1.0000
  C   C102      1.0  0.50891  0.24234  0.34952  1.0000
  H   H52       1.0  0.49165  0.31757  0.34751  1.0000
  H   H53       1.0  0.52721  0.22757  0.35019  1.0000
  H   H54       1.0  0.43189  0.24162  0.34830  1.0000
  C   C103      1.0  0.19344  0.23001  0.34911  1.0000
  C   C104      1.0  0.20311  0.19903  0.34813  1.0000
  C   C105      1.0  0.18162  0.17472  0.34781  1.0000
  C   C106      1.0  0.15000  0.18170  0.34846  1.0000
  C   C107      1.0  0.13969  0.21241  0.34936  1.0000
  C   C108      1.0  0.16160  0.23638  0.34959  1.0000
  H   H55       1.0  0.13431  0.16420  0.34828  1.0000
  H   H56       1.0  0.15429  0.25869  0.35028  1.0000
  H   H57       1.0  0.22608  0.19410  0.34781  1.0000
  C   C109      1.0  0.82157  0.78501  0.34909  1.0000
  C   C110      1.0  0.81191  0.81598  0.34813  1.0000
  C   C111      1.0  0.83339  0.84030  0.34779  1.0000
  C   C112      1.0  0.86501  0.83332  0.34844  1.0000
  C   C113      1.0  0.87533  0.80260  0.34932  1.0000
  C   C114      1.0  0.85341  0.77864  0.34955  1.0000
  H   H58       1.0  0.88070  0.85081  0.34825  1.0000
  H   H59       1.0  0.86072  0.75632  0.35024  1.0000
  H   H60       1.0  0.78893  0.82091  0.34781  1.0000
  C   C115      1.0  0.78501  0.19344  0.34910  1.0000
  C   C116      1.0  0.81599  0.20310  0.34813  1.0000
  C   C117      1.0  0.84030  0.18161  0.34781  1.0000
  C   C118      1.0  0.83332  0.14999  0.34845  1.0000
  C   C119      1.0  0.80261  0.13968  0.34933  1.0000
  C   C120      1.0  0.77864  0.16160  0.34957  1.0000
  H   H61       1.0  0.85082  0.13430  0.34826  1.0000
  H   H62       1.0  0.75632  0.15429  0.35026  1.0000
  H   H63       1.0  0.82092  0.22607  0.34781  1.0000
  C   C121      1.0  0.23001  0.82157  0.34913  1.0000
  C   C122      1.0  0.19903  0.81190  0.34814  1.0000
  C   C123      1.0  0.17472  0.83338  0.34779  1.0000
  C   C124      1.0  0.18170  0.86500  0.34842  1.0000
  C   C125      1.0  0.21241  0.87532  0.34933  1.0000
  C   C126      1.0  0.23638  0.85340  0.34959  1.0000
  H   H64       1.0  0.16420  0.88070  0.34822  1.0000
  H   H65       1.0  0.25870  0.86071  0.35029  1.0000
  H   H66       1.0  0.19411  0.78893  0.34783  1.0000
  C   C127      1.0  0.32157  0.73000  0.34763  1.0000
  C   C128      1.0  0.31190  0.69903  0.34860  1.0000
  C   C129      1.0  0.33339  0.67471  0.34890  1.0000
  C   C130      1.0  0.36501  0.68169  0.34824  1.0000
  C   C131      1.0  0.37532  0.71241  0.34736  1.0000
  C   C132      1.0  0.35341  0.73637  0.34715  1.0000
  H   H67       1.0  0.38070  0.66420  0.34842  1.0000
  H   H68       1.0  0.36071  0.75869  0.34648  1.0000
  H   H69       1.0  0.28893  0.69410  0.34894  1.0000
  C   C133      1.0  0.69345  0.28499  0.34764  1.0000
  C   C134      1.0  0.70310  0.31598  0.34861  1.0000
  C   C135      1.0  0.68161  0.34028  0.34894  1.0000
  C   C136      1.0  0.64999  0.33330  0.34829  1.0000
  C   C137      1.0  0.63969  0.30258  0.34740  1.0000
  C   C138      1.0  0.66161  0.27862  0.34717  1.0000
  H   H70       1.0  0.63430  0.35079  0.34846  1.0000
  H   H71       1.0  0.65431  0.25630  0.34648  1.0000
  H   H72       1.0  0.72607  0.32091  0.34894  1.0000
  C   C139      1.0  0.73000  0.69345  0.34765  1.0000
  C   C140      1.0  0.69903  0.70311  0.34863  1.0000
  C   C141      1.0  0.67472  0.68161  0.34892  1.0000
  C   C142      1.0  0.68171  0.65000  0.34825  1.0000
  C   C143      1.0  0.71242  0.63969  0.34738  1.0000
  C   C144      1.0  0.73638  0.66161  0.34715  1.0000
  H   H73       1.0  0.66422  0.63430  0.34842  1.0000
  H   H74       1.0  0.75870  0.65432  0.34647  1.0000
  H   H75       1.0  0.69409  0.72608  0.34897  1.0000
  C   C145      1.0  0.28500  0.32158  0.34765  1.0000
  C   C146      1.0  0.31597  0.31191  0.34862  1.0000
  C   C147      1.0  0.34029  0.33339  0.34892  1.0000
  C   C148      1.0  0.33331  0.36501  0.34824  1.0000
  C   C149      1.0  0.30260  0.37533  0.34738  1.0000
  C   C150      1.0  0.27863  0.35342  0.34716  1.0000
  H   H76       1.0  0.35081  0.38070  0.34841  1.0000
  H   H77       1.0  0.25631  0.36073  0.34648  1.0000
  H   H78       1.0  0.32090  0.28893  0.34895  1.0000
  C   C151      1.0  0.44809  0.10656  0.34721  1.0000
  C   C152      1.0  0.41686  0.09814  0.34776  1.0000
  C   C153      1.0  0.40844  0.06691  0.34923  1.0000
  C   C154      1.0  0.43132  0.04412  0.34995  1.0000
  C   C155      1.0  0.46251  0.05250  0.34959  1.0000
  C   C156      1.0  0.47089  0.08368  0.34820  1.0000
  H   H79       1.0  0.42528  0.02139  0.35081  1.0000
  H   H80       1.0  0.49361  0.08973  0.34794  1.0000
  H   H81       1.0  0.40024  0.11475  0.34729  1.0000
  C   C157      1.0  0.56691  0.90844  0.34750  1.0000
  C   C158      1.0  0.59814  0.91686  0.34892  1.0000
  C   C159      1.0  0.60656  0.94809  0.34951  1.0000
  C   C160      1.0  0.58368  0.97089  0.34858  1.0000
  C   C161      1.0  0.55250  0.96251  0.34723  1.0000
  C   C162      1.0  0.54412  0.93132  0.34687  1.0000
  H   H82       1.0  0.58973  0.99361  0.34885  1.0000
  H   H83       1.0  0.52139  0.92528  0.34601  1.0000
  H   H84       1.0  0.61475  0.90024  0.34934  1.0000
  C   C163      1.0  0.90844  0.44810  0.34721  1.0000
  C   C164      1.0  0.91686  0.41686  0.34774  1.0000
  C   C165      1.0  0.94809  0.40844  0.34922  1.0000
  C   C166      1.0  0.97088  0.43133  0.34994  1.0000
  C   C167      1.0  0.96250  0.46252  0.34959  1.0000
  C   C168      1.0  0.93132  0.47089  0.34821  1.0000
  H   H85       1.0  0.99360  0.42528  0.35081  1.0000
  H   H86       1.0  0.92527  0.49362  0.34795  1.0000
  H   H87       1.0  0.90024  0.40025  0.34727  1.0000
  C   C169      1.0  0.10656  0.56691  0.34749  1.0000
  C   C170      1.0  0.09814  0.59814  0.34892  1.0000
  C   C171      1.0  0.06690  0.60657  0.34952  1.0000
  C   C172      1.0  0.04411  0.58369  0.34859  1.0000
  C   C173      1.0  0.05249  0.55250  0.34721  1.0000
  C   C174      1.0  0.08368  0.54412  0.34684  1.0000
  H   H88       1.0  0.02139  0.58973  0.34886  1.0000
  H   H89       1.0  0.08972  0.52140  0.34597  1.0000
  H   H90       1.0  0.11476  0.61476  0.34935  1.0000
  C   C175      1.0  0.36126  0.05348  0.43094  1.0000
  N   N31       1.0  0.33124  0.04557  0.42625  1.0000
  H   H91       1.0  0.37142  0.05637  0.49270  1.0000
  C   C176      1.0  0.65386  0.96108  0.43134  1.0000
  N   N32       1.0  0.68387  0.96900  0.42663  1.0000
  H   H92       1.0  0.64378  0.95788  0.49306  1.0000
  C   C177      1.0  0.96152  0.36126  0.43093  1.0000
  N   N33       1.0  0.96942  0.33124  0.42624  1.0000
  H   H93       1.0  0.95863  0.37143  0.49268  1.0000
  C   C178      1.0  0.05391  0.65386  0.43136  1.0000
  N   N34       1.0  0.04598  0.68387  0.42666  1.0000
  H   H94       1.0  0.05711  0.64378  0.49308  1.0000
  C   C179      1.0  0.19863  0.54133  0.35024  1.0000
  C   C180      1.0  0.18236  0.54608  0.43149  1.0000
  N   N35       1.0  0.15245  0.55439  0.42686  1.0000
  C   C181      1.0  0.13753  0.55834  0.34701  1.0000
  H   H95       1.0  0.19275  0.54402  0.49320  1.0000
  C   C182      1.0  0.81637  0.47365  0.34980  1.0000
  C   C183      1.0  0.83275  0.46936  0.43107  1.0000
  N   N36       1.0  0.86266  0.46105  0.42646  1.0000
  C   C184      1.0  0.87747  0.45667  0.34662  1.0000
  H   H96       1.0  0.82245  0.47175  0.49281  1.0000
  C   C185      1.0  0.54135  0.81637  0.35024  1.0000
  C   C186      1.0  0.54607  0.83264  0.43150  1.0000
  N   N37       1.0  0.55437  0.86255  0.42688  1.0000
  C   C187      1.0  0.55833  0.87747  0.34702  1.0000
  H   H97       1.0  0.54399  0.82226  0.49322  1.0000
  C   C188      1.0  0.47367  0.19864  0.34983  1.0000
  C   C189      1.0  0.46936  0.18225  0.43109  1.0000
  N   N38       1.0  0.46104  0.15234  0.42647  1.0000
  C   C190      1.0  0.45667  0.13753  0.34663  1.0000
  H   H98       1.0  0.47173  0.19255  0.49283  1.0000
  C   C191      1.0  0.21386  0.08363  0.34957  1.0000
  C   C192      1.0  0.20750  0.09958  0.43061  1.0000
  N   N39       1.0  0.19680  0.12884  0.42632  1.0000
  C   C193      1.0  0.19151  0.14379  0.34704  1.0000
  H   H99       1.0  0.21238  0.09018  0.49231  1.0000
  C   C194      1.0  0.80116  0.93138  0.34964  1.0000
  C   C195      1.0  0.80751  0.91542  0.43067  1.0000
  N   N40       1.0  0.81821  0.88617  0.42634  1.0000
  C   C196      1.0  0.82351  0.87123  0.34704  1.0000
  H   H100      1.0  0.80263  0.92482  0.49238  1.0000
  C   C197      1.0  0.93139  0.21385  0.34955  1.0000
  C   C198      1.0  0.91544  0.20749  0.43061  1.0000
  N   N41       1.0  0.88618  0.19679  0.42631  1.0000
  C   C199      1.0  0.87123  0.19150  0.34703  1.0000
  H   H101      1.0  0.92484  0.21237  0.49230  1.0000
  C   C200      1.0  0.08367  0.80112  0.34957  1.0000
  C   C201      1.0  0.09962  0.80743  0.43065  1.0000
  N   N42       1.0  0.12887  0.81814  0.42632  1.0000
  C   C202      1.0  0.14379  0.82349  0.34702  1.0000
  H   H102      1.0  0.09023  0.80251  0.49234  1.0000
  C   C203      1.0  0.31715  0.62795  0.43082  1.0000
  N   N43       1.0  0.30549  0.59908  0.42627  1.0000
  H   H103      1.0  0.31970  0.63828  0.49244  1.0000
  C   C204      1.0  0.69784  0.38707  0.43077  1.0000
  N   N44       1.0  0.70948  0.41594  0.42614  1.0000
  H   H104      1.0  0.69531  0.37675  0.49243  1.0000
  C   C205      1.0  0.62796  0.69791  0.43079  1.0000
  N   N45       1.0  0.59909  0.70955  0.42619  1.0000
  H   H105      1.0  0.63830  0.69542  0.49242  1.0000
  C   C206      1.0  0.38705  0.31710  0.43074  1.0000
  N   N46       1.0  0.41593  0.30545  0.42612  1.0000
  H   H106      1.0  0.37672  0.31960  0.49239  1.0000
  C   C207      1.0  0.22170  0.92408  0.43097  1.0000
  N   N47       1.0  0.22773  0.95464  0.42644  1.0000
  H   H107      1.0  0.22014  0.91365  0.49272  1.0000
  C   C208      1.0  0.79331  0.09092  0.43097  1.0000
  N   N48       1.0  0.78727  0.06036  0.42645  1.0000
  H   H108      1.0  0.79488  0.10135  0.49272  1.0000
  C   C209      1.0  0.09093  0.22169  0.43100  1.0000
  N   N49       1.0  0.06036  0.22773  0.42649  1.0000
  H   H109      1.0  0.10136  0.22012  0.49276  1.0000
  C   C210      1.0  0.92409  0.79333  0.43095  1.0000
  N   N50       1.0  0.95465  0.78731  0.42641  1.0000
  H   H110      1.0  0.91366  0.79489  0.49271  1.0000
  C   C211      1.0  0.28508  0.47040  0.34954  1.0000
  C   C212      1.0  0.28796  0.45346  0.43054  1.0000
  N   N51       1.0  0.29354  0.42281  0.42611  1.0000
  C   C213      1.0  0.29633  0.40722  0.34677  1.0000
  H   H111      1.0  0.28516  0.46365  0.49228  1.0000
  C   C214      1.0  0.72995  0.54462  0.34959  1.0000
  C   C215      1.0  0.72707  0.56156  0.43058  1.0000
  N   N52       1.0  0.72148  0.59222  0.42613  1.0000
  C   C216      1.0  0.71870  0.60780  0.34678  1.0000
  H   H112      1.0  0.72985  0.55138  0.49232  1.0000
  C   C217      1.0  0.47039  0.72994  0.34955  1.0000
  C   C218      1.0  0.45345  0.72707  0.43054  1.0000
  N   N53       1.0  0.42280  0.72149  0.42611  1.0000
  C   C219      1.0  0.40721  0.71868  0.34676  1.0000
  H   H113      1.0  0.46363  0.72987  0.49229  1.0000
  C   C220      1.0  0.54461  0.28507  0.34959  1.0000
  C   C221      1.0  0.56156  0.28794  0.43059  1.0000
  N   N54       1.0  0.59221  0.29351  0.42615  1.0000
  C   C222      1.0  0.60780  0.29631  0.34680  1.0000
  H   H114      1.0  0.55137  0.28514  0.49233  1.0000
  C   C223      1.0  0.21544  0.25406  0.34972  1.0000
  C   C224      1.0  0.22763  0.26621  0.43069  1.0000
  N   N55       1.0  0.24980  0.28816  0.42627  1.0000
  C   C225      1.0  0.26094  0.29957  0.34706  1.0000
  H   H115      1.0  0.22046  0.25849  0.49245  1.0000
  C   C226      1.0  0.79957  0.76095  0.34971  1.0000
  C   C227      1.0  0.78736  0.74882  0.43067  1.0000
  N   N56       1.0  0.76519  0.72689  0.42626  1.0000
  C   C228      1.0  0.75405  0.71547  0.34705  1.0000
  H   H116      1.0  0.79452  0.75656  0.49243  1.0000
  C   C229      1.0  0.76095  0.21544  0.34971  1.0000
  C   C230      1.0  0.74881  0.22764  0.43068  1.0000
  N   N57       1.0  0.72688  0.24981  0.42626  1.0000
  C   C231      1.0  0.71546  0.26095  0.34704  1.0000
  H   H117      1.0  0.75655  0.22047  0.49244  1.0000
  C   C232      1.0  0.25407  0.79956  0.34973  1.0000
  C   C233      1.0  0.26622  0.78737  0.43069  1.0000
  N   N58       1.0  0.28815  0.76520  0.42627  1.0000
  C   C234      1.0  0.29956  0.75406  0.34705  1.0000
  H   H118      1.0  0.25849  0.79454  0.49245  1.0000
  C   C235      1.0  0.48516  0.02985  0.35008  1.0000
  C   C236      1.0  0.49707  0.01792  0.43143  1.0000
  N   N59       1.0  0.51901  0.99600  0.42674  1.0000
  C   C237      1.0  0.52985  0.98516  0.34675  1.0000
  H   H119      1.0  0.48959  0.02540  0.49316  1.0000
  C   C238      1.0  0.98515  0.48517  0.35008  1.0000
  C   C239      1.0  0.99708  0.49708  0.43143  1.0000
  N   N60       1.0  0.01900  0.51902  0.42674  1.0000
  C   C240      1.0  0.02984  0.52985  0.34674  1.0000
  H   H120      1.0  0.98959  0.48960  0.49316  1.0000
