data_image0
_chemical_formula_structural       CNC2H2NO2CNC2H2NO2CNC2H2NO2CNC2H2NO2CNC2H2NO2CNC2H2NO2C4HC3NHNO2C4HC3NHNO2C4HC3NHNO2C4HC3NHNO2C4HC3NHNO2C4HC3NHNO2C4HC3NHNO2C4HC3NHNO2C4HC3NHNO2C4HC3NHNO2C4HC3NHNO2C4HC3NHNO2CNCNCNCNCNCNCNCNCNCNCNCNCNCNCNCNCNCNCNCNCNCNCNCNCNCNCNCNCNCNCNCNCNCNCNCNC4HC3NHNO2C4HC3NHNO2C4HC3NHNO2C4HC3NHNO2C4HC3NHNO2C4HC3NHNO2CNC2H2NO2CNC2H2NO2CNC2H2NO2CNC2H2NO2CNC2H2NO2CNC2H2NO2CNC2H2NO2CNC2H2NO2CNC2H2NO2CNC2H2NO2CNC2H2NO2CNC2H2NO2
_chemical_formula_sum              "C216 N108 H72 O72"
_cell_length_a       56.0727
_cell_length_b       56.0728
_cell_length_c       14.9109
_cell_angle_alpha    90
_cell_angle_beta     90
_cell_angle_gamma    120

_space_group_name_H-M_alt    "P 1"
_space_group_IT_number       1

loop_
  _space_group_symop_operation_xyz
  'x, y, z'

loop_
  _atom_site_type_symbol
  _atom_site_label
  _atom_site_symmetry_multiplicity
  _atom_site_fract_x
  _atom_site_fract_y
  _atom_site_fract_z
  _atom_site_occupancy
  C   C1        1.0  0.14991  0.33488  0.29924  1.0000
  N   N1        1.0  0.16433  0.36277  0.30142  1.0000
  C   C2        1.0  0.18706  0.42240  0.32085  1.0000
  C   C3        1.0  0.20204  0.45162  0.31876  1.0000
  H   H1        1.0  0.19140  0.46170  0.30605  1.0000
  H   H2        1.0  0.13183  0.32541  0.26414  1.0000
  N   N2        1.0  0.15823  0.40812  0.30637  1.0000
  O   O1        1.0  0.15232  0.41271  0.22935  1.0000
  O   O2        1.0  0.14578  0.41431  0.36362  1.0000
  C   C4        1.0  0.66677  0.81071  0.29921  1.0000
  N   N3        1.0  0.63888  0.79723  0.30144  1.0000
  C   C5        1.0  0.57925  0.76031  0.32100  1.0000
  C   C6        1.0  0.55003  0.74608  0.31893  1.0000
  H   H3        1.0  0.53995  0.72535  0.30630  1.0000
  H   H4        1.0  0.67624  0.80209  0.26421  1.0000
  N   N4        1.0  0.59354  0.74577  0.30659  1.0000
  O   O3        1.0  0.58894  0.73525  0.22960  1.0000
  O   O4        1.0  0.58735  0.72715  0.36390  1.0000
  C   C7        1.0  0.19094  0.85176  0.29921  1.0000
  N   N5        1.0  0.20441  0.83734  0.30139  1.0000
  C   C8        1.0  0.24133  0.81463  0.32080  1.0000
  C   C9        1.0  0.25556  0.79965  0.31871  1.0000
  H   H5        1.0  0.27628  0.81028  0.30599  1.0000
  H   H6        1.0  0.19954  0.86984  0.26409  1.0000
  N   N6        1.0  0.25586  0.84345  0.30629  1.0000
  O   O5        1.0  0.26636  0.84935  0.22926  1.0000
  O   O6        1.0  0.27451  0.85590  0.36351  1.0000
  C   C10       1.0  0.85517  0.66335  0.29914  1.0000
  N   N7        1.0  0.84076  0.63547  0.30130  1.0000
  C   C11       1.0  0.81806  0.57583  0.32070  1.0000
  C   C12       1.0  0.80308  0.54662  0.31860  1.0000
  H   H7        1.0  0.81372  0.53655  0.30590  1.0000
  H   H8        1.0  0.87326  0.67283  0.26404  1.0000
  N   N8        1.0  0.84688  0.59013  0.30620  1.0000
  O   O7        1.0  0.85278  0.58554  0.22917  1.0000
  O   O8        1.0  0.85933  0.58394  0.36343  1.0000
  C   C13       1.0  0.33832  0.18752  0.29922  1.0000
  N   N9        1.0  0.36621  0.20099  0.30139  1.0000
  C   C14       1.0  0.42584  0.23791  0.32083  1.0000
  C   C15       1.0  0.45505  0.25215  0.31873  1.0000
  H   H9        1.0  0.46513  0.27286  0.30603  1.0000
  H   H10       1.0  0.32884  0.19613  0.26413  1.0000
  N   N10       1.0  0.41155  0.25244  0.30635  1.0000
  O   O9        1.0  0.41614  0.26295  0.22934  1.0000
  O   O10       1.0  0.41774  0.27108  0.36361  1.0000
  C   C16       1.0  0.81414  0.14648  0.29918  1.0000
  N   N11       1.0  0.80066  0.16089  0.30140  1.0000
  C   C17       1.0  0.76374  0.18361  0.32094  1.0000
  C   C18       1.0  0.74951  0.19859  0.31887  1.0000
  H   H11       1.0  0.72879  0.18796  0.30623  1.0000
  H   H12       1.0  0.80551  0.12838  0.26417  1.0000
  N   N12       1.0  0.74920  0.15479  0.30649  1.0000
  O   O11       1.0  0.73868  0.14887  0.22950  1.0000
  O   O12       1.0  0.73057  0.14234  0.36379  1.0000
  C   C19       1.0  0.23584  0.16003  0.32485  1.0000
  C   C20       1.0  0.20633  0.18938  0.32139  1.0000
  C   C21       1.0  0.19542  0.16353  0.27669  1.0000
  C   C22       1.0  0.21023  0.14912  0.28039  1.0000
  H   H13       1.0  0.20244  0.13068  0.24746  1.0000
  C   C23       1.0  0.19319  0.20581  0.32533  1.0000
  C   C24       1.0  0.16265  0.23426  0.33124  1.0000
  C   C25       1.0  0.15007  0.20562  0.31611  1.0000
  N   N13       1.0  0.16540  0.19309  0.31387  1.0000
  H   H14       1.0  0.12933  0.19379  0.30572  1.0000
  N   N14       1.0  0.17077  0.15278  0.22637  1.0000
  O   O13       1.0  0.15269  0.12965  0.25522  1.0000
  O   O14       1.0  0.17485  0.15059  0.14467  1.0000
  C   C26       1.0  0.84164  0.07150  0.32483  1.0000
  C   C27       1.0  0.81228  0.01263  0.32137  1.0000
  C   C28       1.0  0.83813  0.02757  0.27666  1.0000
  C   C29       1.0  0.85255  0.05680  0.28039  1.0000
  H   H15       1.0  0.87098  0.06744  0.24742  1.0000
  C   C30       1.0  0.79584  0.98306  0.32529  1.0000
  C   C31       1.0  0.76739  0.92408  0.33121  1.0000
  C   C32       1.0  0.79604  0.94013  0.31610  1.0000
  N   N15       1.0  0.80856  0.96799  0.31384  1.0000
  H   H16       1.0  0.80786  0.93122  0.30569  1.0000
  N   N16       1.0  0.84887  0.01366  0.22631  1.0000
  O   O15       1.0  0.87199  0.01871  0.25514  1.0000
  O   O16       1.0  0.85106  0.01994  0.14462  1.0000
  C   C33       1.0  0.93016  0.76583  0.32484  1.0000
  C   C34       1.0  0.98903  0.79534  0.32138  1.0000
  C   C35       1.0  0.97408  0.80625  0.27669  1.0000
  C   C36       1.0  0.94486  0.79144  0.28036  1.0000
  H   H17       1.0  0.93421  0.79924  0.24748  1.0000
  C   C37       1.0  0.01859  0.80847  0.32531  1.0000
  C   C38       1.0  0.07757  0.83901  0.33123  1.0000
  C   C39       1.0  0.06152  0.85160  0.31611  1.0000
  N   N17       1.0  0.03366  0.83627  0.31387  1.0000
  H   H18       1.0  0.07043  0.87234  0.30575  1.0000
  N   N18       1.0  0.98799  0.83091  0.22637  1.0000
  O   O17       1.0  0.98293  0.84898  0.25522  1.0000
  O   O18       1.0  0.98172  0.82683  0.14467  1.0000
  C   C40       1.0  0.76925  0.83821  0.32486  1.0000
  C   C41       1.0  0.79877  0.80886  0.32141  1.0000
  C   C42       1.0  0.80967  0.83471  0.27670  1.0000
  C   C43       1.0  0.79486  0.84912  0.28039  1.0000
  H   H19       1.0  0.80265  0.86756  0.24744  1.0000
  C   C44       1.0  0.81190  0.79242  0.32532  1.0000
  C   C45       1.0  0.84243  0.76397  0.33121  1.0000
  C   C46       1.0  0.85502  0.79262  0.31610  1.0000
  N   N19       1.0  0.83969  0.80514  0.31387  1.0000
  H   H20       1.0  0.87576  0.80444  0.30572  1.0000
  N   N20       1.0  0.83432  0.84545  0.22634  1.0000
  O   O19       1.0  0.85240  0.86858  0.25515  1.0000
  O   O20       1.0  0.83022  0.84763  0.14464  1.0000
  C   C47       1.0  0.16344  0.92674  0.32486  1.0000
  C   C48       1.0  0.19280  0.98561  0.32140  1.0000
  C   C49       1.0  0.16696  0.97067  0.27669  1.0000
  C   C50       1.0  0.15254  0.94144  0.28039  1.0000
  H   H21       1.0  0.13410  0.93079  0.24746  1.0000
  C   C51       1.0  0.20924  0.01517  0.32533  1.0000
  C   C52       1.0  0.23769  0.07416  0.33124  1.0000
  C   C53       1.0  0.20905  0.05811  0.31611  1.0000
  N   N21       1.0  0.19652  0.03025  0.31387  1.0000
  H   H22       1.0  0.19723  0.06702  0.30572  1.0000
  N   N22       1.0  0.15621  0.98457  0.22636  1.0000
  O   O21       1.0  0.13309  0.97952  0.25520  1.0000
  O   O22       1.0  0.15402  0.97830  0.14465  1.0000
  C   C54       1.0  0.07493  0.23240  0.32486  1.0000
  C   C55       1.0  0.01605  0.20289  0.32138  1.0000
  C   C56       1.0  0.03100  0.19198  0.27670  1.0000
  C   C57       1.0  0.06022  0.20678  0.28043  1.0000
  H   H23       1.0  0.07087  0.19900  0.24747  1.0000
  C   C58       1.0  0.98649  0.18976  0.32530  1.0000
  C   C59       1.0  0.92750  0.15922  0.33120  1.0000
  C   C60       1.0  0.94356  0.14663  0.31610  1.0000
  N   N23       1.0  0.97142  0.16197  0.31385  1.0000
  H   H24       1.0  0.93465  0.12590  0.30570  1.0000
  N   N24       1.0  0.01709  0.16733  0.22636  1.0000
  O   O23       1.0  0.02214  0.14925  0.25521  1.0000
  O   O24       1.0  0.02337  0.17142  0.14467  1.0000
  C   C61       1.0  0.23257  0.55493  0.32720  1.0000
  C   C62       1.0  0.22784  0.60276  0.33853  1.0000
  C   C63       1.0  0.23469  0.59557  0.25496  1.0000
  C   C64       1.0  0.23723  0.57169  0.25107  1.0000
  H   H25       1.0  0.24479  0.56784  0.19362  1.0000
  C   C65       1.0  0.23171  0.62945  0.35512  1.0000
  C   C66       1.0  0.24566  0.68543  0.36048  1.0000
  C   C67       1.0  0.22612  0.66665  0.29930  1.0000
  N   N25       1.0  0.22060  0.64012  0.29745  1.0000
  H   H26       1.0  0.21800  0.67321  0.25022  1.0000
  N   N26       1.0  0.24174  0.61352  0.18043  1.0000
  O   O25       1.0  0.22652  0.60151  0.11434  1.0000
  O   O26       1.0  0.26641  0.62295  0.15734  1.0000
  C   C68       1.0  0.44669  0.67329  0.32740  1.0000
  C   C69       1.0  0.39893  0.62078  0.33861  1.0000
  C   C70       1.0  0.40609  0.63484  0.25505  1.0000
  C   C71       1.0  0.42998  0.66126  0.25115  1.0000
  H   H27       1.0  0.43383  0.67270  0.19381  1.0000
  C   C72       1.0  0.37224  0.59794  0.35512  1.0000
  C   C73       1.0  0.31627  0.55596  0.36031  1.0000
  C   C74       1.0  0.33505  0.55515  0.29929  1.0000
  N   N27       1.0  0.36158  0.57614  0.29751  1.0000
  H   H28       1.0  0.32850  0.54046  0.25025  1.0000
  N   N28       1.0  0.38812  0.62395  0.18057  1.0000
  O   O27       1.0  0.40012  0.62075  0.11441  1.0000
  O   O28       1.0  0.37869  0.63920  0.15756  1.0000
  C   C75       1.0  0.32835  0.76910  0.32700  1.0000
  C   C76       1.0  0.38088  0.77384  0.33837  1.0000
  C   C77       1.0  0.36690  0.76710  0.25471  1.0000
  C   C78       1.0  0.34049  0.76459  0.25072  1.0000
  H   H29       1.0  0.32909  0.75708  0.19326  1.0000
  C   C79       1.0  0.40371  0.76997  0.35501  1.0000
  C   C80       1.0  0.44573  0.75602  0.36041  1.0000
  C   C81       1.0  0.44654  0.77563  0.29942  1.0000
  N   N29       1.0  0.42553  0.78112  0.29751  1.0000
  H   H30       1.0  0.46123  0.78373  0.25035  1.0000
  N   N30       1.0  0.37787  0.76018  0.18008  1.0000
  O   O29       1.0  0.38114  0.77552  0.11426  1.0000
  O   O30       1.0  0.36265  0.73556  0.15652  1.0000
  C   C82       1.0  0.77259  0.44331  0.32700  1.0000
  C   C83       1.0  0.77729  0.39550  0.33861  1.0000
  C   C84       1.0  0.77056  0.40272  0.25489  1.0000
  C   C85       1.0  0.76809  0.42665  0.25077  1.0000
  H   H31       1.0  0.76051  0.43047  0.19333  1.0000
  C   C86       1.0  0.77341  0.36880  0.35526  1.0000
  C   C87       1.0  0.75946  0.31283  0.36067  1.0000
  C   C88       1.0  0.77908  0.33162  0.29969  1.0000
  N   N31       1.0  0.78455  0.35813  0.29770  1.0000
  H   H32       1.0  0.78710  0.32504  0.25037  1.0000
  N   N32       1.0  0.76358  0.38478  0.18039  1.0000
  O   O31       1.0  0.77889  0.39679  0.11447  1.0000
  O   O32       1.0  0.73895  0.37540  0.15693  1.0000
  C   C89       1.0  0.55836  0.32495  0.32722  1.0000
  C   C90       1.0  0.60619  0.37751  0.33855  1.0000
  C   C91       1.0  0.59899  0.36348  0.25496  1.0000
  C   C92       1.0  0.57510  0.33706  0.25107  1.0000
  H   H33       1.0  0.57124  0.32566  0.19360  1.0000
  C   C93       1.0  0.63290  0.40031  0.35512  1.0000
  C   C94       1.0  0.68888  0.44226  0.36030  1.0000
  C   C95       1.0  0.67009  0.44310  0.29937  1.0000
  N   N33       1.0  0.64356  0.42212  0.29757  1.0000
  H   H34       1.0  0.67665  0.45782  0.25041  1.0000
  N   N34       1.0  0.61692  0.37439  0.18041  1.0000
  O   O33       1.0  0.60490  0.37761  0.11437  1.0000
  O   O34       1.0  0.62634  0.35915  0.15722  1.0000
  C   C96       1.0  0.67673  0.22916  0.32747  1.0000
  C   C97       1.0  0.62423  0.22444  0.33864  1.0000
  C   C98       1.0  0.63828  0.23131  0.25508  1.0000
  C   C99       1.0  0.66470  0.23383  0.25119  1.0000
  H   H35       1.0  0.67614  0.24141  0.19385  1.0000
  C   C100      1.0  0.60139  0.22830  0.35512  1.0000
  C   C101      1.0  0.55942  0.24230  0.36028  1.0000
  C   C102      1.0  0.55860  0.22269  0.29930  1.0000
  N   N35       1.0  0.57959  0.21715  0.29753  1.0000
  H   H36       1.0  0.54390  0.21454  0.25027  1.0000
  N   N36       1.0  0.62740  0.23838  0.18057  1.0000
  O   O35       1.0  0.62419  0.22317  0.11445  1.0000
  O   O36       1.0  0.64265  0.26305  0.15752  1.0000
  C   C103      1.0  0.14722  0.24827  0.33234  1.0000
  N   N37       1.0  0.16006  0.27623  0.33826  1.0000
  C   C104      1.0  0.14613  0.29030  0.33838  1.0000
  N   N38       1.0  0.11819  0.27542  0.33332  1.0000
  C   C105      1.0  0.10422  0.24744  0.32788  1.0000
  N   N39       1.0  0.11920  0.23441  0.32686  1.0000
  C   C106      1.0  0.75338  0.89464  0.33231  1.0000
  N   N40       1.0  0.72542  0.87951  0.33821  1.0000
  C   C107      1.0  0.71135  0.85151  0.33834  1.0000
  N   N41       1.0  0.72623  0.83845  0.33329  1.0000
  C   C108      1.0  0.75421  0.85246  0.32787  1.0000
  N   N42       1.0  0.76724  0.88047  0.32683  1.0000
  C   C109      1.0  0.10702  0.85445  0.33234  1.0000
  N   N43       1.0  0.12214  0.84161  0.33825  1.0000
  C   C110      1.0  0.15014  0.85554  0.33837  1.0000
  N   N44       1.0  0.16320  0.88348  0.33332  1.0000
  C   C111      1.0  0.14920  0.89745  0.32789  1.0000
  N   N45       1.0  0.12118  0.88246  0.32686  1.0000
  C   C112      1.0  0.85786  0.74996  0.33232  1.0000
  N   N46       1.0  0.84502  0.72200  0.33822  1.0000
  C   C113      1.0  0.85895  0.70792  0.33834  1.0000
  N   N47       1.0  0.88690  0.72281  0.33328  1.0000
  C   C114      1.0  0.90087  0.75079  0.32786  1.0000
  N   N48       1.0  0.88588  0.76382  0.32684  1.0000
  C   C115      1.0  0.25171  0.10360  0.33234  1.0000
  N   N49       1.0  0.27967  0.11872  0.33825  1.0000
  C   C116      1.0  0.29375  0.14672  0.33837  1.0000
  N   N50       1.0  0.27886  0.15979  0.33331  1.0000
  C   C117      1.0  0.25089  0.14578  0.32787  1.0000
  N   N51       1.0  0.23785  0.11776  0.32685  1.0000
  C   C118      1.0  0.89806  0.14379  0.33229  1.0000
  N   N52       1.0  0.88294  0.15663  0.33819  1.0000
  C   C119      1.0  0.85494  0.14270  0.33830  1.0000
  N   N53       1.0  0.84188  0.11476  0.33326  1.0000
  C   C120      1.0  0.85588  0.10079  0.32784  1.0000
  N   N54       1.0  0.88390  0.11577  0.32682  1.0000
  C   C121      1.0  0.28747  0.53924  0.34911  1.0000
  N   N55       1.0  0.27357  0.51124  0.34439  1.0000
  C   C122      1.0  0.24553  0.49648  0.33496  1.0000
  N   N56       1.0  0.23175  0.51081  0.32931  1.0000
  C   C123      1.0  0.24523  0.53874  0.33184  1.0000
  N   N57       1.0  0.27285  0.55241  0.34245  1.0000
  C   C124      1.0  0.46241  0.74390  0.34928  1.0000
  N   N58       1.0  0.49041  0.75799  0.34451  1.0000
  C   C125      1.0  0.50517  0.74471  0.33508  1.0000
  N   N59       1.0  0.49083  0.71660  0.32949  1.0000
  C   C126      1.0  0.46290  0.70216  0.33211  1.0000
  N   N60       1.0  0.44924  0.71612  0.34268  1.0000
  C   C127      1.0  0.25776  0.71422  0.34925  1.0000
  N   N61       1.0  0.24366  0.72812  0.34451  1.0000
  C   C128      1.0  0.25693  0.75615  0.33498  1.0000
  N   N62       1.0  0.28505  0.76993  0.32926  1.0000
  C   C129      1.0  0.29949  0.75644  0.33189  1.0000
  N   N63       1.0  0.28554  0.72883  0.34255  1.0000
  C   C130      1.0  0.71768  0.45898  0.34913  1.0000
  N   N64       1.0  0.73156  0.48698  0.34437  1.0000
  C   C131      1.0  0.75960  0.50175  0.33488  1.0000
  N   N65       1.0  0.77339  0.48743  0.32921  1.0000
  C   C132      1.0  0.75992  0.45950  0.33183  1.0000
  N   N66       1.0  0.73230  0.44582  0.34246  1.0000
  C   C133      1.0  0.54270  0.25437  0.34908  1.0000
  N   N67       1.0  0.51469  0.24026  0.34435  1.0000
  C   C134      1.0  0.49992  0.25353  0.33493  1.0000
  N   N68       1.0  0.51424  0.28164  0.32930  1.0000
  C   C135      1.0  0.54217  0.29609  0.33184  1.0000
  N   N69       1.0  0.55585  0.28215  0.34245  1.0000
  C   C136      1.0  0.74734  0.28403  0.34940  1.0000
  N   N70       1.0  0.76143  0.27013  0.34459  1.0000
  C   C137      1.0  0.74815  0.24209  0.33510  1.0000
  N   N71       1.0  0.72004  0.22832  0.32949  1.0000
  C   C138      1.0  0.70560  0.24182  0.33217  1.0000
  N   N72       1.0  0.71956  0.26943  0.34281  1.0000
  C   C139      1.0  0.16040  0.31957  0.34168  1.0000
  C   C140      1.0  0.18879  0.37844  0.34423  1.0000
  C   C141      1.0  0.20013  0.36402  0.38982  1.0000
  C   C142      1.0  0.18588  0.33480  0.38652  1.0000
  H   H37       1.0  0.19403  0.32454  0.41985  1.0000
  C   C143      1.0  0.20137  0.40796  0.33971  1.0000
  C   C144      1.0  0.23079  0.46700  0.33411  1.0000
  C   C145      1.0  0.24388  0.45148  0.35056  1.0000
  N   N73       1.0  0.22906  0.42358  0.35268  1.0000
  H   H38       1.0  0.26457  0.46081  0.36249  1.0000
  N   N74       1.0  0.22465  0.37841  0.44056  1.0000
  O   O37       1.0  0.24311  0.37382  0.41250  1.0000
  O   O38       1.0  0.22051  0.37221  0.52231  1.0000
  C   C146      1.0  0.68207  0.83651  0.34164  1.0000
  C   C147      1.0  0.62321  0.80602  0.34423  1.0000
  C   C148      1.0  0.63762  0.83178  0.38978  1.0000
  C   C149      1.0  0.66685  0.84677  0.38644  1.0000
  H   H39       1.0  0.67711  0.86518  0.41977  1.0000
  C   C150      1.0  0.59369  0.78908  0.33976  1.0000
  C   C151      1.0  0.53465  0.75945  0.33421  1.0000
  C   C152      1.0  0.55017  0.78806  0.35056  1.0000
  N   N75       1.0  0.57807  0.80115  0.35266  1.0000
  H   H40       1.0  0.54085  0.79943  0.36245  1.0000
  N   N76       1.0  0.62324  0.84191  0.44052  1.0000
  O   O39       1.0  0.62782  0.86496  0.41242  1.0000
  O   O40       1.0  0.62945  0.84400  0.52226  1.0000
  C   C153      1.0  0.16514  0.84127  0.34166  1.0000
  C   C154      1.0  0.19563  0.81289  0.34423  1.0000
  C   C155      1.0  0.16989  0.80156  0.38984  1.0000
  C   C156      1.0  0.15490  0.81579  0.38652  1.0000
  H   H41       1.0  0.13650  0.80765  0.41989  1.0000
  C   C157      1.0  0.21257  0.80031  0.33970  1.0000
  C   C158      1.0  0.24220  0.77090  0.33409  1.0000
  C   C159      1.0  0.21359  0.75781  0.35058  1.0000
  N   N77       1.0  0.20051  0.77262  0.35271  1.0000
  H   H42       1.0  0.20223  0.73713  0.36257  1.0000
  N   N78       1.0  0.15976  0.77704  0.44062  1.0000
  O   O41       1.0  0.13671  0.75857  0.41259  1.0000
  O   O42       1.0  0.15770  0.78119  0.52236  1.0000
  C   C160      1.0  0.84468  0.67866  0.34160  1.0000
  C   C161      1.0  0.81631  0.61980  0.34413  1.0000
  C   C162      1.0  0.80497  0.63420  0.38976  1.0000
  C   C163      1.0  0.81920  0.66342  0.38642  1.0000
  H   H43       1.0  0.81107  0.67368  0.41985  1.0000
  C   C164      1.0  0.80373  0.59027  0.33960  1.0000
  C   C165      1.0  0.77433  0.53123  0.33397  1.0000
  C   C166      1.0  0.76124  0.54675  0.35045  1.0000
  N   N79       1.0  0.77605  0.57465  0.35260  1.0000
  H   H44       1.0  0.74055  0.53741  0.36249  1.0000
  N   N80       1.0  0.78046  0.61980  0.44054  1.0000
  O   O43       1.0  0.76198  0.62438  0.41252  1.0000
  O   O44       1.0  0.78461  0.62601  0.52228  1.0000
  C   C167      1.0  0.32302  0.16172  0.34166  1.0000
  C   C168      1.0  0.38188  0.19220  0.34420  1.0000
  C   C169      1.0  0.36747  0.16646  0.38978  1.0000
  C   C170      1.0  0.33825  0.15147  0.38650  1.0000
  H   H45       1.0  0.32799  0.13306  0.41982  1.0000
  C   C171      1.0  0.41140  0.20914  0.33969  1.0000
  C   C172      1.0  0.47044  0.23878  0.33407  1.0000
  C   C173      1.0  0.45492  0.21017  0.35052  1.0000
  N   N81       1.0  0.42702  0.19708  0.35264  1.0000
  H   H46       1.0  0.46425  0.19881  0.36245  1.0000
  N   N82       1.0  0.38186  0.15633  0.44052  1.0000
  O   O45       1.0  0.37727  0.13327  0.41246  1.0000
  O   O46       1.0  0.37566  0.15426  0.52228  1.0000
  C   C174      1.0  0.83994  0.15698  0.34160  1.0000
  C   C175      1.0  0.80945  0.18535  0.34420  1.0000
  C   C176      1.0  0.83520  0.19669  0.38975  1.0000
  C   C177      1.0  0.85019  0.18246  0.38642  1.0000
  H   H47       1.0  0.86860  0.19060  0.41975  1.0000
  C   C178      1.0  0.79251  0.19793  0.33973  1.0000
  C   C179      1.0  0.76288  0.22734  0.33419  1.0000
  C   C180      1.0  0.79149  0.24043  0.35057  1.0000
  N   N83       1.0  0.80458  0.22562  0.35266  1.0000
  H   H48       1.0  0.80286  0.26112  0.36247  1.0000
  N   N84       1.0  0.84534  0.22121  0.44050  1.0000
  O   O47       1.0  0.86839  0.23968  0.41242  1.0000
  O   O48       1.0  0.84742  0.21708  0.52224  1.0000
  C   C181      1.0  0.24581  0.18585  0.36669  1.0000
  N   N85       1.0  0.23089  0.19879  0.36405  1.0000
  C   C182      1.0  0.20704  0.23467  0.34248  1.0000
  C   C183      1.0  0.19150  0.24832  0.34471  1.0000
  H   H49       1.0  0.20176  0.26909  0.35651  1.0000
  H   H50       1.0  0.26396  0.19494  0.40146  1.0000
  N   N86       1.0  0.23592  0.24983  0.35538  1.0000
  O   O49       1.0  0.24202  0.26074  0.43180  1.0000
  O   O50       1.0  0.24774  0.26827  0.29706  1.0000
  C   C184      1.0  0.81581  0.05564  0.36667  1.0000
  N   N87       1.0  0.80287  0.02779  0.36403  1.0000
  C   C185      1.0  0.76698  0.96806  0.34243  1.0000
  C   C186      1.0  0.75333  0.93886  0.34467  1.0000
  H   H51       1.0  0.73255  0.92835  0.35645  1.0000
  H   H52       1.0  0.80672  0.06471  0.40143  1.0000
  N   N88       1.0  0.75183  0.98178  0.35532  1.0000
  O   O51       1.0  0.74091  0.97697  0.43175  1.0000
  O   O52       1.0  0.73339  0.97516  0.29700  1.0000
  C   C187      1.0  0.94601  0.75586  0.36667  1.0000
  N   N89       1.0  0.97387  0.77077  0.36402  1.0000
  C   C188      1.0  0.03360  0.79462  0.34244  1.0000
  C   C189      1.0  0.06279  0.81016  0.34468  1.0000
  H   H53       1.0  0.07331  0.79990  0.35646  1.0000
  H   H54       1.0  0.93695  0.73771  0.40143  1.0000
  N   N90       1.0  0.01987  0.76574  0.35532  1.0000
  O   O53       1.0  0.02468  0.75964  0.43174  1.0000
  O   O54       1.0  0.02649  0.75393  0.29698  1.0000
  C   C190      1.0  0.75929  0.81239  0.36675  1.0000
  N   N91       1.0  0.77420  0.79945  0.36408  1.0000
  C   C191      1.0  0.79804  0.76356  0.34245  1.0000
  C   C192      1.0  0.81358  0.74991  0.34468  1.0000
  H   H55       1.0  0.80332  0.72913  0.35646  1.0000
  H   H56       1.0  0.74113  0.80329  0.40146  1.0000
  N   N92       1.0  0.76916  0.74841  0.35535  1.0000
  O   O55       1.0  0.76306  0.73749  0.43177  1.0000
  O   O56       1.0  0.75734  0.72997  0.29702  1.0000
  C   C193      1.0  0.18927  0.94259  0.36671  1.0000
  N   N93       1.0  0.20221  0.97045  0.36407  1.0000
  C   C194      1.0  0.23810  0.03018  0.34247  1.0000
  C   C195      1.0  0.25176  0.05937  0.34471  1.0000
  H   H57       1.0  0.27253  0.06989  0.35649  1.0000
  H   H58       1.0  0.19836  0.93353  0.40149  1.0000
  N   N94       1.0  0.25326  0.01645  0.35536  1.0000
  O   O57       1.0  0.26417  0.02126  0.43179  1.0000
  O   O58       1.0  0.27169  0.02307  0.29704  1.0000
  C   C196      1.0  0.05907  0.24237  0.36669  1.0000
  N   N95       1.0  0.03121  0.22746  0.36404  1.0000
  C   C197      1.0  0.97148  0.20361  0.34243  1.0000
  C   C198      1.0  0.94229  0.18807  0.34466  1.0000
  H   H59       1.0  0.93178  0.19833  0.35644  1.0000
  H   H60       1.0  0.06813  0.26053  0.40143  1.0000
  N   N96       1.0  0.98521  0.23249  0.35532  1.0000
  O   O59       1.0  0.98040  0.23860  0.43174  1.0000
  O   O60       1.0  0.97859  0.24431  0.29699  1.0000
  C   C199      1.0  0.22448  0.56236  0.40705  1.0000
  N   N97       1.0  0.22325  0.58589  0.41002  1.0000
  C   C200      1.0  0.25058  0.64710  0.42103  1.0000
  C   C201      1.0  0.25728  0.67499  0.42225  1.0000
  H   H61       1.0  0.27209  0.68817  0.46617  1.0000
  H   H62       1.0  0.22299  0.55238  0.46602  1.0000
  N   N98       1.0  0.26425  0.63769  0.47868  1.0000
  O   O61       1.0  0.25975  0.64022  0.55971  1.0000
  O   O62       1.0  0.28983  0.65036  0.46559  1.0000
  C   C202      1.0  0.43928  0.65780  0.40728  1.0000
  N   N99       1.0  0.41579  0.63301  0.41018  1.0000
  C   C203      1.0  0.35457  0.59918  0.42091  1.0000
  C   C204      1.0  0.32668  0.57800  0.42215  1.0000
  H   H63       1.0  0.31349  0.57966  0.46594  1.0000
  H   H64       1.0  0.44937  0.66628  0.46612  1.0000
  N   N100      1.0  0.36397  0.62228  0.47850  1.0000
  O   O63       1.0  0.36143  0.61527  0.55954  1.0000
  O   O64       1.0  0.35131  0.63519  0.46529  1.0000
  C   C205      1.0  0.34378  0.77706  0.40705  1.0000
  N   N101      1.0  0.36855  0.77830  0.40999  1.0000
  C   C206      1.0  0.40245  0.75104  0.42079  1.0000
  C   C207      1.0  0.42365  0.74437  0.42212  1.0000
  H   H65       1.0  0.42197  0.72949  0.46583  1.0000
  H   H66       1.0  0.33524  0.77845  0.46606  1.0000
  N   N102      1.0  0.37932  0.73730  0.47821  1.0000
  O   O65       1.0  0.38628  0.74173  0.55932  1.0000
  O   O66       1.0  0.36645  0.71173  0.46488  1.0000
  C   C208      1.0  0.78056  0.43587  0.40707  1.0000
  N   N103      1.0  0.78179  0.41234  0.41012  1.0000
  C   C209      1.0  0.75453  0.35115  0.42116  1.0000
  C   C210      1.0  0.74785  0.32327  0.42246  1.0000
  H   H67       1.0  0.73297  0.31008  0.46620  1.0000
  H   H68       1.0  0.78197  0.44582  0.46604  1.0000
  N   N104      1.0  0.74083  0.36055  0.47868  1.0000
  O   O67       1.0  0.74530  0.35804  0.55975  1.0000
  O   O68       1.0  0.71525  0.34787  0.46549  1.0000
  C   C211      1.0  0.56580  0.34046  0.40710  1.0000
  N   N105      1.0  0.58934  0.36522  0.41006  1.0000
  C   C212      1.0  0.65056  0.39903  0.42085  1.0000
  C   C213      1.0  0.67846  0.42019  0.42203  1.0000
  H   H69       1.0  0.69165  0.41853  0.46583  1.0000
  H   H70       1.0  0.55584  0.33196  0.46608  1.0000
  N   N106      1.0  0.64115  0.37592  0.47837  1.0000
  O   O69       1.0  0.64372  0.38291  0.55944  1.0000
  O   O70       1.0  0.65379  0.36299  0.46506  1.0000
  C   C214      1.0  0.66125  0.22111  0.40735  1.0000
  N   N107      1.0  0.63646  0.21982  0.41023  1.0000
  C   C215      1.0  0.60264  0.24722  0.42088  1.0000
  C   C216      1.0  0.58146  0.25393  0.42210  1.0000
  H   H71       1.0  0.58312  0.26879  0.46587  1.0000
  H   H72       1.0  0.66972  0.21951  0.46621  1.0000
  N   N108      1.0  0.62574  0.26092  0.47844  1.0000
  O   O71       1.0  0.61874  0.25647  0.55950  1.0000
  O   O72       1.0  0.63865  0.28649  0.46520  1.0000
