data_image0
_chemical_formula_structural       COH2C7OHC6O2H2C6O2H2C8H4C8H4C8H4C8H4C8H4C8H4C3H2CHC3H2C3H2C3H2C3H2C2HC2HC2H4C2HC2HC2H4C2HC2HC2H4C2HC2HC2H4C2HC2HC2H4C2HC2HC2H4
_chemical_formula_sum              "C120 O6 H78"
_cell_length_a       31.8678
_cell_length_b       31.8678
_cell_length_c       14.8909
_cell_angle_alpha    90
_cell_angle_beta     90
_cell_angle_gamma    120

_space_group_name_H-M_alt    "P 1"
_space_group_IT_number       1

loop_
  _space_group_symop_operation_xyz
  'x, y, z'

loop_
  _atom_site_type_symbol
  _atom_site_label
  _atom_site_symmetry_multiplicity
  _atom_site_fract_x
  _atom_site_fract_y
  _atom_site_fract_z
  _atom_site_occupancy
  C   C1        1.0  0.03225  0.51750  0.33305  1.0000
  O   O1        1.0  0.04100  0.59636  0.29138  1.0000
  H   H1        1.0  0.03302  0.58889  0.22744  1.0000
  H   H2        1.0  0.04330  0.45815  0.36452  1.0000
  C   C2        1.0  0.06056  0.56909  0.31878  1.0000
  C   C3        1.0  0.05985  0.49407  0.34964  1.0000
  C   C4        1.0  0.11171  0.59523  0.33009  1.0000
  C   C5        1.0  0.11098  0.51846  0.34680  1.0000
  C   C6        1.0  0.97875  0.48983  0.33309  1.0000
  C   C7        1.0  0.89929  0.41209  0.33017  1.0000
  C   C8        1.0  0.95044  0.43824  0.31879  1.0000
  O   O2        1.0  0.96999  0.41097  0.29134  1.0000
  H   H3        1.0  0.97796  0.41845  0.22740  1.0000
  C   C9        1.0  0.51933  0.49074  0.33307  1.0000
  C   C10       1.0  0.59707  0.48904  0.33009  1.0000
  C   C11       1.0  0.57091  0.51403  0.31876  1.0000
  C   C12       1.0  0.49164  0.51656  0.33310  1.0000
  C   C13       1.0  0.44005  0.49328  0.31880  1.0000
  C   C14       1.0  0.41391  0.51828  0.33011  1.0000
  O   O3        1.0  0.59818  0.56088  0.29139  1.0000
  O   O4        1.0  0.41279  0.44644  0.29140  1.0000
  H   H4        1.0  0.59071  0.56139  0.22745  1.0000
  H   H5        1.0  0.42026  0.44594  0.22745  1.0000
  C   C15       1.0  0.51841  0.03042  0.33310  1.0000
  C   C16       1.0  0.52013  0.10988  0.33021  1.0000
  C   C17       1.0  0.49513  0.05873  0.31882  1.0000
  C   C18       1.0  0.49258  0.97692  0.33306  1.0000
  C   C19       1.0  0.51586  0.94861  0.31878  1.0000
  C   C20       1.0  0.49085  0.89745  0.33009  1.0000
  O   O5        1.0  0.44830  0.03917  0.29138  1.0000
  O   O6        1.0  0.56270  0.96817  0.29140  1.0000
  H   H6        1.0  0.44782  0.03121  0.22743  1.0000
  H   H7        1.0  0.56321  0.97615  0.22746  1.0000
  C   C21       1.0  0.36232  0.49583  0.33297  1.0000
  C   C22       1.0  0.33415  0.48093  0.25408  1.0000
  C   C23       1.0  0.28582  0.47113  0.25496  1.0000
  C   C24       1.0  0.26398  0.47663  0.33400  1.0000
  C   C25       1.0  0.21804  0.47589  0.33454  1.0000
  C   C26       1.0  0.19791  0.48393  0.25587  1.0000
  C   C27       1.0  0.15911  0.49307  0.26004  1.0000
  C   C28       1.0  0.13858  0.49458  0.34315  1.0000
  H   H8        1.0  0.21386  0.48782  0.19465  1.0000
  H   H9        1.0  0.14877  0.50287  0.20222  1.0000
  H   H10       1.0  0.34965  0.48053  0.19409  1.0000
  H   H11       1.0  0.26767  0.46208  0.19523  1.0000
  C   C29       1.0  0.51330  0.86832  0.33301  1.0000
  C   C30       1.0  0.52824  0.85507  0.25413  1.0000
  C   C31       1.0  0.53799  0.81651  0.25499  1.0000
  C   C32       1.0  0.53250  0.78917  0.33403  1.0000
  C   C33       1.0  0.53323  0.74396  0.33457  1.0000
  C   C34       1.0  0.52518  0.71579  0.25590  1.0000
  C   C35       1.0  0.51604  0.66785  0.26006  1.0000
  C   C36       1.0  0.51454  0.64580  0.34317  1.0000
  H   H12       1.0  0.52129  0.72784  0.19467  1.0000
  H   H13       1.0  0.50624  0.64771  0.20224  1.0000
  H   H14       1.0  0.52857  0.87091  0.19412  1.0000
  H   H15       1.0  0.54702  0.80739  0.19525  1.0000
  C   C37       1.0  0.14084  0.64681  0.33300  1.0000
  C   C38       1.0  0.15408  0.67500  0.25413  1.0000
  C   C39       1.0  0.19264  0.72332  0.25498  1.0000
  C   C40       1.0  0.21998  0.74517  0.33401  1.0000
  C   C41       1.0  0.26518  0.79111  0.33455  1.0000
  C   C42       1.0  0.29335  0.81123  0.25588  1.0000
  C   C43       1.0  0.34129  0.85004  0.26004  1.0000
  C   C44       1.0  0.36334  0.87058  0.34314  1.0000
  H   H16       1.0  0.28130  0.79529  0.19465  1.0000
  H   H17       1.0  0.36143  0.86038  0.20221  1.0000
  H   H18       1.0  0.13824  0.65949  0.19412  1.0000
  H   H19       1.0  0.20175  0.74146  0.19524  1.0000
  C   C45       1.0  0.64865  0.51151  0.33297  1.0000
  C   C46       1.0  0.67686  0.52642  0.25411  1.0000
  C   C47       1.0  0.72517  0.53616  0.25498  1.0000
  C   C48       1.0  0.74701  0.53068  0.33403  1.0000
  C   C49       1.0  0.79294  0.53141  0.33461  1.0000
  C   C50       1.0  0.81309  0.52337  0.25596  1.0000
  C   C51       1.0  0.85189  0.51423  0.26016  1.0000
  C   C52       1.0  0.87242  0.51273  0.34328  1.0000
  H   H20       1.0  0.79715  0.51947  0.19472  1.0000
  H   H21       1.0  0.86225  0.50443  0.20234  1.0000
  H   H22       1.0  0.66135  0.52673  0.19409  1.0000
  H   H23       1.0  0.74331  0.54517  0.19524  1.0000
  C   C53       1.0  0.49768  0.13901  0.33308  1.0000
  C   C54       1.0  0.48274  0.15225  0.25419  1.0000
  C   C55       1.0  0.47298  0.19081  0.25501  1.0000
  C   C56       1.0  0.47847  0.21816  0.33403  1.0000
  C   C57       1.0  0.47774  0.26336  0.33453  1.0000
  C   C58       1.0  0.48578  0.29152  0.25585  1.0000
  C   C59       1.0  0.49493  0.33947  0.25996  1.0000
  C   C60       1.0  0.49646  0.36151  0.34307  1.0000
  H   H24       1.0  0.48967  0.27945  0.19463  1.0000
  H   H25       1.0  0.50473  0.35961  0.20213  1.0000
  H   H26       1.0  0.48241  0.13640  0.19419  1.0000
  H   H27       1.0  0.46396  0.19991  0.19526  1.0000
  C   C61       1.0  0.87016  0.36052  0.33305  1.0000
  C   C62       1.0  0.85689  0.33233  0.25415  1.0000
  C   C63       1.0  0.81832  0.28402  0.25501  1.0000
  C   C64       1.0  0.79101  0.26216  0.33406  1.0000
  C   C65       1.0  0.74580  0.21623  0.33461  1.0000
  C   C66       1.0  0.71761  0.19611  0.25596  1.0000
  C   C67       1.0  0.66967  0.15731  0.26015  1.0000
  C   C68       1.0  0.64764  0.13676  0.34326  1.0000
  H   H28       1.0  0.72964  0.21206  0.19474  1.0000
  H   H29       1.0  0.64951  0.14697  0.20234  1.0000
  H   H30       1.0  0.87271  0.34786  0.19414  1.0000
  H   H31       1.0  0.80920  0.26589  0.19526  1.0000
  C   C69       1.0  0.95115  0.51326  0.34971  1.0000
  C   C70       1.0  0.90002  0.48886  0.34698  1.0000
  C   C71       1.0  0.87473  0.43815  0.34074  1.0000
  H   H32       1.0  0.96771  0.54918  0.36456  1.0000
  H   H33       1.0  0.83752  0.41987  0.34251  1.0000
  C   C72       1.0  0.13627  0.56917  0.34056  1.0000
  H   H34       1.0  0.17348  0.58745  0.34236  1.0000
  C   C73       1.0  0.49590  0.43970  0.34964  1.0000
  C   C74       1.0  0.52032  0.41299  0.34677  1.0000
  C   C75       1.0  0.57102  0.43842  0.34055  1.0000
  H   H35       1.0  0.45999  0.42033  0.36450  1.0000
  H   H36       1.0  0.58932  0.41951  0.34230  1.0000
  C   C76       1.0  0.43996  0.56890  0.34058  1.0000
  C   C77       1.0  0.49067  0.59432  0.34682  1.0000
  C   C78       1.0  0.51507  0.56760  0.34968  1.0000
  H   H37       1.0  0.42167  0.58782  0.34233  1.0000
  H   H38       1.0  0.55098  0.58696  0.36458  1.0000
  C   C79       1.0  0.56944  0.05802  0.34971  1.0000
  C   C80       1.0  0.59616  0.10915  0.34698  1.0000
  C   C81       1.0  0.57074  0.13443  0.34075  1.0000
  H   H39       1.0  0.58880  0.04146  0.36456  1.0000
  H   H40       1.0  0.58967  0.17165  0.34252  1.0000
  C   C82       1.0  0.44024  0.87290  0.34056  1.0000
  C   C83       1.0  0.41482  0.89819  0.34679  1.0000
  C   C84       1.0  0.44155  0.94931  0.34964  1.0000
  H   H41       1.0  0.42131  0.83569  0.34235  1.0000
  H   H42       1.0  0.42218  0.96587  0.36452  1.0000
  C   C85       1.0  0.29136  0.48779  0.41510  1.0000
  C   C86       1.0  0.33998  0.49811  0.41336  1.0000
  H   H43       1.0  0.36034  0.51020  0.47083  1.0000
  C   C87       1.0  0.15697  0.48509  0.42188  1.0000
  C   C88       1.0  0.19571  0.47527  0.41804  1.0000
  H   H44       1.0  0.14395  0.48821  0.48290  1.0000
  C   C89       1.0  0.21562  0.46693  0.50210  1.0000
  C   C90       1.0  0.27167  0.49520  0.50067  1.0000
  H   H45       1.0  0.20294  0.42817  0.50706  1.0000
  H   H46       1.0  0.20306  0.47734  0.56195  1.0000
  H   H47       1.0  0.28439  0.48297  0.55780  1.0000
  H   H48       1.0  0.28491  0.53392  0.50907  1.0000
  C   C91       1.0  0.52135  0.80539  0.41513  1.0000
  C   C92       1.0  0.51102  0.84368  0.41338  1.0000
  H   H49       1.0  0.49893  0.85195  0.47085  1.0000
  C   C93       1.0  0.52404  0.67370  0.42190  1.0000
  C   C94       1.0  0.53385  0.72225  0.41806  1.0000
  H   H50       1.0  0.52093  0.65755  0.48292  1.0000
  C   C95       1.0  0.54219  0.75049  0.50212  1.0000
  C   C96       1.0  0.51394  0.77829  0.50069  1.0000
  H   H51       1.0  0.58095  0.77657  0.50707  1.0000
  H   H52       1.0  0.53178  0.72753  0.56197  1.0000
  H   H53       1.0  0.52617  0.80324  0.55782  1.0000
  H   H54       1.0  0.47522  0.75282  0.50911  1.0000
  C   C97       1.0  0.20377  0.71780  0.41512  1.0000
  C   C98       1.0  0.16548  0.66917  0.41337  1.0000
  H   H55       1.0  0.15723  0.64882  0.47084  1.0000
  C   C99       1.0  0.33545  0.85219  0.42188  1.0000
  C   C100      1.0  0.28690  0.81345  0.41804  1.0000
  H   H56       1.0  0.35159  0.86522  0.48290  1.0000
  C   C101      1.0  0.25866  0.79354  0.50211  1.0000
  C   C102      1.0  0.23086  0.73748  0.50069  1.0000
  H   H57       1.0  0.23257  0.80622  0.50707  1.0000
  H   H58       1.0  0.28162  0.80610  0.56195  1.0000
  H   H59       1.0  0.20592  0.72477  0.55782  1.0000
  H   H60       1.0  0.25635  0.72425  0.50909  1.0000
  C   C103      1.0  0.71963  0.51953  0.41512  1.0000
  C   C104      1.0  0.67101  0.50922  0.41335  1.0000
  H   H61       1.0  0.65065  0.49713  0.47082  1.0000
  C   C105      1.0  0.85401  0.52223  0.42199  1.0000
  C   C106      1.0  0.81527  0.53204  0.41811  1.0000
  H   H62       1.0  0.86703  0.51912  0.48303  1.0000
  C   C107      1.0  0.79535  0.54038  0.50216  1.0000
  C   C108      1.0  0.73930  0.51212  0.50071  1.0000
  H   H63       1.0  0.80803  0.57914  0.50711  1.0000
  H   H64       1.0  0.80790  0.52997  0.56202  1.0000
  H   H65       1.0  0.72657  0.52435  0.55782  1.0000
  H   H66       1.0  0.72605  0.47340  0.50911  1.0000
  C   C109      1.0  0.48962  0.20195  0.41515  1.0000
  C   C110      1.0  0.49996  0.16366  0.41343  1.0000
  H   H67       1.0  0.51205  0.15541  0.47092  1.0000
  C   C111      1.0  0.48694  0.33365  0.42184  1.0000
  C   C112      1.0  0.47712  0.28509  0.41802  1.0000
  H   H68       1.0  0.49005  0.34980  0.48285  1.0000
  C   C113      1.0  0.46877  0.25685  0.50210  1.0000
  C   C114      1.0  0.49703  0.22906  0.50070  1.0000
  H   H69       1.0  0.43001  0.23078  0.50704  1.0000
  H   H70       1.0  0.47918  0.27983  0.56193  1.0000
  H   H71       1.0  0.48479  0.20412  0.55784  1.0000
  H   H72       1.0  0.53575  0.25453  0.50911  1.0000
  C   C115      1.0  0.80724  0.28952  0.41517  1.0000
  C   C116      1.0  0.84554  0.33814  0.41343  1.0000
  H   H73       1.0  0.85381  0.35849  0.47092  1.0000
  C   C117      1.0  0.67556  0.15514  0.42197  1.0000
  C   C118      1.0  0.72411  0.19387  0.41811  1.0000
  H   H74       1.0  0.65943  0.14210  0.48300  1.0000
  C   C119      1.0  0.75238  0.21377  0.50215  1.0000
  C   C120      1.0  0.78017  0.26982  0.50075  1.0000
  H   H75       1.0  0.77846  0.20109  0.50705  1.0000
  H   H76       1.0  0.72942  0.20120  0.56202  1.0000
  H   H77       1.0  0.80513  0.28253  0.55786  1.0000
  H   H78       1.0  0.75470  0.28307  0.50922  1.0000
