data_image0
_chemical_formula_structural       C2NHCHC2NHCH3C3OCNH2C3OCNH2CHCHNC3NC2NCHCHNC3NC2NC3NH5C6N2H6C6N2H6CHC2H2CHC2H2C2H2C2H2C3HNH2C3HNC3NH3C3HNC3NH3C3NH2C5NCONH2C3OC5NCONH2C5NCONH2C5NCONH2C3NH5C6N2H6C6N2H6CHC2H2CHC2H2C2H2C2H2C3HNH2C3HNC3NH3C3HNC3NH3C3NH2C5NCONH2C3OC5NCONH2C5NCONH2C5NCONH2C6N2H5C6N2H6C6N2H6C2H2C2H2C2H2C2H2C2H2C2H2C3HNC3NH3C3HNC3NH3C3HNC3NH3C5NCONH2C5NCONH2C5NCONH2C5NCONH2C5NCONH2C5NCONH2C6N2H5C6N2H6C6N2H6C2H2C2H2C2H2C2H2C2H2C2H2C3HNC3NH3C3HNC3NH3C3HNC3NH3C5NCONH2C5NCONH2C5NCONH2C5NCONH2C5NCONH2C5NCONH2
_chemical_formula_sum              "C336 N96 H216 O24"
_cell_length_a       46.1076
_cell_length_b       46.1076
_cell_length_c       14.922
_cell_angle_alpha    90
_cell_angle_beta     90
_cell_angle_gamma    120

_space_group_name_H-M_alt    "P 1"
_space_group_IT_number       1

loop_
  _space_group_symop_operation_xyz
  'x, y, z'

loop_
  _atom_site_type_symbol
  _atom_site_label
  _atom_site_symmetry_multiplicity
  _atom_site_fract_x
  _atom_site_fract_y
  _atom_site_fract_z
  _atom_site_occupancy
  C   C1        1.0  0.02215  0.26152  0.31411  1.0000
  C   C2        1.0  0.04303  0.29718  0.30319  1.0000
  N   N1        1.0  0.03247  0.31439  0.25075  1.0000
  H   H1        1.0  0.04644  0.33814  0.23839  1.0000
  C   C3        1.0  0.03984  0.24416  0.33290  1.0000
  H   H2        1.0  0.02735  0.21873  0.33859  1.0000
  C   C4        1.0  0.02215  0.76153  0.31411  1.0000
  C   C5        1.0  0.04304  0.79717  0.30319  1.0000
  N   N2        1.0  0.03247  0.81439  0.25075  1.0000
  H   H3        1.0  0.04644  0.83814  0.23839  1.0000
  C   C6        1.0  0.03984  0.74416  0.33290  1.0000
  H   H4        1.0  0.02735  0.71873  0.33859  1.0000
  H   H5        1.0  0.01318  0.30246  0.21157  1.0000
  H   H6        1.0  0.01318  0.80246  0.21157  1.0000
  C   C7        1.0  0.07617  0.31432  0.34015  1.0000
  C   C8        1.0  0.09102  0.29537  0.37167  1.0000
  C   C9        1.0  0.07402  0.26016  0.35679  1.0000
  O   O1        1.0  0.06737  0.23016  0.52941  1.0000
  C   C10       1.0  0.08649  0.37718  0.55929  1.0000
  N   N3        1.0  0.08051  0.35943  0.48235  1.0000
  H   H7        1.0  0.06919  0.36883  0.60979  1.0000
  H   H8        1.0  0.05908  0.33874  0.47746  1.0000
  C   C11       1.0  0.07618  0.81432  0.34015  1.0000
  C   C12       1.0  0.09102  0.79538  0.37167  1.0000
  C   C13       1.0  0.07402  0.76017  0.35679  1.0000
  O   O2        1.0  0.06737  0.73016  0.52941  1.0000
  C   C14       1.0  0.08649  0.87718  0.55929  1.0000
  N   N4        1.0  0.08051  0.85943  0.48235  1.0000
  H   H9        1.0  0.06919  0.86883  0.60979  1.0000
  H   H10       1.0  0.05908  0.83874  0.47746  1.0000
  C   C15       1.0  0.10490  0.24446  0.25770  1.0000
  H   H11       1.0  0.09531  0.25113  0.20472  1.0000
  C   C16       1.0  0.12109  0.36221  0.26634  1.0000
  H   H12       1.0  0.11852  0.34735  0.21236  1.0000
  N   N5        1.0  0.12151  0.31065  0.41345  1.0000
  C   C17       1.0  0.10848  0.23631  0.41719  1.0000
  C   C18       1.0  0.09223  0.24285  0.34523  1.0000
  C   C19       1.0  0.09662  0.23194  0.50671  1.0000
  N   N6        1.0  0.11424  0.22860  0.57439  1.0000
  C   C20       1.0  0.09690  0.34987  0.33536  1.0000
  C   C21       1.0  0.10314  0.37020  0.41321  1.0000
  N   N7        1.0  0.11563  0.40618  0.56994  1.0000
  C   C22       1.0  0.10490  0.74446  0.25770  1.0000
  H   H13       1.0  0.09531  0.75113  0.20472  1.0000
  C   C23       1.0  0.12109  0.86221  0.26634  1.0000
  H   H14       1.0  0.11852  0.84735  0.21236  1.0000
  N   N8        1.0  0.12151  0.81065  0.41345  1.0000
  C   C24       1.0  0.10848  0.73631  0.41719  1.0000
  C   C25       1.0  0.09223  0.74285  0.34523  1.0000
  C   C26       1.0  0.09662  0.73194  0.50671  1.0000
  N   N9        1.0  0.11424  0.72861  0.57439  1.0000
  C   C27       1.0  0.09690  0.84987  0.33536  1.0000
  C   C28       1.0  0.10314  0.87020  0.41321  1.0000
  N   N10       1.0  0.11563  0.90618  0.56994  1.0000
  C   C29       1.0  0.48580  0.24388  0.31567  1.0000
  C   C30       1.0  0.43209  0.19113  0.34542  1.0000
  C   C31       1.0  0.46477  0.20819  0.30556  1.0000
  N   N11       1.0  0.47480  0.19088  0.25167  1.0000
  H   H15       1.0  0.99359  0.20277  0.21096  1.0000
  H   H16       1.0  0.46058  0.16713  0.23975  1.0000
  H   H17       1.0  0.51318  0.30246  0.21157  1.0000
  H   H18       1.0  0.13294  0.33405  0.42834  1.0000
  H   H19       1.0  0.37761  0.17215  0.44422  1.0000
  C   C32       1.0  0.26359  0.24413  0.30441  1.0000
  C   C33       1.0  0.31805  0.24458  0.31624  1.0000
  C   C34       1.0  0.29932  0.26036  0.28970  1.0000
  C   C35       1.0  0.24387  0.26071  0.30191  1.0000
  C   C36       1.0  0.20829  0.24436  0.28481  1.0000
  C   C37       1.0  0.18948  0.26059  0.30557  1.0000
  N   N12       1.0  0.31551  0.28946  0.24175  1.0000
  N   N13       1.0  0.19234  0.21472  0.23915  1.0000
  H   H20       1.0  0.30295  0.29714  0.20645  1.0000
  H   H21       1.0  0.33911  0.29980  0.22654  1.0000
  H   H22       1.0  0.16896  0.20460  0.22169  1.0000
  H   H23       1.0  0.20512  0.20667  0.20639  1.0000
  H   H24       1.0  0.16634  0.30295  0.32033  1.0000
  H   H25       1.0  0.34118  0.20280  0.34805  1.0000
  C   C38       1.0  0.26254  0.02082  0.32312  1.0000
  C   C39       1.0  0.26010  0.07241  0.35882  1.0000
  C   C40       1.0  0.24647  0.04060  0.31445  1.0000
  C   C41       1.0  0.24524  0.48456  0.32242  1.0000
  C   C42       1.0  0.26121  0.46475  0.31177  1.0000
  C   C43       1.0  0.24743  0.43252  0.35405  1.0000
  N   N14       1.0  0.21897  0.02953  0.26065  1.0000
  N   N15       1.0  0.28884  0.47627  0.25825  1.0000
  H   H26       1.0  0.21293  0.51113  0.21904  1.0000
  H   H27       1.0  0.20724  0.04191  0.25261  1.0000
  H   H28       1.0  0.30052  0.46391  0.24898  1.0000
  H   H29       1.0  0.29482  0.99489  0.21747  1.0000
  H   H30       1.0  0.21157  0.37755  0.45913  1.0000
  H   H31       1.0  0.29486  0.12525  0.47005  1.0000
  C   C44       1.0  0.13479  0.24390  0.24272  1.0000
  H   H32       1.0  0.14542  0.25055  0.18036  1.0000
  C   C45       1.0  0.25758  0.36499  0.25593  1.0000
  C   C46       1.0  0.25730  0.39523  0.26193  1.0000
  H   H33       1.0  0.24908  0.40255  0.20728  1.0000
  H   H34       1.0  0.24932  0.35189  0.19705  1.0000
  C   C47       1.0  0.15150  0.39230  0.27621  1.0000
  H   H35       1.0  0.16944  0.39800  0.22807  1.0000
  C   C48       1.0  0.40123  0.25774  0.26337  1.0000
  C   C49       1.0  0.37132  0.25830  0.24940  1.0000
  H   H36       1.0  0.35975  0.25041  0.18843  1.0000
  H   H37       1.0  0.41000  0.24980  0.21122  1.0000
  C   C50       1.0  0.25187  0.14140  0.26294  1.0000
  C   C51       1.0  0.25199  0.11107  0.26767  1.0000
  H   H38       1.0  0.26117  0.10448  0.21361  1.0000
  H   H39       1.0  0.26095  0.15522  0.20539  1.0000
  C   C52       1.0  0.35571  0.11440  0.27994  1.0000
  C   C53       1.0  0.38614  0.14454  0.27131  1.0000
  H   H40       1.0  0.38844  0.16013  0.21943  1.0000
  H   H41       1.0  0.33750  0.10948  0.23321  1.0000
  C   C54       1.0  0.46825  0.26126  0.33614  1.0000
  C   C55       1.0  0.43446  0.24527  0.36354  1.0000
  C   C56       1.0  0.41787  0.21021  0.38003  1.0000
  H   H42       1.0  0.48064  0.28672  0.34042  1.0000
  N   N16       1.0  0.38840  0.19534  0.42679  1.0000
  H   H43       1.0  0.13029  0.29819  0.44357  1.0000
  H   H44       1.0  0.38095  0.20845  0.45973  1.0000
  C   C57       1.0  0.24779  0.20977  0.32988  1.0000
  C   C58       1.0  0.26494  0.19189  0.34106  1.0000
  C   C59       1.0  0.30059  0.20977  0.33872  1.0000
  H   H45       1.0  0.22271  0.19683  0.34314  1.0000
  N   N17       1.0  0.31745  0.19301  0.35683  1.0000
  C   C60       1.0  0.20680  0.29570  0.32437  1.0000
  C   C61       1.0  0.24238  0.31341  0.33097  1.0000
  C   C62       1.0  0.25947  0.29525  0.32537  1.0000
  N   N18       1.0  0.18968  0.31266  0.33516  1.0000
  H   H46       1.0  0.28436  0.30814  0.34105  1.0000
  H   H47       1.0  0.20048  0.33592  0.35209  1.0000
  H   H48       1.0  0.30631  0.17008  0.37672  1.0000
  C   C63       1.0  0.29736  0.03945  0.34362  1.0000
  C   C64       1.0  0.31333  0.07275  0.37430  1.0000
  C   C65       1.0  0.29327  0.08728  0.39486  1.0000
  H   H49       1.0  0.31163  0.02828  0.34565  1.0000
  N   N19       1.0  0.30754  0.11560  0.44635  1.0000
  C   C66       1.0  0.21431  0.41754  0.39067  1.0000
  C   C67       1.0  0.19441  0.43247  0.37266  1.0000
  C   C68       1.0  0.21048  0.46595  0.34351  1.0000
  N   N20       1.0  0.19973  0.38869  0.44007  1.0000
  H   H50       1.0  0.19631  0.47720  0.34666  1.0000
  H   H51       1.0  0.17956  0.38241  0.47417  1.0000
  H   H52       1.0  0.32839  0.12248  0.47776  1.0000
  C   C69       1.0  0.15382  0.24240  0.31514  1.0000
  C   C70       1.0  0.13953  0.23690  0.40275  1.0000
  C   C71       1.0  0.14364  0.22964  0.55980  1.0000
  N   N21       1.0  0.15608  0.23388  0.47541  1.0000
  H   H53       1.0  0.15621  0.22705  0.61283  1.0000
  H   H54       1.0  0.17710  0.23395  0.46801  1.0000
  C   C72       1.0  0.26226  0.41191  0.34471  1.0000
  C   C73       1.0  0.27165  0.39940  0.42010  1.0000
  C   C74       1.0  0.26965  0.36733  0.41575  1.0000
  C   C75       1.0  0.26090  0.34909  0.33344  1.0000
  C   C76       1.0  0.27441  0.35467  0.49785  1.0000
  N   N22       1.0  0.28180  0.37290  0.57407  1.0000
  C   C77       1.0  0.28440  0.40336  0.57597  1.0000
  O   O3        1.0  0.27290  0.32477  0.50627  1.0000
  N   N23       1.0  0.27903  0.41620  0.50021  1.0000
  H   H55       1.0  0.28983  0.41622  0.63516  1.0000
  H   H56       1.0  0.28070  0.43807  0.50468  1.0000
  C   C78       1.0  0.13437  0.40099  0.42328  1.0000
  C   C79       1.0  0.15950  0.41166  0.35554  1.0000
  C   C80       1.0  0.13945  0.41834  0.50553  1.0000
  O   O4        1.0  0.16731  0.44779  0.52438  1.0000
  C   C81       1.0  0.35383  0.26237  0.32167  1.0000
  C   C82       1.0  0.36950  0.26984  0.40777  1.0000
  C   C83       1.0  0.40045  0.27008  0.42126  1.0000
  C   C84       1.0  0.41540  0.26158  0.34987  1.0000
  C   C85       1.0  0.41373  0.27666  0.50945  1.0000
  N   N24       1.0  0.39752  0.28228  0.57675  1.0000
  C   C86       1.0  0.36820  0.28152  0.56311  1.0000
  O   O5        1.0  0.44310  0.27853  0.53118  1.0000
  N   N25       1.0  0.35441  0.27523  0.48006  1.0000
  H   H57       1.0  0.35673  0.28589  0.61583  1.0000
  H   H58       1.0  0.33352  0.27548  0.47315  1.0000
  C   C87       1.0  0.24576  0.09344  0.34929  1.0000
  C   C88       1.0  0.23520  0.10508  0.42423  1.0000
  C   C89       1.0  0.23671  0.13693  0.42078  1.0000
  C   C90       1.0  0.24676  0.15619  0.34013  1.0000
  C   C91       1.0  0.22998  0.14841  0.50223  1.0000
  N   N26       1.0  0.22149  0.12937  0.57715  1.0000
  C   C92       1.0  0.21959  0.09920  0.57831  1.0000
  O   O6        1.0  0.23050  0.17784  0.51078  1.0000
  N   N27       1.0  0.22667  0.08745  0.50310  1.0000
  H   H59       1.0  0.21326  0.08570  0.63652  1.0000
  H   H60       1.0  0.22531  0.06570  0.50701  1.0000
  C   C93       1.0  0.41080  0.15571  0.33907  1.0000
  C   C94       1.0  0.40485  0.13434  0.41440  1.0000
  C   C95       1.0  0.37357  0.10356  0.42349  1.0000
  C   C96       1.0  0.34816  0.09392  0.35696  1.0000
  C   C97       1.0  0.36884  0.08514  0.50365  1.0000
  N   N28       1.0  0.39306  0.09634  0.56693  1.0000
  C   C98       1.0  0.42227  0.12535  0.55716  1.0000
  O   O7        1.0  0.34095  0.05560  0.52148  1.0000
  N   N29       1.0  0.42791  0.14410  0.48231  1.0000
  H   H61       1.0  0.43988  0.13294  0.60678  1.0000
  H   H62       1.0  0.44937  0.16477  0.47799  1.0000
  C   C99       1.0  0.48580  0.74387  0.31567  1.0000
  C   C100      1.0  0.43209  0.69113  0.34542  1.0000
  C   C101      1.0  0.46477  0.70819  0.30556  1.0000
  N   N30       1.0  0.47480  0.69088  0.25167  1.0000
  H   H63       1.0  0.99359  0.70277  0.21096  1.0000
  H   H64       1.0  0.46058  0.66713  0.23975  1.0000
  H   H65       1.0  0.51318  0.80246  0.21157  1.0000
  H   H66       1.0  0.13294  0.83405  0.42834  1.0000
  H   H67       1.0  0.37761  0.67215  0.44422  1.0000
  C   C102      1.0  0.26359  0.74413  0.30441  1.0000
  C   C103      1.0  0.31805  0.74459  0.31624  1.0000
  C   C104      1.0  0.29932  0.76036  0.28970  1.0000
  C   C105      1.0  0.24387  0.76071  0.30191  1.0000
  C   C106      1.0  0.20829  0.74436  0.28481  1.0000
  C   C107      1.0  0.18948  0.76059  0.30557  1.0000
  N   N31       1.0  0.31551  0.78946  0.24175  1.0000
  N   N32       1.0  0.19234  0.71472  0.23915  1.0000
  H   H68       1.0  0.30295  0.79714  0.20645  1.0000
  H   H69       1.0  0.33910  0.79980  0.22654  1.0000
  H   H70       1.0  0.16896  0.70460  0.22169  1.0000
  H   H71       1.0  0.20512  0.70668  0.20639  1.0000
  H   H72       1.0  0.16634  0.80295  0.32033  1.0000
  H   H73       1.0  0.34118  0.70280  0.34804  1.0000
  C   C108      1.0  0.26254  0.52082  0.32312  1.0000
  C   C109      1.0  0.26010  0.57241  0.35882  1.0000
  C   C110      1.0  0.24647  0.54060  0.31445  1.0000
  C   C111      1.0  0.24524  0.98456  0.32242  1.0000
  C   C112      1.0  0.26121  0.96475  0.31177  1.0000
  C   C113      1.0  0.24743  0.93253  0.35405  1.0000
  N   N33       1.0  0.21897  0.52953  0.26065  1.0000
  N   N34       1.0  0.28884  0.97627  0.25825  1.0000
  H   H74       1.0  0.21293  0.01113  0.21904  1.0000
  H   H75       1.0  0.20724  0.54191  0.25261  1.0000
  H   H76       1.0  0.30052  0.96391  0.24898  1.0000
  H   H77       1.0  0.29482  0.49489  0.21747  1.0000
  H   H78       1.0  0.21158  0.87755  0.45913  1.0000
  H   H79       1.0  0.29486  0.62525  0.47005  1.0000
  C   C114      1.0  0.13479  0.74390  0.24272  1.0000
  H   H80       1.0  0.14542  0.75055  0.18036  1.0000
  C   C115      1.0  0.25758  0.86499  0.25593  1.0000
  C   C116      1.0  0.25730  0.89523  0.26193  1.0000
  H   H81       1.0  0.24908  0.90255  0.20728  1.0000
  H   H82       1.0  0.24932  0.85189  0.19705  1.0000
  C   C117      1.0  0.15150  0.89230  0.27621  1.0000
  H   H83       1.0  0.16944  0.89800  0.22807  1.0000
  C   C118      1.0  0.40123  0.75774  0.26337  1.0000
  C   C119      1.0  0.37132  0.75830  0.24940  1.0000
  H   H84       1.0  0.35975  0.75041  0.18843  1.0000
  H   H85       1.0  0.41000  0.74980  0.21122  1.0000
  C   C120      1.0  0.25187  0.64140  0.26294  1.0000
  C   C121      1.0  0.25199  0.61107  0.26767  1.0000
  H   H86       1.0  0.26117  0.60448  0.21361  1.0000
  H   H87       1.0  0.26095  0.65522  0.20539  1.0000
  C   C122      1.0  0.35571  0.61440  0.27994  1.0000
  C   C123      1.0  0.38613  0.64454  0.27131  1.0000
  H   H88       1.0  0.38844  0.66013  0.21943  1.0000
  H   H89       1.0  0.33750  0.60948  0.23321  1.0000
  C   C124      1.0  0.46826  0.76126  0.33614  1.0000
  C   C125      1.0  0.43446  0.74527  0.36354  1.0000
  C   C126      1.0  0.41787  0.71021  0.38003  1.0000
  H   H90       1.0  0.48064  0.78673  0.34042  1.0000
  N   N35       1.0  0.38840  0.69534  0.42679  1.0000
  H   H91       1.0  0.13029  0.79819  0.44357  1.0000
  H   H92       1.0  0.38095  0.70845  0.45973  1.0000
  C   C127      1.0  0.24779  0.70977  0.32988  1.0000
  C   C128      1.0  0.26494  0.69189  0.34106  1.0000
  C   C129      1.0  0.30059  0.70978  0.33872  1.0000
  H   H93       1.0  0.22271  0.69683  0.34314  1.0000
  N   N36       1.0  0.31745  0.69301  0.35683  1.0000
  C   C130      1.0  0.20680  0.79570  0.32437  1.0000
  C   C131      1.0  0.24238  0.81341  0.33097  1.0000
  C   C132      1.0  0.25947  0.79525  0.32537  1.0000
  N   N37       1.0  0.18968  0.81266  0.33516  1.0000
  H   H94       1.0  0.28436  0.80814  0.34105  1.0000
  H   H95       1.0  0.20048  0.83592  0.35209  1.0000
  H   H96       1.0  0.30631  0.67008  0.37672  1.0000
  C   C133      1.0  0.29736  0.53945  0.34362  1.0000
  C   C134      1.0  0.31333  0.57276  0.37430  1.0000
  C   C135      1.0  0.29327  0.58727  0.39486  1.0000
  H   H97       1.0  0.31163  0.52828  0.34565  1.0000
  N   N38       1.0  0.30754  0.61560  0.44635  1.0000
  C   C136      1.0  0.21431  0.91754  0.39067  1.0000
  C   C137      1.0  0.19441  0.93247  0.37266  1.0000
  C   C138      1.0  0.21048  0.96595  0.34351  1.0000
  N   N39       1.0  0.19973  0.88869  0.44007  1.0000
  H   H98       1.0  0.19631  0.97720  0.34666  1.0000
  H   H99       1.0  0.17956  0.88241  0.47417  1.0000
  H   H100      1.0  0.32839  0.62248  0.47776  1.0000
  C   C139      1.0  0.15382  0.74240  0.31514  1.0000
  C   C140      1.0  0.13953  0.73690  0.40275  1.0000
  C   C141      1.0  0.14364  0.72964  0.55980  1.0000
  N   N40       1.0  0.15608  0.73388  0.47541  1.0000
  H   H101      1.0  0.15621  0.72705  0.61283  1.0000
  H   H102      1.0  0.17710  0.73395  0.46801  1.0000
  C   C142      1.0  0.26226  0.91191  0.34471  1.0000
  C   C143      1.0  0.27165  0.89940  0.42010  1.0000
  C   C144      1.0  0.26965  0.86733  0.41575  1.0000
  C   C145      1.0  0.26090  0.84909  0.33344  1.0000
  C   C146      1.0  0.27441  0.85467  0.49785  1.0000
  N   N41       1.0  0.28180  0.87290  0.57407  1.0000
  C   C147      1.0  0.28440  0.90336  0.57597  1.0000
  O   O8        1.0  0.27290  0.82477  0.50627  1.0000
  N   N42       1.0  0.27903  0.91620  0.50021  1.0000
  H   H103      1.0  0.28983  0.91622  0.63516  1.0000
  H   H104      1.0  0.28070  0.93807  0.50468  1.0000
  C   C148      1.0  0.13436  0.90099  0.42328  1.0000
  C   C149      1.0  0.15950  0.91166  0.35554  1.0000
  C   C150      1.0  0.13945  0.91834  0.50553  1.0000
  O   O9        1.0  0.16732  0.94779  0.52438  1.0000
  C   C151      1.0  0.35383  0.76237  0.32167  1.0000
  C   C152      1.0  0.36950  0.76984  0.40777  1.0000
  C   C153      1.0  0.40045  0.77008  0.42125  1.0000
  C   C154      1.0  0.41540  0.76158  0.34987  1.0000
  C   C155      1.0  0.41373  0.77666  0.50945  1.0000
  N   N43       1.0  0.39752  0.78228  0.57675  1.0000
  C   C156      1.0  0.36820  0.78152  0.56311  1.0000
  O   O10       1.0  0.44310  0.77853  0.53118  1.0000
  N   N44       1.0  0.35441  0.77523  0.48006  1.0000
  H   H105      1.0  0.35673  0.78589  0.61583  1.0000
  H   H106      1.0  0.33352  0.77547  0.47315  1.0000
  C   C157      1.0  0.24576  0.59344  0.34929  1.0000
  C   C158      1.0  0.23520  0.60508  0.42423  1.0000
  C   C159      1.0  0.23671  0.63693  0.42078  1.0000
  C   C160      1.0  0.24676  0.65619  0.34013  1.0000
  C   C161      1.0  0.22998  0.64841  0.50223  1.0000
  N   N45       1.0  0.22149  0.62937  0.57715  1.0000
  C   C162      1.0  0.21959  0.59920  0.57831  1.0000
  O   O11       1.0  0.23050  0.67784  0.51078  1.0000
  N   N46       1.0  0.22667  0.58745  0.50310  1.0000
  H   H107      1.0  0.21326  0.58570  0.63652  1.0000
  H   H108      1.0  0.22531  0.56570  0.50701  1.0000
  C   C163      1.0  0.41080  0.65571  0.33907  1.0000
  C   C164      1.0  0.40485  0.63434  0.41440  1.0000
  C   C165      1.0  0.37357  0.60356  0.42349  1.0000
  C   C166      1.0  0.34816  0.59392  0.35696  1.0000
  C   C167      1.0  0.36884  0.58514  0.50365  1.0000
  N   N47       1.0  0.39307  0.59634  0.56693  1.0000
  C   C168      1.0  0.42227  0.62535  0.55716  1.0000
  O   O12       1.0  0.34095  0.55560  0.52148  1.0000
  N   N48       1.0  0.42791  0.64410  0.48231  1.0000
  H   H109      1.0  0.43988  0.63294  0.60678  1.0000
  H   H110      1.0  0.44937  0.66477  0.47799  1.0000
  C   C169      1.0  0.98579  0.24388  0.31567  1.0000
  C   C170      1.0  0.93209  0.19113  0.34542  1.0000
  C   C171      1.0  0.96477  0.20819  0.30556  1.0000
  C   C172      1.0  0.52215  0.26152  0.31411  1.0000
  C   C173      1.0  0.54303  0.29718  0.30319  1.0000
  C   C174      1.0  0.57617  0.31432  0.34015  1.0000
  N   N49       1.0  0.97480  0.19088  0.25167  1.0000
  N   N50       1.0  0.53247  0.31439  0.25075  1.0000
  H   H111      1.0  0.49359  0.20277  0.21096  1.0000
  H   H112      1.0  0.96058  0.16713  0.23975  1.0000
  H   H113      1.0  0.54644  0.33814  0.23839  1.0000
  H   H114      1.0  0.63294  0.33405  0.42834  1.0000
  H   H115      1.0  0.87761  0.17215  0.44422  1.0000
  C   C175      1.0  0.76359  0.24413  0.30441  1.0000
  C   C176      1.0  0.81805  0.24458  0.31624  1.0000
  C   C177      1.0  0.79932  0.26036  0.28970  1.0000
  C   C178      1.0  0.74387  0.26071  0.30191  1.0000
  C   C179      1.0  0.70829  0.24436  0.28481  1.0000
  C   C180      1.0  0.68948  0.26059  0.30557  1.0000
  N   N51       1.0  0.81551  0.28946  0.24175  1.0000
  N   N52       1.0  0.69234  0.21472  0.23915  1.0000
  H   H116      1.0  0.80295  0.29714  0.20645  1.0000
  H   H117      1.0  0.83911  0.29980  0.22654  1.0000
  H   H118      1.0  0.66896  0.20460  0.22169  1.0000
  H   H119      1.0  0.70512  0.20667  0.20639  1.0000
  H   H120      1.0  0.66634  0.30295  0.32033  1.0000
  H   H121      1.0  0.84118  0.20280  0.34805  1.0000
  C   C181      1.0  0.76254  0.02082  0.32312  1.0000
  C   C182      1.0  0.76010  0.07241  0.35882  1.0000
  C   C183      1.0  0.74647  0.04060  0.31445  1.0000
  C   C184      1.0  0.74524  0.48456  0.32242  1.0000
  C   C185      1.0  0.76122  0.46475  0.31177  1.0000
  C   C186      1.0  0.74743  0.43252  0.35405  1.0000
  N   N53       1.0  0.71897  0.02953  0.26065  1.0000
  N   N54       1.0  0.78884  0.47627  0.25825  1.0000
  H   H122      1.0  0.71293  0.51113  0.21904  1.0000
  H   H123      1.0  0.70724  0.04191  0.25261  1.0000
  H   H124      1.0  0.80052  0.46391  0.24898  1.0000
  H   H125      1.0  0.79483  0.99489  0.21747  1.0000
  H   H126      1.0  0.71158  0.37755  0.45913  1.0000
  H   H127      1.0  0.79486  0.12525  0.47005  1.0000
  C   C187      1.0  0.60490  0.24446  0.25770  1.0000
  C   C188      1.0  0.63479  0.24390  0.24272  1.0000
  H   H128      1.0  0.64542  0.25055  0.18036  1.0000
  H   H129      1.0  0.59531  0.25113  0.20472  1.0000
  C   C189      1.0  0.75758  0.36499  0.25593  1.0000
  C   C190      1.0  0.75730  0.39523  0.26193  1.0000
  H   H130      1.0  0.74908  0.40255  0.20728  1.0000
  H   H131      1.0  0.74932  0.35189  0.19705  1.0000
  C   C191      1.0  0.65150  0.39230  0.27621  1.0000
  C   C192      1.0  0.62109  0.36221  0.26634  1.0000
  H   H132      1.0  0.61852  0.34735  0.21236  1.0000
  H   H133      1.0  0.66944  0.39800  0.22807  1.0000
  C   C193      1.0  0.90123  0.25774  0.26337  1.0000
  C   C194      1.0  0.87132  0.25830  0.24940  1.0000
  H   H134      1.0  0.85975  0.25041  0.18843  1.0000
  H   H135      1.0  0.91000  0.24980  0.21122  1.0000
  C   C195      1.0  0.75187  0.14140  0.26294  1.0000
  C   C196      1.0  0.75199  0.11107  0.26767  1.0000
  H   H136      1.0  0.76117  0.10448  0.21361  1.0000
  H   H137      1.0  0.76095  0.15522  0.20539  1.0000
  C   C197      1.0  0.85571  0.11440  0.27994  1.0000
  C   C198      1.0  0.88614  0.14454  0.27131  1.0000
  H   H138      1.0  0.88844  0.16013  0.21943  1.0000
  H   H139      1.0  0.83750  0.10948  0.23321  1.0000
  C   C199      1.0  0.96826  0.26126  0.33614  1.0000
  C   C200      1.0  0.93446  0.24527  0.36354  1.0000
  C   C201      1.0  0.91787  0.21021  0.38003  1.0000
  H   H140      1.0  0.98064  0.28672  0.34042  1.0000
  N   N55       1.0  0.88840  0.19534  0.42679  1.0000
  C   C202      1.0  0.59102  0.29537  0.37167  1.0000
  C   C203      1.0  0.57402  0.26016  0.35679  1.0000
  C   C204      1.0  0.53984  0.24416  0.33290  1.0000
  N   N56       1.0  0.62151  0.31065  0.41345  1.0000
  H   H141      1.0  0.52735  0.21873  0.33859  1.0000
  H   H142      1.0  0.63029  0.29819  0.44357  1.0000
  H   H143      1.0  0.88096  0.20845  0.45973  1.0000
  C   C205      1.0  0.74779  0.20977  0.32988  1.0000
  C   C206      1.0  0.76494  0.19189  0.34106  1.0000
  C   C207      1.0  0.80059  0.20977  0.33872  1.0000
  H   H144      1.0  0.72271  0.19683  0.34314  1.0000
  N   N57       1.0  0.81745  0.19301  0.35683  1.0000
  C   C208      1.0  0.70680  0.29570  0.32437  1.0000
  C   C209      1.0  0.74238  0.31341  0.33097  1.0000
  C   C210      1.0  0.75947  0.29525  0.32537  1.0000
  N   N58       1.0  0.68968  0.31266  0.33516  1.0000
  H   H145      1.0  0.78436  0.30814  0.34105  1.0000
  H   H146      1.0  0.70048  0.33592  0.35209  1.0000
  H   H147      1.0  0.80631  0.17008  0.37672  1.0000
  C   C211      1.0  0.79736  0.03945  0.34362  1.0000
  C   C212      1.0  0.81333  0.07275  0.37430  1.0000
  C   C213      1.0  0.79327  0.08728  0.39486  1.0000
  H   H148      1.0  0.81163  0.02828  0.34565  1.0000
  N   N59       1.0  0.80754  0.11560  0.44635  1.0000
  C   C214      1.0  0.71431  0.41754  0.39067  1.0000
  C   C215      1.0  0.69441  0.43247  0.37266  1.0000
  C   C216      1.0  0.71049  0.46595  0.34351  1.0000
  N   N60       1.0  0.69973  0.38869  0.44007  1.0000
  H   H149      1.0  0.69631  0.47720  0.34666  1.0000
  H   H150      1.0  0.67956  0.38241  0.47417  1.0000
  H   H151      1.0  0.82839  0.12248  0.47776  1.0000
  C   C217      1.0  0.65382  0.24240  0.31514  1.0000
  C   C218      1.0  0.63953  0.23690  0.40275  1.0000
  C   C219      1.0  0.60848  0.23631  0.41719  1.0000
  C   C220      1.0  0.59223  0.24285  0.34523  1.0000
  C   C221      1.0  0.59662  0.23194  0.50671  1.0000
  N   N61       1.0  0.61424  0.22860  0.57439  1.0000
  C   C222      1.0  0.64364  0.22964  0.55980  1.0000
  O   O13       1.0  0.56737  0.23016  0.52941  1.0000
  N   N62       1.0  0.65608  0.23388  0.47541  1.0000
  H   H152      1.0  0.65621  0.22705  0.61283  1.0000
  H   H153      1.0  0.67711  0.23395  0.46801  1.0000
  C   C223      1.0  0.76226  0.41191  0.34471  1.0000
  C   C224      1.0  0.77165  0.39940  0.42010  1.0000
  C   C225      1.0  0.76965  0.36733  0.41575  1.0000
  C   C226      1.0  0.76090  0.34909  0.33344  1.0000
  C   C227      1.0  0.77442  0.35467  0.49785  1.0000
  N   N63       1.0  0.78180  0.37290  0.57407  1.0000
  C   C228      1.0  0.78440  0.40336  0.57597  1.0000
  O   O14       1.0  0.77290  0.32477  0.50627  1.0000
  N   N64       1.0  0.77904  0.41620  0.50021  1.0000
  H   H154      1.0  0.78983  0.41622  0.63516  1.0000
  H   H155      1.0  0.78071  0.43807  0.50468  1.0000
  C   C229      1.0  0.59691  0.34987  0.33536  1.0000
  C   C230      1.0  0.60314  0.37020  0.41321  1.0000
  C   C231      1.0  0.63436  0.40099  0.42328  1.0000
  C   C232      1.0  0.65950  0.41166  0.35554  1.0000
  C   C233      1.0  0.63946  0.41834  0.50553  1.0000
  N   N65       1.0  0.61563  0.40618  0.56994  1.0000
  C   C234      1.0  0.58649  0.37718  0.55929  1.0000
  O   O15       1.0  0.66731  0.44779  0.52438  1.0000
  N   N66       1.0  0.58051  0.35943  0.48235  1.0000
  H   H156      1.0  0.56919  0.36883  0.60979  1.0000
  H   H157      1.0  0.55908  0.33874  0.47746  1.0000
  C   C235      1.0  0.85383  0.26237  0.32167  1.0000
  C   C236      1.0  0.86950  0.26984  0.40777  1.0000
  C   C237      1.0  0.90045  0.27008  0.42126  1.0000
  C   C238      1.0  0.91540  0.26158  0.34987  1.0000
  C   C239      1.0  0.91373  0.27666  0.50945  1.0000
  N   N67       1.0  0.89752  0.28228  0.57675  1.0000
  C   C240      1.0  0.86820  0.28152  0.56311  1.0000
  O   O16       1.0  0.94310  0.27853  0.53118  1.0000
  N   N68       1.0  0.85441  0.27523  0.48006  1.0000
  H   H158      1.0  0.85673  0.28589  0.61583  1.0000
  H   H159      1.0  0.83352  0.27548  0.47315  1.0000
  C   C241      1.0  0.74576  0.09344  0.34929  1.0000
  C   C242      1.0  0.73520  0.10508  0.42423  1.0000
  C   C243      1.0  0.73671  0.13693  0.42078  1.0000
  C   C244      1.0  0.74676  0.15619  0.34013  1.0000
  C   C245      1.0  0.72998  0.14841  0.50223  1.0000
  N   N69       1.0  0.72149  0.12937  0.57715  1.0000
  C   C246      1.0  0.71959  0.09920  0.57831  1.0000
  O   O17       1.0  0.73050  0.17784  0.51078  1.0000
  N   N70       1.0  0.72667  0.08745  0.50310  1.0000
  H   H160      1.0  0.71326  0.08570  0.63652  1.0000
  H   H161      1.0  0.72531  0.06570  0.50701  1.0000
  C   C247      1.0  0.91080  0.15571  0.33907  1.0000
  C   C248      1.0  0.90485  0.13434  0.41440  1.0000
  C   C249      1.0  0.87357  0.10356  0.42349  1.0000
  C   C250      1.0  0.84817  0.09392  0.35696  1.0000
  C   C251      1.0  0.86884  0.08514  0.50365  1.0000
  N   N71       1.0  0.89306  0.09634  0.56693  1.0000
  C   C252      1.0  0.92227  0.12535  0.55716  1.0000
  O   O18       1.0  0.84095  0.05560  0.52148  1.0000
  N   N72       1.0  0.92791  0.14410  0.48231  1.0000
  H   H162      1.0  0.93988  0.13294  0.60678  1.0000
  H   H163      1.0  0.94937  0.16477  0.47799  1.0000
  C   C253      1.0  0.98579  0.74387  0.31567  1.0000
  C   C254      1.0  0.93209  0.69113  0.34542  1.0000
  C   C255      1.0  0.96477  0.70819  0.30556  1.0000
  C   C256      1.0  0.52215  0.76153  0.31411  1.0000
  C   C257      1.0  0.54304  0.79717  0.30319  1.0000
  C   C258      1.0  0.57617  0.81432  0.34015  1.0000
  N   N73       1.0  0.97480  0.69088  0.25167  1.0000
  N   N74       1.0  0.53247  0.81439  0.25075  1.0000
  H   H164      1.0  0.49359  0.70277  0.21096  1.0000
  H   H165      1.0  0.96058  0.66713  0.23975  1.0000
  H   H166      1.0  0.54644  0.83814  0.23839  1.0000
  H   H167      1.0  0.63294  0.83405  0.42834  1.0000
  H   H168      1.0  0.87761  0.67215  0.44422  1.0000
  C   C259      1.0  0.76359  0.74413  0.30441  1.0000
  C   C260      1.0  0.81805  0.74459  0.31624  1.0000
  C   C261      1.0  0.79932  0.76036  0.28970  1.0000
  C   C262      1.0  0.74387  0.76071  0.30191  1.0000
  C   C263      1.0  0.70829  0.74436  0.28481  1.0000
  C   C264      1.0  0.68948  0.76059  0.30557  1.0000
  N   N75       1.0  0.81551  0.78946  0.24175  1.0000
  N   N76       1.0  0.69234  0.71472  0.23915  1.0000
  H   H169      1.0  0.80295  0.79714  0.20645  1.0000
  H   H170      1.0  0.83910  0.79980  0.22654  1.0000
  H   H171      1.0  0.66896  0.70460  0.22169  1.0000
  H   H172      1.0  0.70512  0.70668  0.20639  1.0000
  H   H173      1.0  0.66634  0.80295  0.32033  1.0000
  H   H174      1.0  0.84118  0.70280  0.34804  1.0000
  C   C265      1.0  0.76254  0.52082  0.32312  1.0000
  C   C266      1.0  0.76010  0.57241  0.35882  1.0000
  C   C267      1.0  0.74647  0.54060  0.31445  1.0000
  C   C268      1.0  0.74524  0.98456  0.32242  1.0000
  C   C269      1.0  0.76122  0.96475  0.31177  1.0000
  C   C270      1.0  0.74743  0.93253  0.35405  1.0000
  N   N77       1.0  0.71897  0.52953  0.26065  1.0000
  N   N78       1.0  0.78884  0.97627  0.25825  1.0000
  H   H175      1.0  0.71293  0.01113  0.21904  1.0000
  H   H176      1.0  0.70724  0.54191  0.25261  1.0000
  H   H177      1.0  0.80052  0.96391  0.24898  1.0000
  H   H178      1.0  0.79483  0.49489  0.21747  1.0000
  H   H179      1.0  0.71158  0.87755  0.45913  1.0000
  H   H180      1.0  0.79486  0.62525  0.47005  1.0000
  C   C271      1.0  0.60490  0.74446  0.25770  1.0000
  C   C272      1.0  0.63479  0.74390  0.24272  1.0000
  H   H181      1.0  0.64542  0.75055  0.18036  1.0000
  H   H182      1.0  0.59531  0.75113  0.20472  1.0000
  C   C273      1.0  0.75758  0.86499  0.25593  1.0000
  C   C274      1.0  0.75730  0.89523  0.26193  1.0000
  H   H183      1.0  0.74908  0.90255  0.20728  1.0000
  H   H184      1.0  0.74932  0.85189  0.19705  1.0000
  C   C275      1.0  0.65150  0.89230  0.27621  1.0000
  C   C276      1.0  0.62109  0.86221  0.26634  1.0000
  H   H185      1.0  0.61852  0.84735  0.21236  1.0000
  H   H186      1.0  0.66944  0.89800  0.22807  1.0000
  C   C277      1.0  0.90123  0.75774  0.26337  1.0000
  C   C278      1.0  0.87132  0.75830  0.24940  1.0000
  H   H187      1.0  0.85975  0.75041  0.18843  1.0000
  H   H188      1.0  0.91000  0.74980  0.21122  1.0000
  C   C279      1.0  0.75187  0.64140  0.26294  1.0000
  C   C280      1.0  0.75199  0.61107  0.26767  1.0000
  H   H189      1.0  0.76117  0.60448  0.21361  1.0000
  H   H190      1.0  0.76095  0.65522  0.20539  1.0000
  C   C281      1.0  0.85571  0.61440  0.27994  1.0000
  C   C282      1.0  0.88613  0.64454  0.27131  1.0000
  H   H191      1.0  0.88844  0.66013  0.21943  1.0000
  H   H192      1.0  0.83750  0.60948  0.23321  1.0000
  C   C283      1.0  0.96826  0.76126  0.33614  1.0000
  C   C284      1.0  0.93446  0.74527  0.36354  1.0000
  C   C285      1.0  0.91787  0.71021  0.38003  1.0000
  H   H193      1.0  0.98064  0.78673  0.34042  1.0000
  N   N79       1.0  0.88840  0.69534  0.42679  1.0000
  C   C286      1.0  0.59102  0.79538  0.37167  1.0000
  C   C287      1.0  0.57402  0.76017  0.35679  1.0000
  C   C288      1.0  0.53984  0.74416  0.33290  1.0000
  N   N80       1.0  0.62151  0.81065  0.41345  1.0000
  H   H194      1.0  0.52735  0.71873  0.33859  1.0000
  H   H195      1.0  0.63029  0.79819  0.44357  1.0000
  H   H196      1.0  0.88095  0.70845  0.45973  1.0000
  C   C289      1.0  0.74779  0.70977  0.32988  1.0000
  C   C290      1.0  0.76494  0.69189  0.34106  1.0000
  C   C291      1.0  0.80059  0.70978  0.33872  1.0000
  H   H197      1.0  0.72271  0.69683  0.34314  1.0000
  N   N81       1.0  0.81745  0.69301  0.35683  1.0000
  C   C292      1.0  0.70680  0.79570  0.32437  1.0000
  C   C293      1.0  0.74238  0.81341  0.33097  1.0000
  C   C294      1.0  0.75947  0.79525  0.32537  1.0000
  N   N82       1.0  0.68968  0.81266  0.33516  1.0000
  H   H198      1.0  0.78435  0.80814  0.34105  1.0000
  H   H199      1.0  0.70048  0.83592  0.35209  1.0000
  H   H200      1.0  0.80631  0.67008  0.37672  1.0000
  C   C295      1.0  0.79736  0.53945  0.34362  1.0000
  C   C296      1.0  0.81333  0.57276  0.37430  1.0000
  C   C297      1.0  0.79327  0.58727  0.39486  1.0000
  H   H201      1.0  0.81163  0.52828  0.34565  1.0000
  N   N83       1.0  0.80754  0.61560  0.44635  1.0000
  C   C298      1.0  0.71431  0.91754  0.39067  1.0000
  C   C299      1.0  0.69441  0.93247  0.37266  1.0000
  C   C300      1.0  0.71049  0.96595  0.34351  1.0000
  N   N84       1.0  0.69974  0.88869  0.44007  1.0000
  H   H202      1.0  0.69630  0.97720  0.34666  1.0000
  H   H203      1.0  0.67956  0.88241  0.47417  1.0000
  H   H204      1.0  0.82840  0.62248  0.47776  1.0000
  C   C301      1.0  0.65382  0.74240  0.31514  1.0000
  C   C302      1.0  0.63953  0.73690  0.40275  1.0000
  C   C303      1.0  0.60848  0.73631  0.41719  1.0000
  C   C304      1.0  0.59223  0.74285  0.34523  1.0000
  C   C305      1.0  0.59662  0.73194  0.50671  1.0000
  N   N85       1.0  0.61424  0.72861  0.57439  1.0000
  C   C306      1.0  0.64364  0.72964  0.55980  1.0000
  O   O19       1.0  0.56737  0.73016  0.52941  1.0000
  N   N86       1.0  0.65608  0.73388  0.47541  1.0000
  H   H205      1.0  0.65621  0.72705  0.61283  1.0000
  H   H206      1.0  0.67711  0.73395  0.46801  1.0000
  C   C307      1.0  0.76226  0.91191  0.34471  1.0000
  C   C308      1.0  0.77165  0.89940  0.42010  1.0000
  C   C309      1.0  0.76965  0.86733  0.41575  1.0000
  C   C310      1.0  0.76090  0.84909  0.33344  1.0000
  C   C311      1.0  0.77442  0.85467  0.49785  1.0000
  N   N87       1.0  0.78180  0.87290  0.57407  1.0000
  C   C312      1.0  0.78440  0.90336  0.57597  1.0000
  O   O20       1.0  0.77290  0.82477  0.50627  1.0000
  N   N88       1.0  0.77904  0.91620  0.50021  1.0000
  H   H207      1.0  0.78983  0.91622  0.63516  1.0000
  H   H208      1.0  0.78071  0.93807  0.50468  1.0000
  C   C313      1.0  0.59690  0.84987  0.33536  1.0000
  C   C314      1.0  0.60314  0.87020  0.41321  1.0000
  C   C315      1.0  0.63437  0.90099  0.42328  1.0000
  C   C316      1.0  0.65950  0.91166  0.35554  1.0000
  C   C317      1.0  0.63946  0.91834  0.50553  1.0000
  N   N89       1.0  0.61563  0.90618  0.56994  1.0000
  C   C318      1.0  0.58649  0.87718  0.55929  1.0000
  O   O21       1.0  0.66732  0.94779  0.52438  1.0000
  N   N90       1.0  0.58051  0.85943  0.48235  1.0000
  H   H209      1.0  0.56919  0.86883  0.60979  1.0000
  H   H210      1.0  0.55908  0.83874  0.47746  1.0000
  C   C319      1.0  0.85383  0.76237  0.32167  1.0000
  C   C320      1.0  0.86950  0.76984  0.40777  1.0000
  C   C321      1.0  0.90045  0.77008  0.42125  1.0000
  C   C322      1.0  0.91540  0.76158  0.34987  1.0000
  C   C323      1.0  0.91373  0.77666  0.50945  1.0000
  N   N91       1.0  0.89752  0.78228  0.57675  1.0000
  C   C324      1.0  0.86820  0.78152  0.56311  1.0000
  O   O22       1.0  0.94310  0.77853  0.53118  1.0000
  N   N92       1.0  0.85441  0.77523  0.48006  1.0000
  H   H211      1.0  0.85673  0.78589  0.61583  1.0000
  H   H212      1.0  0.83352  0.77547  0.47315  1.0000
  C   C325      1.0  0.74576  0.59344  0.34929  1.0000
  C   C326      1.0  0.73520  0.60508  0.42423  1.0000
  C   C327      1.0  0.73671  0.63693  0.42078  1.0000
  C   C328      1.0  0.74676  0.65619  0.34013  1.0000
  C   C329      1.0  0.72998  0.64841  0.50223  1.0000
  N   N93       1.0  0.72149  0.62937  0.57715  1.0000
  C   C330      1.0  0.71959  0.59920  0.57831  1.0000
  O   O23       1.0  0.73050  0.67784  0.51078  1.0000
  N   N94       1.0  0.72667  0.58745  0.50310  1.0000
  H   H213      1.0  0.71326  0.58570  0.63652  1.0000
  H   H214      1.0  0.72530  0.56570  0.50701  1.0000
  C   C331      1.0  0.91080  0.65571  0.33907  1.0000
  C   C332      1.0  0.90485  0.63434  0.41440  1.0000
  C   C333      1.0  0.87357  0.60356  0.42349  1.0000
  C   C334      1.0  0.84817  0.59392  0.35696  1.0000
  C   C335      1.0  0.86884  0.58514  0.50365  1.0000
  N   N95       1.0  0.89307  0.59634  0.56693  1.0000
  C   C336      1.0  0.92227  0.62535  0.55716  1.0000
  O   O24       1.0  0.84095  0.55560  0.52148  1.0000
  N   N96       1.0  0.92791  0.64410  0.48231  1.0000
  H   H215      1.0  0.93988  0.63294  0.60678  1.0000
  H   H216      1.0  0.94937  0.66477  0.47799  1.0000
