data_image0
_chemical_formula_structural       C4NC2OCH3NHNC2OCH3NHNC2OCH3NHC5H3C2O3C5H3C2O3CNCOCH3NHCNCOCH3NHCNCOCH3NHC4NC2OCH3NHNC2OCH3NHNC2OCH3NHC5H3C2O3C5H3C2O3CNCOCH3NHCNCOCH3NHCNCOCH3NHC4NC2OCH3NHNC2OCH3NHNC2OCH3NHC5H3C2O3C5H3C2O3CNCOCH3NHCNCOCH3NHCNCOCH3NHC4NC2OCH3NHNC2OCH3NHNC2OCH3NHC5H3C2O3C5H3C2O3CNCOCH3NHCNCOCH3NHCNCOCH3NH
_chemical_formula_sum              "C144 N48 O48 H120"
_cell_length_a       43.7294
_cell_length_b       43.7294
_cell_length_c       15.1064
_cell_angle_alpha    90
_cell_angle_beta     90
_cell_angle_gamma    120

_space_group_name_H-M_alt    "P 1"
_space_group_IT_number       1

loop_
  _space_group_symop_operation_xyz
  'x, y, z'

loop_
  _atom_site_type_symbol
  _atom_site_label
  _atom_site_symmetry_multiplicity
  _atom_site_fract_x
  _atom_site_fract_y
  _atom_site_fract_z
  _atom_site_occupancy
  C   C1        1.0  0.18547  0.31670  0.41465  1.0000
  C   C2        1.0  0.20960  0.30427  0.40393  1.0000
  C   C3        1.0  0.30395  0.17624  0.23794  1.0000
  C   C4        1.0  0.27979  0.18862  0.24864  1.0000
  N   N1        1.0  0.23547  0.22007  0.26848  1.0000
  C   C5        1.0  0.21293  0.23245  0.28109  1.0000
  C   C6        1.0  0.22237  0.26033  0.34217  1.0000
  O   O1        1.0  0.18223  0.21767  0.23343  1.0000
  C   C7        1.0  0.18673  0.23257  0.14622  1.0000
  H   H1        1.0  0.16113  0.21966  0.11325  1.0000
  H   H2        1.0  0.20500  0.22801  0.10660  1.0000
  H   H3        1.0  0.19610  0.26088  0.14899  1.0000
  N   N2        1.0  0.20087  0.27381  0.35918  1.0000
  H   H4        1.0  0.17788  0.26180  0.33059  1.0000
  N   N3        1.0  0.27114  0.01363  0.26865  1.0000
  C   C8        1.0  0.25876  0.47872  0.28127  1.0000
  C   C9        1.0  0.23088  0.46028  0.34232  1.0000
  O   O2        1.0  0.27355  0.46280  0.23363  1.0000
  C   C10       1.0  0.25866  0.45241  0.14640  1.0000
  H   H5        1.0  0.27157  0.43972  0.11345  1.0000
  H   H6        1.0  0.26322  0.47524  0.10678  1.0000
  H   H7        1.0  0.23035  0.43346  0.14917  1.0000
  N   N4        1.0  0.21739  0.42530  0.35934  1.0000
  H   H8        1.0  0.22941  0.41434  0.33074  1.0000
  N   N5        1.0  0.47756  0.25573  0.26863  1.0000
  C   C11       1.0  0.01247  0.27827  0.28126  1.0000
  C   C12       1.0  0.03090  0.26883  0.34234  1.0000
  O   O3        1.0  0.02839  0.30898  0.23361  1.0000
  C   C13       1.0  0.03879  0.30448  0.14639  1.0000
  H   H9        1.0  0.05148  0.33008  0.11343  1.0000
  H   H10       1.0  0.01595  0.28621  0.10676  1.0000
  H   H11       1.0  0.05773  0.29511  0.14916  1.0000
  N   N6        1.0  0.06588  0.29032  0.35934  1.0000
  H   H12       1.0  0.07686  0.31331  0.33075  1.0000
  C   C14       1.0  0.17448  0.36699  0.41467  1.0000
  C   C15       1.0  0.13784  0.34263  0.41691  1.0000
  C   C16       1.0  0.12418  0.30571  0.41470  1.0000
  C   C17       1.0  0.14855  0.29343  0.41684  1.0000
  C   C18       1.0  0.19775  0.35335  0.41692  1.0000
  H   H13       1.0  0.13915  0.26682  0.41680  1.0000
  H   H14       1.0  0.22436  0.37055  0.41680  1.0000
  H   H15       1.0  0.12063  0.35203  0.41693  1.0000
  C   C19       1.0  0.18691  0.40355  0.40399  1.0000
  C   C20       1.0  0.08762  0.28159  0.40403  1.0000
  O   O4        1.0  0.24403  0.32675  0.42387  1.0000
  O   O5        1.0  0.16444  0.41552  0.42391  1.0000
  O   O6        1.0  0.07567  0.24715  0.42393  1.0000
  C   C21       1.0  0.31497  0.12596  0.23799  1.0000
  C   C22       1.0  0.35161  0.15033  0.23569  1.0000
  C   C23       1.0  0.36524  0.18725  0.23791  1.0000
  C   C24       1.0  0.34087  0.19951  0.23575  1.0000
  C   C25       1.0  0.29168  0.13959  0.23578  1.0000
  H   H16       1.0  0.35026  0.22612  0.23575  1.0000
  H   H17       1.0  0.26508  0.12238  0.23582  1.0000
  H   H18       1.0  0.36882  0.14094  0.23572  1.0000
  C   C26       1.0  0.30256  0.08941  0.24870  1.0000
  C   C27       1.0  0.40180  0.21138  0.24860  1.0000
  O   O7        1.0  0.24538  0.16619  0.22844  1.0000
  O   O8        1.0  0.32501  0.07742  0.22861  1.0000
  O   O9        1.0  0.41374  0.24581  0.22870  1.0000
  C   C28       1.0  0.26705  0.23262  0.31020  1.0000
  N   N7        1.0  0.25395  0.27287  0.38388  1.0000
  C   C29       1.0  0.27649  0.26050  0.37126  1.0000
  O   O10       1.0  0.30719  0.27528  0.41893  1.0000
  C   C30       1.0  0.30269  0.26039  0.50615  1.0000
  H   H19       1.0  0.32828  0.27330  0.53912  1.0000
  H   H20       1.0  0.29332  0.23208  0.50338  1.0000
  H   H21       1.0  0.28441  0.26495  0.54576  1.0000
  N   N8        1.0  0.28854  0.21912  0.29323  1.0000
  H   H22       1.0  0.31152  0.23114  0.32187  1.0000
  C   C31       1.0  0.25859  0.03267  0.31034  1.0000
  N   N9        1.0  0.21832  0.47932  0.38402  1.0000
  C   C32       1.0  0.23070  0.01423  0.37139  1.0000
  O   O11       1.0  0.21592  0.03016  0.41905  1.0000
  C   C33       1.0  0.23081  0.04054  0.50627  1.0000
  H   H23       1.0  0.21790  0.05323  0.53924  1.0000
  H   H24       1.0  0.25912  0.05948  0.50351  1.0000
  H   H25       1.0  0.22625  0.01771  0.54589  1.0000
  N   N10       1.0  0.27208  0.06765  0.29335  1.0000
  H   H26       1.0  0.26006  0.07862  0.32195  1.0000
  C   C34       1.0  0.45852  0.22415  0.31034  1.0000
  N   N11       1.0  0.01187  0.23725  0.38406  1.0000
  C   C35       1.0  0.47695  0.21471  0.37142  1.0000
  O   O12       1.0  0.46103  0.18401  0.41908  1.0000
  C   C36       1.0  0.45063  0.18850  0.50629  1.0000
  H   H27       1.0  0.43795  0.16290  0.53925  1.0000
  H   H28       1.0  0.43169  0.19787  0.50351  1.0000
  H   H29       1.0  0.47346  0.20677  0.54592  1.0000
  N   N12       1.0  0.42354  0.20265  0.29331  1.0000
  H   H30       1.0  0.41257  0.17966  0.32192  1.0000
  C   C37       1.0  0.18547  0.81670  0.41465  1.0000
  C   C38       1.0  0.20960  0.80427  0.40393  1.0000
  C   C39       1.0  0.30395  0.67623  0.23794  1.0000
  C   C40       1.0  0.27979  0.68863  0.24864  1.0000
  N   N13       1.0  0.23547  0.72008  0.26848  1.0000
  C   C41       1.0  0.21293  0.73245  0.28109  1.0000
  C   C42       1.0  0.22237  0.76033  0.34217  1.0000
  O   O13       1.0  0.18223  0.71767  0.23343  1.0000
  C   C43       1.0  0.18673  0.73257  0.14622  1.0000
  H   H31       1.0  0.16113  0.71966  0.11325  1.0000
  H   H32       1.0  0.20500  0.72801  0.10660  1.0000
  H   H33       1.0  0.19610  0.76088  0.14899  1.0000
  N   N14       1.0  0.20087  0.77381  0.35918  1.0000
  H   H34       1.0  0.17788  0.76180  0.33059  1.0000
  N   N15       1.0  0.27114  0.51363  0.26865  1.0000
  C   C44       1.0  0.25876  0.97872  0.28127  1.0000
  C   C45       1.0  0.23087  0.96028  0.34232  1.0000
  O   O14       1.0  0.27355  0.96280  0.23363  1.0000
  C   C46       1.0  0.25866  0.95241  0.14640  1.0000
  H   H35       1.0  0.27158  0.93972  0.11345  1.0000
  H   H36       1.0  0.26323  0.97524  0.10678  1.0000
  H   H37       1.0  0.23035  0.93346  0.14917  1.0000
  N   N16       1.0  0.21739  0.92530  0.35934  1.0000
  H   H38       1.0  0.22941  0.91434  0.33074  1.0000
  N   N17       1.0  0.47756  0.75573  0.26863  1.0000
  C   C47       1.0  0.01247  0.77827  0.28126  1.0000
  C   C48       1.0  0.03090  0.76883  0.34234  1.0000
  O   O15       1.0  0.02839  0.80898  0.23361  1.0000
  C   C49       1.0  0.03879  0.80448  0.14639  1.0000
  H   H39       1.0  0.05147  0.83008  0.11343  1.0000
  H   H40       1.0  0.01595  0.78621  0.10676  1.0000
  H   H41       1.0  0.05773  0.79511  0.14916  1.0000
  N   N18       1.0  0.06588  0.79032  0.35934  1.0000
  H   H42       1.0  0.07686  0.81331  0.33075  1.0000
  C   C50       1.0  0.17448  0.86699  0.41467  1.0000
  C   C51       1.0  0.13784  0.84263  0.41691  1.0000
  C   C52       1.0  0.12418  0.80571  0.41470  1.0000
  C   C53       1.0  0.14855  0.79344  0.41684  1.0000
  C   C54       1.0  0.19775  0.85335  0.41692  1.0000
  H   H43       1.0  0.13915  0.76682  0.41680  1.0000
  H   H44       1.0  0.22436  0.87055  0.41680  1.0000
  H   H45       1.0  0.12063  0.85203  0.41693  1.0000
  C   C55       1.0  0.18691  0.90355  0.40399  1.0000
  C   C56       1.0  0.08762  0.78159  0.40403  1.0000
  O   O16       1.0  0.24403  0.82675  0.42387  1.0000
  O   O17       1.0  0.16444  0.91552  0.42391  1.0000
  O   O18       1.0  0.07567  0.74715  0.42393  1.0000
  C   C57       1.0  0.31496  0.62596  0.23799  1.0000
  C   C58       1.0  0.35161  0.65033  0.23569  1.0000
  C   C59       1.0  0.36524  0.68725  0.23791  1.0000
  C   C60       1.0  0.34087  0.69951  0.23575  1.0000
  C   C61       1.0  0.29168  0.63959  0.23578  1.0000
  H   H46       1.0  0.35026  0.72612  0.23575  1.0000
  H   H47       1.0  0.26507  0.62238  0.23582  1.0000
  H   H48       1.0  0.36882  0.64094  0.23573  1.0000
  C   C62       1.0  0.30257  0.58941  0.24870  1.0000
  C   C63       1.0  0.40180  0.71138  0.24860  1.0000
  O   O19       1.0  0.24538  0.66619  0.22844  1.0000
  O   O20       1.0  0.32500  0.57742  0.22861  1.0000
  O   O21       1.0  0.41375  0.74581  0.22870  1.0000
  C   C64       1.0  0.26705  0.73262  0.31020  1.0000
  N   N19       1.0  0.25395  0.77287  0.38388  1.0000
  C   C65       1.0  0.27649  0.76050  0.37126  1.0000
  O   O22       1.0  0.30719  0.77528  0.41893  1.0000
  C   C66       1.0  0.30269  0.76039  0.50615  1.0000
  H   H49       1.0  0.32828  0.77330  0.53912  1.0000
  H   H50       1.0  0.29332  0.73208  0.50338  1.0000
  H   H51       1.0  0.28441  0.76495  0.54576  1.0000
  N   N20       1.0  0.28854  0.71912  0.29323  1.0000
  H   H52       1.0  0.31152  0.73114  0.32187  1.0000
  C   C67       1.0  0.25859  0.53267  0.31034  1.0000
  N   N21       1.0  0.21833  0.97932  0.38402  1.0000
  C   C68       1.0  0.23070  0.51423  0.37139  1.0000
  O   O23       1.0  0.21592  0.53016  0.41905  1.0000
  C   C69       1.0  0.23081  0.54054  0.50627  1.0000
  H   H53       1.0  0.21790  0.55323  0.53924  1.0000
  H   H54       1.0  0.25912  0.55948  0.50351  1.0000
  H   H55       1.0  0.22625  0.51771  0.54589  1.0000
  N   N22       1.0  0.27209  0.56765  0.29335  1.0000
  H   H56       1.0  0.26006  0.57862  0.32195  1.0000
  C   C70       1.0  0.45852  0.72415  0.31034  1.0000
  N   N23       1.0  0.01187  0.73725  0.38406  1.0000
  C   C71       1.0  0.47695  0.71471  0.37142  1.0000
  O   O24       1.0  0.46103  0.68400  0.41908  1.0000
  C   C72       1.0  0.45063  0.68850  0.50629  1.0000
  H   H57       1.0  0.43795  0.66291  0.53925  1.0000
  H   H58       1.0  0.43169  0.69787  0.50351  1.0000
  H   H59       1.0  0.47346  0.70677  0.54592  1.0000
  N   N24       1.0  0.42354  0.70265  0.29331  1.0000
  H   H60       1.0  0.41257  0.67966  0.32192  1.0000
  C   C73       1.0  0.68547  0.31670  0.41465  1.0000
  C   C74       1.0  0.70960  0.30427  0.40393  1.0000
  C   C75       1.0  0.80395  0.17624  0.23794  1.0000
  C   C76       1.0  0.77979  0.18862  0.24864  1.0000
  N   N25       1.0  0.73547  0.22007  0.26848  1.0000
  C   C77       1.0  0.71293  0.23245  0.28109  1.0000
  C   C78       1.0  0.72237  0.26033  0.34217  1.0000
  O   O25       1.0  0.68223  0.21767  0.23343  1.0000
  C   C79       1.0  0.68673  0.23257  0.14622  1.0000
  H   H61       1.0  0.66113  0.21966  0.11325  1.0000
  H   H62       1.0  0.70500  0.22801  0.10660  1.0000
  H   H63       1.0  0.69610  0.26088  0.14899  1.0000
  N   N26       1.0  0.70087  0.27381  0.35918  1.0000
  H   H64       1.0  0.67788  0.26180  0.33059  1.0000
  N   N27       1.0  0.77114  0.01363  0.26865  1.0000
  C   C80       1.0  0.75876  0.47872  0.28127  1.0000
  C   C81       1.0  0.73088  0.46028  0.34232  1.0000
  O   O26       1.0  0.77355  0.46280  0.23363  1.0000
  C   C82       1.0  0.75866  0.45241  0.14640  1.0000
  H   H65       1.0  0.77157  0.43972  0.11345  1.0000
  H   H66       1.0  0.76323  0.47524  0.10678  1.0000
  H   H67       1.0  0.73035  0.43346  0.14917  1.0000
  N   N28       1.0  0.71739  0.42530  0.35934  1.0000
  H   H68       1.0  0.72941  0.41434  0.33074  1.0000
  N   N29       1.0  0.97756  0.25573  0.26863  1.0000
  C   C83       1.0  0.51247  0.27827  0.28126  1.0000
  C   C84       1.0  0.53090  0.26883  0.34234  1.0000
  O   O27       1.0  0.52840  0.30898  0.23361  1.0000
  C   C85       1.0  0.53879  0.30448  0.14639  1.0000
  H   H69       1.0  0.55148  0.33008  0.11343  1.0000
  H   H70       1.0  0.51595  0.28621  0.10676  1.0000
  H   H71       1.0  0.55773  0.29511  0.14916  1.0000
  N   N30       1.0  0.56588  0.29032  0.35934  1.0000
  H   H72       1.0  0.57686  0.31331  0.33075  1.0000
  C   C86       1.0  0.67448  0.36699  0.41467  1.0000
  C   C87       1.0  0.63784  0.34263  0.41691  1.0000
  C   C88       1.0  0.62418  0.30571  0.41470  1.0000
  C   C89       1.0  0.64855  0.29343  0.41684  1.0000
  C   C90       1.0  0.69775  0.35335  0.41692  1.0000
  H   H73       1.0  0.63915  0.26682  0.41680  1.0000
  H   H74       1.0  0.72436  0.37055  0.41680  1.0000
  H   H75       1.0  0.62063  0.35203  0.41693  1.0000
  C   C91       1.0  0.68691  0.40355  0.40399  1.0000
  C   C92       1.0  0.58762  0.28159  0.40403  1.0000
  O   O28       1.0  0.74403  0.32675  0.42387  1.0000
  O   O29       1.0  0.66444  0.41552  0.42391  1.0000
  O   O30       1.0  0.57567  0.24715  0.42393  1.0000
  C   C93       1.0  0.81497  0.12596  0.23799  1.0000
  C   C94       1.0  0.85161  0.15033  0.23569  1.0000
  C   C95       1.0  0.86524  0.18725  0.23791  1.0000
  C   C96       1.0  0.84087  0.19951  0.23575  1.0000
  C   C97       1.0  0.79168  0.13959  0.23578  1.0000
  H   H76       1.0  0.85026  0.22612  0.23575  1.0000
  H   H77       1.0  0.76507  0.12238  0.23582  1.0000
  H   H78       1.0  0.86882  0.14094  0.23572  1.0000
  C   C98       1.0  0.80257  0.08941  0.24870  1.0000
  C   C99       1.0  0.90180  0.21138  0.24860  1.0000
  O   O31       1.0  0.74538  0.16619  0.22844  1.0000
  O   O32       1.0  0.82501  0.07742  0.22861  1.0000
  O   O33       1.0  0.91375  0.24581  0.22870  1.0000
  C   C100      1.0  0.76705  0.23262  0.31020  1.0000
  N   N31       1.0  0.75395  0.27287  0.38388  1.0000
  C   C101      1.0  0.77649  0.26050  0.37126  1.0000
  O   O34       1.0  0.80719  0.27528  0.41893  1.0000
  C   C102      1.0  0.80269  0.26039  0.50615  1.0000
  H   H79       1.0  0.82828  0.27330  0.53912  1.0000
  H   H80       1.0  0.79332  0.23208  0.50338  1.0000
  H   H81       1.0  0.78442  0.26495  0.54576  1.0000
  N   N32       1.0  0.78854  0.21912  0.29323  1.0000
  H   H82       1.0  0.81152  0.23114  0.32187  1.0000
  C   C103      1.0  0.75859  0.03267  0.31034  1.0000
  N   N33       1.0  0.71833  0.47932  0.38402  1.0000
  C   C104      1.0  0.73070  0.01423  0.37139  1.0000
  O   O35       1.0  0.71592  0.03016  0.41905  1.0000
  C   C105      1.0  0.73081  0.04054  0.50627  1.0000
  H   H83       1.0  0.71790  0.05323  0.53924  1.0000
  H   H84       1.0  0.75912  0.05948  0.50351  1.0000
  H   H85       1.0  0.72625  0.01771  0.54589  1.0000
  N   N34       1.0  0.77209  0.06765  0.29335  1.0000
  H   H86       1.0  0.76006  0.07862  0.32195  1.0000
  C   C106      1.0  0.95852  0.22415  0.31034  1.0000
  N   N35       1.0  0.51187  0.23725  0.38406  1.0000
  C   C107      1.0  0.97695  0.21471  0.37142  1.0000
  O   O36       1.0  0.96103  0.18401  0.41908  1.0000
  C   C108      1.0  0.95063  0.18850  0.50629  1.0000
  H   H87       1.0  0.93795  0.16290  0.53925  1.0000
  H   H88       1.0  0.93169  0.19787  0.50351  1.0000
  H   H89       1.0  0.97347  0.20677  0.54592  1.0000
  N   N36       1.0  0.92354  0.20265  0.29331  1.0000
  H   H90       1.0  0.91257  0.17966  0.32192  1.0000
  C   C109      1.0  0.68547  0.81670  0.41465  1.0000
  C   C110      1.0  0.70960  0.80427  0.40393  1.0000
  C   C111      1.0  0.80395  0.67623  0.23794  1.0000
  C   C112      1.0  0.77979  0.68863  0.24864  1.0000
  N   N37       1.0  0.73547  0.72008  0.26848  1.0000
  C   C113      1.0  0.71293  0.73245  0.28109  1.0000
  C   C114      1.0  0.72237  0.76033  0.34217  1.0000
  O   O37       1.0  0.68223  0.71767  0.23343  1.0000
  C   C115      1.0  0.68673  0.73257  0.14622  1.0000
  H   H91       1.0  0.66113  0.71966  0.11325  1.0000
  H   H92       1.0  0.70500  0.72801  0.10660  1.0000
  H   H93       1.0  0.69610  0.76088  0.14899  1.0000
  N   N38       1.0  0.70087  0.77381  0.35918  1.0000
  H   H94       1.0  0.67788  0.76180  0.33059  1.0000
  N   N39       1.0  0.77114  0.51363  0.26865  1.0000
  C   C116      1.0  0.75876  0.97872  0.28127  1.0000
  C   C117      1.0  0.73088  0.96028  0.34232  1.0000
  O   O38       1.0  0.77355  0.96280  0.23363  1.0000
  C   C118      1.0  0.75866  0.95241  0.14640  1.0000
  H   H95       1.0  0.77157  0.93972  0.11345  1.0000
  H   H96       1.0  0.76323  0.97524  0.10678  1.0000
  H   H97       1.0  0.73035  0.93346  0.14917  1.0000
  N   N40       1.0  0.71739  0.92530  0.35934  1.0000
  H   H98       1.0  0.72941  0.91434  0.33074  1.0000
  N   N41       1.0  0.97756  0.75573  0.26863  1.0000
  C   C119      1.0  0.51247  0.77827  0.28126  1.0000
  C   C120      1.0  0.53090  0.76883  0.34234  1.0000
  O   O39       1.0  0.52839  0.80898  0.23361  1.0000
  C   C121      1.0  0.53879  0.80448  0.14639  1.0000
  H   H99       1.0  0.55148  0.83008  0.11343  1.0000
  H   H100      1.0  0.51595  0.78621  0.10676  1.0000
  H   H101      1.0  0.55773  0.79511  0.14916  1.0000
  N   N42       1.0  0.56588  0.79032  0.35934  1.0000
  H   H102      1.0  0.57686  0.81331  0.33075  1.0000
  C   C122      1.0  0.67448  0.86699  0.41467  1.0000
  C   C123      1.0  0.63784  0.84263  0.41691  1.0000
  C   C124      1.0  0.62418  0.80571  0.41470  1.0000
  C   C125      1.0  0.64855  0.79344  0.41684  1.0000
  C   C126      1.0  0.69775  0.85335  0.41692  1.0000
  H   H103      1.0  0.63915  0.76682  0.41680  1.0000
  H   H104      1.0  0.72436  0.87055  0.41680  1.0000
  H   H105      1.0  0.62063  0.85203  0.41693  1.0000
  C   C127      1.0  0.68691  0.90355  0.40399  1.0000
  C   C128      1.0  0.58762  0.78159  0.40403  1.0000
  O   O40       1.0  0.74403  0.82675  0.42387  1.0000
  O   O41       1.0  0.66444  0.91552  0.42391  1.0000
  O   O42       1.0  0.57567  0.74715  0.42393  1.0000
  C   C129      1.0  0.81497  0.62596  0.23799  1.0000
  C   C130      1.0  0.85160  0.65033  0.23569  1.0000
  C   C131      1.0  0.86524  0.68725  0.23791  1.0000
  C   C132      1.0  0.84087  0.69951  0.23575  1.0000
  C   C133      1.0  0.79168  0.63959  0.23578  1.0000
  H   H106      1.0  0.85026  0.72612  0.23575  1.0000
  H   H107      1.0  0.76507  0.62238  0.23582  1.0000
  H   H108      1.0  0.86882  0.64094  0.23573  1.0000
  C   C134      1.0  0.80257  0.58941  0.24870  1.0000
  C   C135      1.0  0.90180  0.71138  0.24860  1.0000
  O   O43       1.0  0.74538  0.66619  0.22844  1.0000
  O   O44       1.0  0.82500  0.57742  0.22861  1.0000
  O   O45       1.0  0.91375  0.74581  0.22870  1.0000
  C   C136      1.0  0.76705  0.73262  0.31020  1.0000
  N   N43       1.0  0.75395  0.77287  0.38388  1.0000
  C   C137      1.0  0.77649  0.76050  0.37126  1.0000
  O   O46       1.0  0.80719  0.77528  0.41893  1.0000
  C   C138      1.0  0.80269  0.76039  0.50615  1.0000
  H   H109      1.0  0.82829  0.77330  0.53912  1.0000
  H   H110      1.0  0.79332  0.73208  0.50338  1.0000
  H   H111      1.0  0.78441  0.76495  0.54576  1.0000
  N   N44       1.0  0.78854  0.71912  0.29323  1.0000
  H   H112      1.0  0.81152  0.73114  0.32187  1.0000
  C   C139      1.0  0.75859  0.53267  0.31034  1.0000
  N   N45       1.0  0.71833  0.97932  0.38402  1.0000
  C   C140      1.0  0.73070  0.51423  0.37139  1.0000
  O   O47       1.0  0.71592  0.53016  0.41905  1.0000
  C   C141      1.0  0.73081  0.54054  0.50627  1.0000
  H   H113      1.0  0.71791  0.55323  0.53924  1.0000
  H   H114      1.0  0.75913  0.55948  0.50351  1.0000
  H   H115      1.0  0.72625  0.51771  0.54589  1.0000
  N   N46       1.0  0.77209  0.56765  0.29335  1.0000
  H   H116      1.0  0.76006  0.57862  0.32195  1.0000
  C   C142      1.0  0.95852  0.72415  0.31034  1.0000
  N   N47       1.0  0.51187  0.73725  0.38406  1.0000
  C   C143      1.0  0.97695  0.71471  0.37142  1.0000
  O   O48       1.0  0.96103  0.68400  0.41908  1.0000
  C   C144      1.0  0.95063  0.68850  0.50629  1.0000
  H   H117      1.0  0.93795  0.66291  0.53925  1.0000
  H   H118      1.0  0.93169  0.69787  0.50351  1.0000
  H   H119      1.0  0.97346  0.70677  0.54592  1.0000
  N   N48       1.0  0.92354  0.70265  0.29331  1.0000
  H   H120      1.0  0.91257  0.67966  0.32192  1.0000
