data_image0
_chemical_formula_structural       C3NC3NC5NC4NC35H25C2HC6H3C4HC6H3C18H17C2NCNC2H3CH3CN2C2H3CH3
_chemical_formula_sum              "C96 N8 H62"
_cell_length_a       34.1445
_cell_length_b       34.1441
_cell_length_c       14.8694
_cell_angle_alpha    90
_cell_angle_beta     90
_cell_angle_gamma    90.0629

_space_group_name_H-M_alt    "P 1"
_space_group_IT_number       1

loop_
  _space_group_symop_operation_xyz
  'x, y, z'

loop_
  _atom_site_type_symbol
  _atom_site_label
  _atom_site_symmetry_multiplicity
  _atom_site_fract_x
  _atom_site_fract_y
  _atom_site_fract_z
  _atom_site_occupancy
  C   C1        1.0  0.89964  0.93122  0.34018  1.0000
  C   C2        1.0  0.92815  0.90258  0.33978  1.0000
  C   C3        1.0  0.96479  0.92086  0.34009  1.0000
  N   N1        1.0  0.95703  0.95984  0.33976  1.0000
  C   C4        1.0  0.91808  0.96778  0.33955  1.0000
  C   C5        1.0  0.89829  0.00451  0.33937  1.0000
  C   C6        1.0  0.91734  0.04157  0.33937  1.0000
  N   N2        1.0  0.95624  0.04912  0.33936  1.0000
  C   C7        1.0  0.96397  0.08799  0.33922  1.0000
  C   C8        1.0  0.92756  0.10661  0.33948  1.0000
  C   C9        1.0  0.89890  0.07808  0.33883  1.0000
  C   C10       1.0  0.00111  0.10686  0.33939  1.0000
  C   C11       1.0  0.03774  0.08689  0.33964  1.0000
  N   N3        1.0  0.04550  0.04790  0.33978  1.0000
  C   C12       1.0  0.08445  0.03996  0.33968  1.0000
  C   C13       1.0  0.10290  0.07652  0.33989  1.0000
  C   C14       1.0  0.07440  0.10515  0.33913  1.0000
  C   C15       1.0  0.10424  0.00324  0.33991  1.0000
  N   N4        1.0  0.04630  0.95864  0.34010  1.0000
  C   C16       1.0  0.03858  0.91977  0.34007  1.0000
  C   C17       1.0  0.07499  0.90115  0.34062  1.0000
  C   C18       1.0  0.10366  0.92968  0.33999  1.0000
  C   C19       1.0  0.00143  0.90091  0.34007  1.0000
  C   C20       1.0  0.00102  0.85902  0.33995  1.0000
  C   C21       1.0  0.00893  0.83786  0.26037  1.0000
  C   C22       1.0  0.00922  0.79661  0.26072  1.0000
  C   C23       1.0  0.00117  0.77516  0.34020  1.0000
  C   C24       1.0  0.00168  0.73321  0.34066  1.0000
  C   C25       1.0  0.03307  0.67082  0.29992  1.0000
  C   C26       1.0  0.03216  0.71205  0.29812  1.0000
  C   C27       1.0  0.14614  0.00349  0.33963  1.0000
  C   C28       1.0  0.16714  0.01169  0.25994  1.0000
  C   C29       1.0  0.20839  0.01218  0.25992  1.0000
  C   C30       1.0  0.22999  0.00401  0.33909  1.0000
  C   C31       1.0  0.27193  0.00447  0.33908  1.0000
  C   C32       1.0  0.29311  0.03506  0.29684  1.0000
  C   C33       1.0  0.33435  0.03591  0.29826  1.0000
  C   C34       1.0  0.35594  0.00620  0.34214  1.0000
  C   C35       1.0  0.00158  0.14875  0.33952  1.0000
  C   C36       1.0  0.00265  0.23259  0.33990  1.0000
  C   C37       1.0  0.99369  0.21132  0.26070  1.0000
  C   C38       1.0  0.99343  0.17007  0.26026  1.0000
  C   C39       1.0  0.00317  0.27451  0.34030  1.0000
  C   C40       1.0  0.97274  0.29644  0.29972  1.0000
  C   C41       1.0  0.97300  0.33770  0.30134  1.0000
  C   C42       1.0  0.00373  0.35851  0.34360  1.0000
  C   C43       1.0  0.85640  0.00430  0.33939  1.0000
  C   C44       1.0  0.83525  0.99616  0.25988  1.0000
  C   C45       1.0  0.79399  0.99626  0.25992  1.0000
  C   C46       1.0  0.77256  0.00505  0.33897  1.0000
  C   C47       1.0  0.73063  0.00563  0.33888  1.0000
  C   C48       1.0  0.64662  0.00628  0.34145  1.0000
  C   C49       1.0  0.66741  0.97565  0.29890  1.0000
  C   C50       1.0  0.70866  0.97535  0.29760  1.0000
  H   H1        1.0  0.65261  0.95288  0.26963  1.0000
  H   H2        1.0  0.72255  0.95216  0.26794  1.0000
  H   H3        1.0  0.77971  0.99073  0.20076  1.0000
  H   H4        1.0  0.84978  0.99018  0.20125  1.0000
  H   H5        1.0  0.87022  0.92565  0.34056  1.0000
  H   H6        1.0  0.92245  0.87319  0.33954  1.0000
  H   H7        1.0  0.97696  0.97969  0.33956  1.0000
  H   H8        1.0  0.02556  0.02806  0.33993  1.0000
  H   H9        1.0  0.86949  0.08360  0.33834  1.0000
  H   H10       1.0  0.92218  0.13604  0.33985  1.0000
  H   H11       1.0  0.98720  0.15565  0.20160  1.0000
  H   H12       1.0  0.98806  0.22572  0.20176  1.0000
  H   H13       1.0  0.08012  0.13454  0.33847  1.0000
  H   H14       1.0  0.13231  0.08209  0.34026  1.0000
  H   H15       1.0  0.13307  0.92417  0.33964  1.0000
  H   H16       1.0  0.15250  0.01744  0.20134  1.0000
  H   H17       1.0  0.22255  0.01786  0.20069  1.0000
  H   H18       1.0  0.34854  0.05889  0.26826  1.0000
  H   H19       1.0  0.27864  0.05765  0.26624  1.0000
  H   H20       1.0  0.05466  0.72655  0.26708  1.0000
  H   H21       1.0  0.05595  0.65667  0.26961  1.0000
  H   H22       1.0  0.01479  0.78233  0.20159  1.0000
  H   H23       1.0  0.01474  0.85238  0.20162  1.0000
  H   H24       1.0  0.94951  0.28252  0.27017  1.0000
  H   H25       1.0  0.95015  0.35246  0.27247  1.0000
  C   C51       1.0  0.00407  0.54550  0.26001  1.0000
  C   C52       1.0  0.00419  0.58685  0.26298  1.0000
  H   H26       1.0  0.00368  0.60219  0.20375  1.0000
  C   C53       1.0  0.00374  0.48313  0.34219  1.0000
  C   C54       1.0  0.00397  0.40032  0.34476  1.0000
  C   C55       1.0  0.00412  0.42097  0.26213  1.0000
  C   C56       1.0  0.00403  0.46233  0.25960  1.0000
  C   C57       1.0  0.00421  0.48339  0.17785  1.0000
  C   C58       1.0  0.00410  0.52460  0.17806  1.0000
  H   H27       1.0  0.00436  0.46890  0.11758  1.0000
  H   H28       1.0  0.00425  0.53919  0.11793  1.0000
  H   H29       1.0  0.00465  0.40569  0.20281  1.0000
  C   C59       1.0  0.39774  0.00706  0.34344  1.0000
  C   C60       1.0  0.48059  0.00652  0.34001  1.0000
  C   C61       1.0  0.45964  0.00691  0.25764  1.0000
  C   C62       1.0  0.41829  0.00706  0.26062  1.0000
  H   H30       1.0  0.40294  0.00669  0.20139  1.0000
  C   C63       1.0  0.52200  0.00635  0.33983  1.0000
  C   C64       1.0  0.60481  0.00651  0.34251  1.0000
  C   C65       1.0  0.58417  0.00686  0.25986  1.0000
  C   C66       1.0  0.54282  0.00681  0.25727  1.0000
  C   C67       1.0  0.52177  0.00717  0.17551  1.0000
  C   C68       1.0  0.48055  0.00710  0.17570  1.0000
  H   H31       1.0  0.53626  0.00744  0.11526  1.0000
  H   H32       1.0  0.46596  0.00738  0.11557  1.0000
  H   H33       1.0  0.59947  0.00750  0.20057  1.0000
  C   C69       1.0  0.08521  0.96618  0.34024  1.0000
  C   C70       1.0  0.99294  0.79666  0.41949  1.0000
  C   C71       1.0  0.99309  0.83791  0.41962  1.0000
  C   C72       1.0  0.97185  0.71140  0.38405  1.0000
  C   C73       1.0  0.97254  0.67016  0.38523  1.0000
  C   C74       1.0  0.00351  0.64921  0.34443  1.0000
  C   C75       1.0  0.20866  0.99559  0.41852  1.0000
  C   C76       1.0  0.16741  0.99555  0.41903  1.0000
  C   C77       1.0  0.33496  0.97512  0.38257  1.0000
  C   C78       1.0  0.29372  0.97447  0.38174  1.0000
  C   C79       1.0  0.01022  0.16973  0.41899  1.0000
  C   C80       1.0  0.01100  0.21096  0.41893  1.0000
  C   C81       1.0  0.03462  0.33676  0.38237  1.0000
  C   C82       1.0  0.03417  0.29552  0.38141  1.0000
  C   C83       1.0  0.83527  0.01269  0.41875  1.0000
  C   C84       1.0  0.79403  0.01328  0.41831  1.0000
  C   C85       1.0  0.70966  0.03655  0.38016  1.0000
  C   C86       1.0  0.66842  0.03704  0.38080  1.0000
  H   H34       1.0  0.65440  0.06038  0.40951  1.0000
  H   H35       1.0  0.72429  0.05956  0.40880  1.0000
  H   H36       1.0  0.77977  0.01918  0.47730  1.0000
  H   H37       1.0  0.84980  0.01864  0.47741  1.0000
  H   H38       1.0  0.01610  0.15507  0.47752  1.0000
  H   H39       1.0  0.01698  0.22511  0.47803  1.0000
  H   H40       1.0  0.08037  0.87172  0.34107  1.0000
  H   H41       1.0  0.15298  0.98965  0.47785  1.0000
  H   H42       1.0  0.22301  0.99016  0.47763  1.0000
  H   H43       1.0  0.27970  0.95134  0.41146  1.0000
  H   H44       1.0  0.34962  0.95266  0.41326  1.0000
  H   H45       1.0  0.98748  0.85246  0.47841  1.0000
  H   H46       1.0  0.98767  0.78242  0.47884  1.0000
  H   H47       1.0  0.95019  0.65548  0.41639  1.0000
  H   H48       1.0  0.94880  0.72540  0.41406  1.0000
  H   H49       1.0  0.05727  0.28091  0.40957  1.0000
  H   H50       1.0  0.05801  0.35080  0.41088  1.0000
  C   C87       1.0  0.00436  0.60740  0.34578  1.0000
  C   C88       1.0  0.00475  0.58486  0.42641  1.0000
  N   N5        1.0  0.00436  0.54509  0.42054  1.0000
  C   C89       1.0  0.00386  0.52455  0.34237  1.0000
  N   N6        1.0  0.00306  0.46248  0.42019  1.0000
  C   C90       1.0  0.00314  0.42268  0.42556  1.0000
  C   C91       1.0  0.00752  0.60069  0.51896  1.0000
  H   H51       1.0  0.01202  0.63226  0.52078  1.0000
  H   H52       1.0  0.03220  0.58716  0.55373  1.0000
  H   H53       1.0  0.98070  0.59381  0.55564  1.0000
  C   C92       1.0  0.00034  0.40533  0.51664  1.0000
  H   H54       1.0  0.99677  0.42788  0.56811  1.0000
  H   H55       1.0  0.02685  0.38895  0.53226  1.0000
  H   H56       1.0  0.97513  0.38571  0.52026  1.0000
  C   C93       1.0  0.42029  0.00726  0.42406  1.0000
  N   N7        1.0  0.46006  0.00686  0.41817  1.0000
  N   N8        1.0  0.54263  0.00550  0.41784  1.0000
  C   C94       1.0  0.58243  0.00553  0.42327  1.0000
  C   C95       1.0  0.40447  0.00984  0.51665  1.0000
  H   H57       1.0  0.37291  0.01435  0.51853  1.0000
  H   H58       1.0  0.41807  0.03445  0.55170  1.0000
  H   H59       1.0  0.41128  0.98294  0.55301  1.0000
  C   C96       1.0  0.59973  0.00252  0.51437  1.0000
  H   H60       1.0  0.57715  0.99882  0.56573  1.0000
  H   H61       1.0  0.61616  0.02899  0.53036  1.0000
  H   H62       1.0  0.61930  0.97731  0.51771  1.0000
