data_image0
_chemical_formula_structural       C3NH2C2HOCHC4NOCHCH2CHC3NH2C6N2H4C6N2H4C2H2C2H2C2H2CHC2H2C2H2C2H2C2H2C2H2C2H2C2H2C3H2C3H2C3H2C3H2C3H2C6H2NO2C8H3NO2C6H3C8H3NO2C8H3NO2C8H3NO2
_chemical_formula_sum              "C108 N12 H66 O12"
_cell_length_a       31.6725
_cell_length_b       31.6725
_cell_length_c       14.8292
_cell_angle_alpha    90
_cell_angle_beta     90
_cell_angle_gamma    120

_space_group_name_H-M_alt    "P 1"
_space_group_IT_number       1

loop_
  _space_group_symop_operation_xyz
  'x, y, z'

loop_
  _atom_site_type_symbol
  _atom_site_label
  _atom_site_symmetry_multiplicity
  _atom_site_fract_x
  _atom_site_fract_y
  _atom_site_fract_z
  _atom_site_occupancy
  C   C1        1.0  0.03535  0.52024  0.33089  1.0000
  C   C2        1.0  0.06282  0.57149  0.30911  1.0000
  C   C3        1.0  0.11382  0.59887  0.32876  1.0000
  N   N1        1.0  0.04233  0.59448  0.26450  1.0000
  H   H1        1.0  0.06147  0.62841  0.24594  1.0000
  H   H2        1.0  0.01079  0.57595  0.23553  1.0000
  C   C4        1.0  0.11386  0.52341  0.36670  1.0000
  C   C5        1.0  0.06251  0.49798  0.36086  1.0000
  H   H3        1.0  0.04492  0.46199  0.37870  1.0000
  O   O1        1.0  0.10042  0.67675  0.51192  1.0000
  C   C6        1.0  0.14658  0.47511  0.29952  1.0000
  H   H4        1.0  0.12355  0.46703  0.24563  1.0000
  C   C7        1.0  0.13850  0.57413  0.35445  1.0000
  C   C8        1.0  0.14242  0.50021  0.37481  1.0000
  C   C9        1.0  0.14335  0.65089  0.32800  1.0000
  C   C10       1.0  0.15144  0.67736  0.40959  1.0000
  N   N2        1.0  0.12101  0.65397  0.48481  1.0000
  O   O2        1.0  0.14460  0.64992  0.54913  1.0000
  C   C11       1.0  0.18593  0.46633  0.29183  1.0000
  H   H5        1.0  0.18908  0.45058  0.23386  1.0000
  C   C12       1.0  0.17570  0.67371  0.25514  1.0000
  H   H6        1.0  0.17258  0.65434  0.19776  1.0000
  H   H7        1.0  0.17574  0.59344  0.36184  1.0000
  C   C13       1.0  0.17757  0.51406  0.44414  1.0000
  H   H8        1.0  0.17738  0.53475  0.49706  1.0000
  C   C14       1.0  0.98189  0.49123  0.33096  1.0000
  C   C15       1.0  0.90342  0.41261  0.32888  1.0000
  C   C16       1.0  0.95441  0.43998  0.30911  1.0000
  N   N3        1.0  0.97496  0.41702  0.26458  1.0000
  H   H9        1.0  0.00630  0.43571  0.23505  1.0000
  H   H10       1.0  0.95556  0.38322  0.24538  1.0000
  C   C17       1.0  0.52314  0.49355  0.33107  1.0000
  C   C18       1.0  0.60172  0.49363  0.32875  1.0000
  C   C19       1.0  0.57437  0.51729  0.30910  1.0000
  C   C20       1.0  0.49415  0.51802  0.33105  1.0000
  C   C21       1.0  0.44291  0.49428  0.30917  1.0000
  C   C22       1.0  0.41556  0.51792  0.32886  1.0000
  N   N4        1.0  0.59735  0.56083  0.26462  1.0000
  N   N5        1.0  0.41993  0.45081  0.26452  1.0000
  H   H11       1.0  0.57867  0.57352  0.23520  1.0000
  H   H12       1.0  0.63114  0.57521  0.24537  1.0000
  H   H13       1.0  0.38600  0.43604  0.24593  1.0000
  H   H14       1.0  0.43845  0.43779  0.23558  1.0000
  C   C23       1.0  0.52089  0.03250  0.33093  1.0000
  C   C24       1.0  0.52078  0.11099  0.32880  1.0000
  C   C25       1.0  0.49715  0.06000  0.30906  1.0000
  C   C26       1.0  0.49644  0.97904  0.33097  1.0000
  C   C27       1.0  0.52021  0.95156  0.30912  1.0000
  C   C28       1.0  0.49657  0.90056  0.32882  1.0000
  N   N6        1.0  0.45364  0.03949  0.26452  1.0000
  N   N7        1.0  0.56375  0.97210  0.26467  1.0000
  H   H15       1.0  0.44089  0.00808  0.23522  1.0000
  H   H16       1.0  0.43902  0.05873  0.24558  1.0000
  H   H17       1.0  0.57817  0.95273  0.24542  1.0000
  H   H18       1.0  0.57635  0.00343  0.23512  1.0000
  C   C29       1.0  0.29312  0.49747  0.26351  1.0000
  C   C30       1.0  0.34064  0.50485  0.25499  1.0000
  H   H19       1.0  0.27960  0.50843  0.21147  1.0000
  H   H20       1.0  0.36000  0.52118  0.19765  1.0000
  C   C31       1.0  0.51684  0.79849  0.26371  1.0000
  C   C32       1.0  0.50953  0.83868  0.25514  1.0000
  H   H21       1.0  0.50582  0.77400  0.21169  1.0000
  H   H22       1.0  0.49315  0.84169  0.19784  1.0000
  C   C33       1.0  0.53918  0.67428  0.29978  1.0000
  C   C34       1.0  0.54789  0.72238  0.29193  1.0000
  H   H23       1.0  0.54705  0.65926  0.24572  1.0000
  H   H24       1.0  0.56353  0.74121  0.23384  1.0000
  C   C35       1.0  0.21585  0.72123  0.26358  1.0000
  H   H25       1.0  0.24029  0.73470  0.21149  1.0000
  C   C36       1.0  0.34009  0.86770  0.29941  1.0000
  C   C37       1.0  0.29194  0.82839  0.29173  1.0000
  H   H26       1.0  0.35502  0.89072  0.24549  1.0000
  H   H27       1.0  0.27305  0.82520  0.23371  1.0000
  C   C38       1.0  0.72416  0.51402  0.26348  1.0000
  C   C39       1.0  0.67663  0.50661  0.25496  1.0000
  H   H28       1.0  0.73769  0.50311  0.21139  1.0000
  H   H29       1.0  0.65729  0.49040  0.19753  1.0000
  C   C40       1.0  0.87065  0.53629  0.29961  1.0000
  C   C41       1.0  0.83131  0.54507  0.29183  1.0000
  H   H30       1.0  0.89371  0.54441  0.24575  1.0000
  H   H31       1.0  0.82819  0.56087  0.23389  1.0000
  C   C42       1.0  0.50038  0.21302  0.26354  1.0000
  C   C43       1.0  0.50774  0.17287  0.25498  1.0000
  H   H32       1.0  0.51137  0.23752  0.21154  1.0000
  H   H33       1.0  0.52409  0.16986  0.19765  1.0000
  C   C44       1.0  0.47809  0.33724  0.29969  1.0000
  C   C45       1.0  0.46931  0.28912  0.29188  1.0000
  H   H34       1.0  0.47007  0.35223  0.24578  1.0000
  H   H35       1.0  0.45362  0.27027  0.23383  1.0000
  C   C46       1.0  0.80136  0.29027  0.26372  1.0000
  C   C47       1.0  0.84154  0.33778  0.25522  1.0000
  H   H36       1.0  0.77688  0.27682  0.21168  1.0000
  H   H37       1.0  0.84455  0.35717  0.19793  1.0000
  C   C48       1.0  0.67717  0.14370  0.29960  1.0000
  C   C49       1.0  0.72528  0.18309  0.29183  1.0000
  H   H38       1.0  0.66216  0.12082  0.24553  1.0000
  H   H39       1.0  0.74413  0.18629  0.23377  1.0000
  C   C50       1.0  0.95474  0.51349  0.36100  1.0000
  C   C51       1.0  0.90341  0.48806  0.36702  1.0000
  C   C52       1.0  0.87876  0.43734  0.35470  1.0000
  H   H40       1.0  0.97234  0.54948  0.37885  1.0000
  H   H41       1.0  0.84151  0.41804  0.36203  1.0000
  C   C53       1.0  0.50086  0.44414  0.36107  1.0000
  C   C54       1.0  0.52626  0.41819  0.36688  1.0000
  C   C55       1.0  0.57697  0.44422  0.35443  1.0000
  H   H42       1.0  0.46488  0.42577  0.37902  1.0000
  H   H43       1.0  0.59626  0.42626  0.36178  1.0000
  C   C56       1.0  0.44030  0.56732  0.35461  1.0000
  C   C57       1.0  0.49102  0.59337  0.36696  1.0000
  C   C58       1.0  0.51643  0.56742  0.36108  1.0000
  H   H44       1.0  0.42101  0.58527  0.36201  1.0000
  H   H45       1.0  0.55242  0.58580  0.37897  1.0000
  C   C59       1.0  0.57030  0.05964  0.36095  1.0000
  C   C60       1.0  0.59625  0.11099  0.36675  1.0000
  C   C61       1.0  0.57019  0.13565  0.35450  1.0000
  H   H46       1.0  0.58870  0.04204  0.37884  1.0000
  H   H47       1.0  0.58814  0.17290  0.36185  1.0000
  C   C62       1.0  0.44715  0.87589  0.35448  1.0000
  C   C63       1.0  0.42108  0.90054  0.36669  1.0000
  C   C64       1.0  0.44701  0.95189  0.36085  1.0000
  H   H48       1.0  0.42921  0.83864  0.36182  1.0000
  H   H49       1.0  0.42860  0.96949  0.37870  1.0000
  C   C65       1.0  0.36354  0.49548  0.32787  1.0000
  C   C66       1.0  0.33714  0.47717  0.40957  1.0000
  C   C67       1.0  0.28914  0.46953  0.41672  1.0000
  C   C68       1.0  0.26681  0.48094  0.34540  1.0000
  C   C69       1.0  0.22249  0.48214  0.35912  1.0000
  C   C70       1.0  0.21656  0.50480  0.43675  1.0000
  H   H50       1.0  0.24313  0.51907  0.48518  1.0000
  H   H51       1.0  0.27140  0.45799  0.47718  1.0000
  N   N8        1.0  0.36054  0.47016  0.48483  1.0000
  O   O3        1.0  0.36458  0.49784  0.54910  1.0000
  O   O4        1.0  0.33778  0.42681  0.51201  1.0000
  C   C71       1.0  0.51904  0.87101  0.32801  1.0000
  C   C72       1.0  0.53742  0.86296  0.40964  1.0000
  C   C73       1.0  0.54501  0.82258  0.41677  1.0000
  C   C74       1.0  0.53348  0.78878  0.34553  1.0000
  C   C75       1.0  0.53225  0.74325  0.35930  1.0000
  C   C76       1.0  0.50964  0.71469  0.43699  1.0000
  C   C77       1.0  0.50047  0.66649  0.44460  1.0000
  C   C78       1.0  0.51422  0.64511  0.37530  1.0000
  H   H52       1.0  0.49559  0.72712  0.48563  1.0000
  H   H53       1.0  0.47986  0.64567  0.49764  1.0000
  H   H54       1.0  0.55662  0.81641  0.47720  1.0000
  N   N9        1.0  0.54450  0.89343  0.48482  1.0000
  O   O5        1.0  0.51687  0.86986  0.54918  1.0000
  O   O6        1.0  0.58787  0.91402  0.51189  1.0000
  C   C79       1.0  0.19183  0.72533  0.41670  1.0000
  C   C80       1.0  0.22561  0.74757  0.34542  1.0000
  C   C81       1.0  0.27113  0.79188  0.35911  1.0000
  C   C82       1.0  0.29974  0.79784  0.43674  1.0000
  C   C83       1.0  0.34798  0.83681  0.44409  1.0000
  C   C84       1.0  0.36934  0.87199  0.37483  1.0000
  H   H55       1.0  0.28732  0.77136  0.48536  1.0000
  H   H56       1.0  0.36878  0.83713  0.49727  1.0000
  H   H57       1.0  0.19803  0.74311  0.47713  1.0000
  C   C85       1.0  0.65373  0.51606  0.32777  1.0000
  C   C86       1.0  0.68013  0.53437  0.40948  1.0000
  C   C87       1.0  0.72811  0.54196  0.41667  1.0000
  C   C88       1.0  0.75044  0.53054  0.34538  1.0000
  C   C89       1.0  0.79478  0.52939  0.35917  1.0000
  C   C90       1.0  0.80069  0.50672  0.43683  1.0000
  C   C91       1.0  0.83965  0.49741  0.44424  1.0000
  C   C92       1.0  0.87483  0.51125  0.37499  1.0000
  H   H58       1.0  0.77413  0.49249  0.48528  1.0000
  H   H59       1.0  0.83984  0.47680  0.49730  1.0000
  H   H60       1.0  0.74585  0.55355  0.47713  1.0000
  N   N10       1.0  0.65674  0.54143  0.48470  1.0000
  O   O7        1.0  0.65266  0.51376  0.54901  1.0000
  O   O8        1.0  0.67952  0.58479  0.51183  1.0000
  C   C93       1.0  0.49833  0.14056  0.32782  1.0000
  C   C94       1.0  0.48000  0.14863  0.40951  1.0000
  C   C95       1.0  0.47237  0.18899  0.41669  1.0000
  C   C96       1.0  0.48382  0.22277  0.34542  1.0000
  C   C97       1.0  0.48502  0.26829  0.35919  1.0000
  C   C98       1.0  0.50761  0.29682  0.43693  1.0000
  C   C99       1.0  0.51685  0.34506  0.44440  1.0000
  C   C100      1.0  0.50306  0.36645  0.37516  1.0000
  H   H61       1.0  0.52183  0.28448  0.48536  1.0000
  H   H62       1.0  0.53750  0.36589  0.49739  1.0000
  H   H63       1.0  0.46080  0.19517  0.47716  1.0000
  N   N11       1.0  0.47297  0.11820  0.48474  1.0000
  O   O9        1.0  0.50062  0.14180  0.54905  1.0000
  O   O10       1.0  0.42960  0.09759  0.51187  1.0000
  C   C101      1.0  0.87389  0.36059  0.32808  1.0000
  C   C102      1.0  0.86581  0.33412  0.40965  1.0000
  C   C103      1.0  0.82544  0.28613  0.41675  1.0000
  C   C104      1.0  0.79164  0.26388  0.34550  1.0000
  C   C105      1.0  0.74611  0.21959  0.35922  1.0000
  C   C106      1.0  0.71754  0.21364  0.43689  1.0000
  C   C107      1.0  0.66933  0.17462  0.44445  1.0000
  C   C108      1.0  0.64800  0.13953  0.37506  1.0000
  H   H64       1.0  0.72995  0.24011  0.48553  1.0000
  H   H65       1.0  0.64848  0.17439  0.49746  1.0000
  H   H66       1.0  0.81927  0.26835  0.47717  1.0000
  N   N12       1.0  0.89627  0.35748  0.48487  1.0000
  O   O11       1.0  0.87269  0.36151  0.54923  1.0000
  O   O12       1.0  0.91687  0.33470  0.51189  1.0000
