data_image0
_chemical_formula_structural       CNC2NC4NC18H14C2NC16H12C3NC2NC5NC4NC18H14CNC16H12C11H11CNCNC4NC16H13CNCHNHCNCHNHCNCHNHCNCHNHCNCHNHCNCHNHCNCHNHCNCHNHCNCHNHCNCHNHCNCHNHCNCHNHC7NC12H12C2NC3NC3NC18H14C12H12C3NC3NC3NC18H14C3NC3NC2NC5NC20H15C8NC14H13C4HC6HOHOHC4HC6HOHOHC4HC6HOHOHC4HC6HOHOHC4HC6HOHOHC4HC6HOHOHC4HC6HOHOHC4HC6HOHOHC4HC6HOHOHC4HC6HOHOHC4HC6HOHOHC4HC6HOHOH
_chemical_formula_sum              "C408 N48 H228 O24"
_cell_length_a       68.4952
_cell_length_b       68.4951
_cell_length_c       15.0145
_cell_angle_alpha    90.0014
_cell_angle_beta     89.9712
_cell_angle_gamma    120

_space_group_name_H-M_alt    "P 1"
_space_group_IT_number       1

loop_
  _space_group_symop_operation_xyz
  'x, y, z'

loop_
  _atom_site_type_symbol
  _atom_site_label
  _atom_site_symmetry_multiplicity
  _atom_site_fract_x
  _atom_site_fract_y
  _atom_site_fract_z
  _atom_site_occupancy
  C   C1        1.0  0.27338  0.51141  0.32335  1.0000
  N   N1        1.0  0.26586  0.47637  0.32356  1.0000
  C   C2        1.0  0.28870  0.48899  0.32379  1.0000
  C   C3        1.0  0.30522  0.48214  0.32444  1.0000
  N   N2        1.0  0.27965  0.44045  0.32501  1.0000
  C   C4        1.0  0.28118  0.42152  0.32698  1.0000
  C   C5        1.0  0.30421  0.42880  0.32998  1.0000
  C   C6        1.0  0.31587  0.45201  0.32706  1.0000
  C   C7        1.0  0.26335  0.39873  0.32649  1.0000
  N   N3        1.0  0.22992  0.40468  0.32581  1.0000
  C   C8        1.0  0.20710  0.39206  0.32599  1.0000
  C   C9        1.0  0.22237  0.36962  0.32379  1.0000
  C   C10       1.0  0.21457  0.45958  0.32601  1.0000
  C   C11       1.0  0.23238  0.48235  0.32626  1.0000
  C   C12       1.0  0.22645  0.49961  0.33159  1.0000
  C   C13       1.0  0.21572  0.50386  0.26007  1.0000
  C   C14       1.0  0.21041  0.52119  0.26556  1.0000
  C   C15       1.0  0.21648  0.53568  0.34072  1.0000
  C   C16       1.0  0.15657  0.36760  0.25825  1.0000
  C   C17       1.0  0.13359  0.35114  0.26288  1.0000
  C   C18       1.0  0.26938  0.38153  0.32710  1.0000
  C   C19       1.0  0.28376  0.34864  0.33192  1.0000
  C   C20       1.0  0.28821  0.36307  0.25741  1.0000
  C   C21       1.0  0.28069  0.37876  0.25390  1.0000
  C   C22       1.0  0.32847  0.49933  0.32565  1.0000
  C   C23       1.0  0.33840  0.51366  0.25165  1.0000
  C   C24       1.0  0.36074  0.53166  0.25577  1.0000
  C   C25       1.0  0.37443  0.53550  0.33212  1.0000
  H   H1        1.0  0.36650  0.54241  0.20264  1.0000
  H   H2        1.0  0.32907  0.51175  0.19569  1.0000
  H   H3        1.0  0.27228  0.52574  0.32276  1.0000
  H   H4        1.0  0.25774  0.46019  0.32383  1.0000
  H   H5        1.0  0.23803  0.42086  0.32750  1.0000
  H   H6        1.0  0.33305  0.46165  0.32746  1.0000
  H   H7        1.0  0.31169  0.41913  0.33308  1.0000
  H   H8        1.0  0.28450  0.38892  0.19906  1.0000
  H   H9        1.0  0.29771  0.36301  0.20509  1.0000
  H   H10       1.0  0.22348  0.35530  0.32232  1.0000
  H   H11       1.0  0.16536  0.36902  0.20114  1.0000
  H   H12       1.0  0.12664  0.34087  0.20889  1.0000
  H   H13       1.0  0.20209  0.52311  0.21283  1.0000
  H   H14       1.0  0.21157  0.49424  0.20353  1.0000
  C   C26       1.0  0.54344  0.76175  0.32345  1.0000
  C   C27       1.0  0.56586  0.79948  0.32413  1.0000
  N   N4        1.0  0.61439  0.83897  0.32556  1.0000
  C   C28       1.0  0.63332  0.85943  0.32754  1.0000
  C   C29       1.0  0.62604  0.87518  0.33061  1.0000
  C   C30       1.0  0.60283  0.86364  0.32781  1.0000
  C   C31       1.0  0.65611  0.86440  0.32694  1.0000
  C   C32       1.0  0.66279  0.81482  0.32633  1.0000
  C   C33       1.0  0.68522  0.85253  0.32411  1.0000
  C   C34       1.0  0.59527  0.75477  0.32651  1.0000
  C   C35       1.0  0.55101  0.71164  0.26050  1.0000
  C   C36       1.0  0.53367  0.68899  0.26598  1.0000
  C   C37       1.0  0.68727  0.78875  0.25863  1.0000
  C   C38       1.0  0.70372  0.78223  0.26327  1.0000
  C   C39       1.0  0.67331  0.88763  0.32753  1.0000
  C   C40       1.0  0.69178  0.92490  0.25774  1.0000
  C   C41       1.0  0.67610  0.90170  0.25428  1.0000
  C   C42       1.0  0.54120  0.82451  0.25216  1.0000
  C   C43       1.0  0.52322  0.82887  0.25619  1.0000
  H   H15       1.0  0.51250  0.82391  0.20299  1.0000
  H   H16       1.0  0.54316  0.81713  0.19615  1.0000
  H   H17       1.0  0.52911  0.74631  0.32314  1.0000
  H   H18       1.0  0.59318  0.87117  0.32814  1.0000
  H   H19       1.0  0.63571  0.89234  0.33368  1.0000
  H   H20       1.0  0.66592  0.89534  0.19951  1.0000
  H   H21       1.0  0.69182  0.93446  0.20548  1.0000
  H   H22       1.0  0.69955  0.86796  0.32293  1.0000
  H   H23       1.0  0.68586  0.79612  0.20151  1.0000
  H   H24       1.0  0.71401  0.78555  0.20927  1.0000
  H   H25       1.0  0.53177  0.67876  0.21325  1.0000
  H   H26       1.0  0.56064  0.71711  0.20396  1.0000
  C   C44       1.0  0.27296  0.76138  0.32428  1.0000
  C   C45       1.0  0.29309  0.78146  0.32278  1.0000
  C   C46       1.0  0.28841  0.79912  0.32407  1.0000
  N   N5        1.0  0.26558  0.78899  0.32314  1.0000
  C   C47       1.0  0.25536  0.76615  0.32333  1.0000
  C   C48       1.0  0.23199  0.74963  0.32408  1.0000
  N   N6        1.0  0.21587  0.77520  0.32462  1.0000
  C   C49       1.0  0.19542  0.77367  0.32657  1.0000
  C   C50       1.0  0.17966  0.75064  0.32962  1.0000
  C   C51       1.0  0.19121  0.73898  0.32682  1.0000
  C   C52       1.0  0.19045  0.79150  0.32601  1.0000
  C   C53       1.0  0.20702  0.81484  0.32495  1.0000
  N   N7        1.0  0.22984  0.82493  0.32530  1.0000
  C   C54       1.0  0.24004  0.84775  0.32547  1.0000
  C   C55       1.0  0.22247  0.85257  0.32553  1.0000
  C   C56       1.0  0.20233  0.83249  0.32328  1.0000
  C   C57       1.0  0.26339  0.86420  0.32652  1.0000
  N   N8        1.0  0.27960  0.83870  0.32457  1.0000
  C   C58       1.0  0.30009  0.84028  0.32580  1.0000
  C   C59       1.0  0.30504  0.82246  0.32600  1.0000
  C   C60       1.0  0.32822  0.82838  0.33143  1.0000
  C   C61       1.0  0.34325  0.83915  0.26000  1.0000
  C   C62       1.0  0.36589  0.84447  0.26561  1.0000
  C   C63       1.0  0.37426  0.83837  0.34081  1.0000
  C   C64       1.0  0.26951  0.88741  0.33100  1.0000
  C   C65       1.0  0.26613  0.89831  0.25778  1.0000
  C   C66       1.0  0.27264  0.92128  0.26247  1.0000
  C   C67       1.0  0.28363  0.93449  0.33873  1.0000
  C   C68       1.0  0.16722  0.78547  0.32663  1.0000
  C   C69       1.0  0.11996  0.77108  0.33149  1.0000
  C   C70       1.0  0.12995  0.76666  0.25694  1.0000
  C   C71       1.0  0.15315  0.77417  0.25344  1.0000
  C   C72       1.0  0.22593  0.72638  0.32531  1.0000
  C   C73       1.0  0.23034  0.71646  0.25129  1.0000
  C   C74       1.0  0.22602  0.69413  0.25546  1.0000
  C   C75       1.0  0.21614  0.68041  0.33179  1.0000
  H   H27       1.0  0.23099  0.68837  0.20229  1.0000
  H   H28       1.0  0.23778  0.72581  0.19535  1.0000
  H   H29       1.0  0.30853  0.78256  0.32246  1.0000
  H   H30       1.0  0.25752  0.79710  0.32367  1.0000
  H   H31       1.0  0.23790  0.81682  0.32669  1.0000
  H   H32       1.0  0.18367  0.72180  0.32715  1.0000
  H   H33       1.0  0.16250  0.74316  0.33269  1.0000
  H   H34       1.0  0.15952  0.77036  0.19862  1.0000
  H   H35       1.0  0.12039  0.75714  0.20470  1.0000
  H   H36       1.0  0.18690  0.83138  0.32196  1.0000
  H   H37       1.0  0.25879  0.88954  0.20063  1.0000
  H   H38       1.0  0.26934  0.92825  0.20848  1.0000
  H   H39       1.0  0.37615  0.85282  0.21295  1.0000
  H   H40       1.0  0.33781  0.84332  0.20344  1.0000
  C   C76       1.0  0.78458  0.54743  0.32440  1.0000
  N   N9        1.0  0.79363  0.59597  0.32581  1.0000
  C   C77       1.0  0.79210  0.61490  0.32774  1.0000
  C   C78       1.0  0.76907  0.60763  0.33073  1.0000
  C   C79       1.0  0.75741  0.58442  0.32792  1.0000
  C   C80       1.0  0.80994  0.63769  0.32718  1.0000
  C   C81       1.0  0.86618  0.64436  0.32646  1.0000
  C   C82       1.0  0.85092  0.66680  0.32447  1.0000
  C   C83       1.0  0.85870  0.57683  0.32659  1.0000
  C   C84       1.0  0.85757  0.53256  0.26063  1.0000
  C   C85       1.0  0.86288  0.51523  0.26614  1.0000
  C   C86       1.0  0.91671  0.66881  0.25846  1.0000
  C   C87       1.0  0.93969  0.68528  0.26300  1.0000
  C   C88       1.0  0.80390  0.65489  0.32776  1.0000
  C   C89       1.0  0.78509  0.67335  0.25799  1.0000
  C   C90       1.0  0.79264  0.65769  0.25446  1.0000
  C   C91       1.0  0.73489  0.52277  0.25235  1.0000
  C   C92       1.0  0.71256  0.50478  0.25644  1.0000
  H   H41       1.0  0.70681  0.49404  0.20330  1.0000
  H   H42       1.0  0.74424  0.52469  0.19639  1.0000
  H   H43       1.0  0.80098  0.51068  0.32337  1.0000
  H   H44       1.0  0.74023  0.57477  0.32805  1.0000
  H   H45       1.0  0.76159  0.61730  0.33365  1.0000
  H   H46       1.0  0.78881  0.64749  0.19973  1.0000
  H   H47       1.0  0.77559  0.67340  0.20570  1.0000
  H   H48       1.0  0.84981  0.68113  0.32320  1.0000
  H   H49       1.0  0.90792  0.66739  0.20139  1.0000
  H   H50       1.0  0.94663  0.69555  0.20897  1.0000
  H   H51       1.0  0.87122  0.51333  0.21343  1.0000
  H   H52       1.0  0.86173  0.54219  0.20409  1.0000
  C   C93       1.0  0.43996  0.17698  0.32801  1.0000
  C   C94       1.0  0.44723  0.16122  0.33102  1.0000
  C   C95       1.0  0.47044  0.17277  0.32817  1.0000
  C   C96       1.0  0.52230  0.32478  0.26108  1.0000
  C   C97       1.0  0.53963  0.34743  0.26656  1.0000
  C   C98       1.0  0.38606  0.24768  0.25888  1.0000
  C   C99       1.0  0.36960  0.25420  0.26339  1.0000
  C   C100      1.0  0.38153  0.11154  0.25796  1.0000
  C   C101      1.0  0.39722  0.13474  0.25462  1.0000
  C   C102      1.0  0.53209  0.21190  0.25272  1.0000
  C   C103      1.0  0.55008  0.20756  0.25677  1.0000
  H   H53       1.0  0.56083  0.21255  0.20362  1.0000
  H   H54       1.0  0.53018  0.21933  0.19677  1.0000
  H   H55       1.0  0.54417  0.29009  0.32381  1.0000
  H   H56       1.0  0.48009  0.16524  0.32858  1.0000
  H   H57       1.0  0.40741  0.14113  0.19985  1.0000
  H   H58       1.0  0.38150  0.10201  0.20560  1.0000
  H   H59       1.0  0.37373  0.16846  0.32317  1.0000
  H   H60       1.0  0.38750  0.24031  0.20181  1.0000
  H   H61       1.0  0.35934  0.25087  0.20935  1.0000
  H   H62       1.0  0.54155  0.35766  0.21381  1.0000
  H   H63       1.0  0.51269  0.31932  0.20454  1.0000
  C   C104      1.0  0.78018  0.25495  0.32338  1.0000
  N   N10       1.0  0.80770  0.24742  0.32371  1.0000
  C   C105      1.0  0.81791  0.27026  0.32392  1.0000
  N   N11       1.0  0.85740  0.26122  0.32531  1.0000
  C   C106      1.0  0.87786  0.26275  0.32729  1.0000
  C   C107      1.0  0.89361  0.28578  0.33032  1.0000
  C   C108      1.0  0.88207  0.29744  0.32750  1.0000
  C   C109      1.0  0.88282  0.24492  0.32673  1.0000
  N   N12       1.0  0.84345  0.21149  0.32595  1.0000
  C   C110      1.0  0.83325  0.18867  0.32615  1.0000
  C   C111      1.0  0.87095  0.20394  0.32393  1.0000
  C   C112      1.0  0.77319  0.19613  0.32645  1.0000
  C   C113      1.0  0.76824  0.21395  0.32668  1.0000
  C   C114      1.0  0.73005  0.19727  0.26066  1.0000
  C   C115      1.0  0.70741  0.19196  0.26626  1.0000
  C   C116      1.0  0.69901  0.19805  0.34146  1.0000
  C   C117      1.0  0.80718  0.13813  0.25845  1.0000
  C   C118      1.0  0.80066  0.11515  0.26308  1.0000
  C   C119      1.0  0.90606  0.25095  0.32733  1.0000
  C   C120      1.0  0.95332  0.26534  0.33208  1.0000
  C   C121      1.0  0.94334  0.26976  0.25755  1.0000
  C   C122      1.0  0.92014  0.26225  0.25408  1.0000
  C   C123      1.0  0.84734  0.31004  0.32595  1.0000
  C   C124      1.0  0.84294  0.31996  0.25197  1.0000
  C   C125      1.0  0.84729  0.34230  0.25605  1.0000
  H   H64       1.0  0.84232  0.34807  0.20288  1.0000
  H   H65       1.0  0.83555  0.31063  0.19596  1.0000
  H   H66       1.0  0.76474  0.25384  0.32313  1.0000
  H   H67       1.0  0.81576  0.23931  0.32438  1.0000
  H   H68       1.0  0.88960  0.31462  0.32781  1.0000
  H   H69       1.0  0.91077  0.29326  0.33339  1.0000
  H   H70       1.0  0.91378  0.26607  0.19930  1.0000
  H   H71       1.0  0.95290  0.27929  0.20528  1.0000
  H   H72       1.0  0.88639  0.20505  0.32275  1.0000
  H   H73       1.0  0.81455  0.14692  0.20133  1.0000
  H   H74       1.0  0.80399  0.10820  0.20907  1.0000
  H   H75       1.0  0.69716  0.18363  0.21359  1.0000
  H   H76       1.0  0.73551  0.19311  0.20409  1.0000
  C   C126      1.0  0.20961  0.64461  0.26056  1.0000
  N   N13       1.0  0.20863  0.62441  0.26632  1.0000
  C   C127      1.0  0.21232  0.56589  0.26466  1.0000
  H   H77       1.0  0.20828  0.64994  0.19857  1.0000
  N   N14       1.0  0.21078  0.58482  0.26831  1.0000
  H   H78       1.0  0.21416  0.56073  0.20308  1.0000
  C   C128      1.0  0.41025  0.56478  0.26090  1.0000
  N   N15       1.0  0.43045  0.58400  0.26667  1.0000
  C   C129      1.0  0.48898  0.64620  0.26504  1.0000
  H   H79       1.0  0.40493  0.55812  0.19891  1.0000
  N   N16       1.0  0.47004  0.62573  0.26868  1.0000
  H   H80       1.0  0.49414  0.65322  0.20346  1.0000
  C   C130      1.0  0.49011  0.84528  0.26119  1.0000
  N   N17       1.0  0.47089  0.84626  0.26687  1.0000
  C   C131      1.0  0.40869  0.84260  0.26492  1.0000
  H   H81       1.0  0.49681  0.84665  0.19923  1.0000
  N   N18       1.0  0.42916  0.84412  0.26867  1.0000
  H   H82       1.0  0.40171  0.84075  0.20331  1.0000
  C   C132      1.0  0.86369  0.39182  0.26116  1.0000
  N   N19       1.0  0.86468  0.41202  0.26692  1.0000
  C   C133      1.0  0.86099  0.47055  0.26527  1.0000
  H   H83       1.0  0.86505  0.38650  0.19918  1.0000
  N   N20       1.0  0.86253  0.45161  0.26891  1.0000
  H   H84       1.0  0.85916  0.47571  0.20368  1.0000
  C   C134      1.0  0.66304  0.47166  0.26155  1.0000
  N   N21       1.0  0.64284  0.45244  0.26731  1.0000
  C   C135      1.0  0.58433  0.39022  0.26566  1.0000
  H   H85       1.0  0.66838  0.47833  0.19955  1.0000
  N   N22       1.0  0.60326  0.41069  0.26929  1.0000
  H   H86       1.0  0.57917  0.38322  0.20408  1.0000
  C   C136      1.0  0.58319  0.19115  0.26177  1.0000
  N   N23       1.0  0.60241  0.19017  0.26746  1.0000
  C   C137      1.0  0.66461  0.19385  0.26554  1.0000
  H   H87       1.0  0.57651  0.18980  0.19981  1.0000
  N   N24       1.0  0.64414  0.19231  0.26928  1.0000
  H   H88       1.0  0.67161  0.19570  0.20393  1.0000
  C   C138      1.0  0.08314  0.32795  0.26263  1.0000
  N   N25       1.0  0.06040  0.31519  0.26627  1.0000
  C   C139      1.0  0.99086  0.27934  0.25916  1.0000
  H   H89       1.0  0.09013  0.33420  0.20181  1.0000
  N   N26       1.0  0.01360  0.28982  0.26442  1.0000
  H   H90       1.0  0.98399  0.27580  0.19690  1.0000
  C   C140      1.0  0.72691  0.75497  0.26302  1.0000
  N   N27       1.0  0.73966  0.74498  0.26667  1.0000
  C   C141      1.0  0.77551  0.71129  0.25957  1.0000
  H   H91       1.0  0.72066  0.75570  0.20221  1.0000
  N   N28       1.0  0.76503  0.72355  0.26483  1.0000
  H   H92       1.0  0.77907  0.70796  0.19731  1.0000
  C   C142      1.0  0.29986  0.97173  0.26237  1.0000
  N   N29       1.0  0.30986  0.99447  0.26612  1.0000
  C   C143      1.0  0.34358  0.06402  0.25929  1.0000
  H   H93       1.0  0.29919  0.96477  0.20156  1.0000
  N   N30       1.0  0.33131  0.04127  0.26445  1.0000
  H   H94       1.0  0.34693  0.07092  0.19706  1.0000
  C   C144      1.0  0.99013  0.70847  0.26253  1.0000
  N   N31       1.0  0.01287  0.72122  0.26608  1.0000
  C   C145      1.0  0.08242  0.75707  0.25870  1.0000
  H   H95       1.0  0.98314  0.70220  0.20175  1.0000
  N   N32       1.0  0.05967  0.74658  0.26404  1.0000
  H   H96       1.0  0.08929  0.76060  0.19641  1.0000
  C   C146      1.0  0.34640  0.28145  0.26291  1.0000
  N   N33       1.0  0.33364  0.29143  0.26646  1.0000
  C   C147      1.0  0.29779  0.32513  0.25910  1.0000
  H   H97       1.0  0.35268  0.28072  0.20213  1.0000
  N   N34       1.0  0.30827  0.31286  0.26443  1.0000
  H   H98       1.0  0.29426  0.32846  0.19682  1.0000
  C   C148      1.0  0.77340  0.06470  0.26281  1.0000
  N   N35       1.0  0.76342  0.04197  0.26646  1.0000
  C   C149      1.0  0.72972  0.97242  0.25934  1.0000
  H   H99       1.0  0.77414  0.07170  0.20201  1.0000
  N   N36       1.0  0.74198  0.99517  0.26461  1.0000
  H   H100      1.0  0.72640  0.96555  0.19708  1.0000
  C   C150      1.0  0.29347  0.51136  0.32477  1.0000
  C   C151      1.0  0.25572  0.48907  0.32447  1.0000
  C   C152      1.0  0.30016  0.45933  0.32555  1.0000
  C   C153      1.0  0.24002  0.39196  0.32547  1.0000
  C   C154      1.0  0.20228  0.36967  0.32603  1.0000
  C   C155      1.0  0.19065  0.39897  0.32705  1.0000
  C   C156      1.0  0.19567  0.42178  0.32623  1.0000
  N   N37       1.0  0.21615  0.44068  0.32493  1.0000
  C   C157      1.0  0.19155  0.45231  0.32845  1.0000
  C   C158      1.0  0.17993  0.42909  0.32667  1.0000
  C   C159      1.0  0.22730  0.53113  0.41186  1.0000
  C   C160      1.0  0.23170  0.51318  0.40846  1.0000
  C   C161      1.0  0.16744  0.38188  0.33149  1.0000
  C   C162      1.0  0.12035  0.34893  0.33909  1.0000
  C   C163      1.0  0.13158  0.36349  0.41193  1.0000
  C   C164      1.0  0.15475  0.37928  0.40917  1.0000
  C   C165      1.0  0.26477  0.36736  0.40178  1.0000
  C   C166      1.0  0.27131  0.35089  0.40295  1.0000
  C   C167      1.0  0.34186  0.50281  0.40195  1.0000
  C   C168      1.0  0.36451  0.52018  0.40408  1.0000
  H   H101      1.0  0.37356  0.52152  0.46009  1.0000
  H   H102      1.0  0.33521  0.49263  0.45659  1.0000
  H   H103      1.0  0.30892  0.52565  0.32638  1.0000
  H   H104      1.0  0.25647  0.36884  0.45579  1.0000
  H   H105      1.0  0.26690  0.34067  0.45759  1.0000
  H   H106      1.0  0.18681  0.35540  0.32682  1.0000
  H   H107      1.0  0.18405  0.46198  0.33065  1.0000
  H   H108      1.0  0.16275  0.41941  0.32717  1.0000
  H   H109      1.0  0.16210  0.38957  0.46299  1.0000
  H   H110      1.0  0.12295  0.36343  0.46755  1.0000
  H   H111      1.0  0.23970  0.51071  0.46119  1.0000
  H   H112      1.0  0.23296  0.54131  0.46664  1.0000
  C   C169      1.0  0.54349  0.78188  0.32501  1.0000
  C   C170      1.0  0.56578  0.76643  0.32477  1.0000
  N   N38       1.0  0.57848  0.78927  0.32389  1.0000
  C   C171      1.0  0.57270  0.82285  0.32500  1.0000
  C   C172      1.0  0.59551  0.84060  0.32619  1.0000
  C   C173      1.0  0.66289  0.84784  0.32583  1.0000
  N   N39       1.0  0.65016  0.82502  0.32614  1.0000
  C   C174      1.0  0.68517  0.83239  0.32641  1.0000
  C   C175      1.0  0.65588  0.79146  0.32738  1.0000
  C   C176      1.0  0.63307  0.77367  0.32665  1.0000
  N   N40       1.0  0.61417  0.77525  0.32537  1.0000
  C   C177      1.0  0.60254  0.73902  0.32892  1.0000
  C   C178      1.0  0.62576  0.75062  0.32720  1.0000
  C   C179      1.0  0.57249  0.74981  0.32671  1.0000
  C   C180      1.0  0.55523  0.72662  0.33201  1.0000
  C   C181      1.0  0.51917  0.68058  0.34113  1.0000
  C   C182      1.0  0.52367  0.69596  0.41221  1.0000
  C   C183      1.0  0.54166  0.71829  0.40891  1.0000
  C   C184      1.0  0.67297  0.78535  0.33185  1.0000
  C   C185      1.0  0.70591  0.77120  0.33948  1.0000
  C   C186      1.0  0.69135  0.76790  0.41235  1.0000
  C   C187      1.0  0.67555  0.77526  0.40953  1.0000
  C   C188      1.0  0.68747  0.89720  0.40219  1.0000
  C   C189      1.0  0.70393  0.92021  0.40333  1.0000
  C   C190      1.0  0.70619  0.93489  0.33225  1.0000
  C   C191      1.0  0.55551  0.82891  0.32618  1.0000
  C   C192      1.0  0.55200  0.83881  0.40249  1.0000
  C   C193      1.0  0.51935  0.83872  0.33254  1.0000
  C   C194      1.0  0.53463  0.84409  0.40457  1.0000
  H   H113      1.0  0.53327  0.85180  0.46058  1.0000
  H   H114      1.0  0.56215  0.84232  0.45717  1.0000
  H   H115      1.0  0.52919  0.78303  0.32677  1.0000
  H   H116      1.0  0.59466  0.79733  0.32460  1.0000
  H   H117      1.0  0.63399  0.81695  0.32766  1.0000
  H   H118      1.0  0.68597  0.88742  0.45623  1.0000
  H   H119      1.0  0.71414  0.92603  0.45796  1.0000
  H   H120      1.0  0.69945  0.83120  0.32735  1.0000
  H   H121      1.0  0.59287  0.72185  0.33112  1.0000
  H   H122      1.0  0.63543  0.74312  0.32752  1.0000
  H   H123      1.0  0.66526  0.77233  0.46337  1.0000
  H   H124      1.0  0.69139  0.75931  0.46793  1.0000
  H   H125      1.0  0.54409  0.72878  0.46155  1.0000
  H   H126      1.0  0.51348  0.69144  0.46699  1.0000
  C   C195      1.0  0.21424  0.75469  0.32524  1.0000
  C   C196      1.0  0.28118  0.85917  0.32585  1.0000
  C   C197      1.0  0.31584  0.86330  0.32822  1.0000
  C   C198      1.0  0.30423  0.87492  0.32646  1.0000
  C   C199      1.0  0.35885  0.82749  0.41182  1.0000
  C   C200      1.0  0.33651  0.82311  0.40835  1.0000
  C   C201      1.0  0.28694  0.92323  0.41154  1.0000
  C   C202      1.0  0.27955  0.90006  0.40875  1.0000
  C   C203      1.0  0.15764  0.79007  0.40131  1.0000
  C   C204      1.0  0.13464  0.78352  0.40251  1.0000
  C   C205      1.0  0.21601  0.71298  0.40161  1.0000
  C   C206      1.0  0.21073  0.69033  0.40376  1.0000
  H   H127      1.0  0.20299  0.68126  0.45975  1.0000
  H   H128      1.0  0.21247  0.71962  0.45626  1.0000
  H   H129      1.0  0.27180  0.74593  0.32597  1.0000
  H   H130      1.0  0.16742  0.79835  0.45533  1.0000
  H   H131      1.0  0.12881  0.78791  0.45717  1.0000
  H   H132      1.0  0.22366  0.86804  0.32642  1.0000
  H   H133      1.0  0.33300  0.87079  0.33050  1.0000
  H   H134      1.0  0.31173  0.89209  0.32681  1.0000
  H   H135      1.0  0.28250  0.89270  0.46253  1.0000
  H   H136      1.0  0.29550  0.93185  0.46717  1.0000
  H   H137      1.0  0.32600  0.81508  0.46100  1.0000
  H   H138      1.0  0.36334  0.82183  0.46665  1.0000
  C   C207      1.0  0.77980  0.52506  0.32537  1.0000
  C   C208      1.0  0.79989  0.52501  0.32383  1.0000
  C   C209      1.0  0.81755  0.54735  0.32503  1.0000
  N   N41       1.0  0.80742  0.56005  0.32417  1.0000
  C   C210      1.0  0.76806  0.55428  0.32517  1.0000
  C   C211      1.0  0.77312  0.57709  0.32635  1.0000
  C   C212      1.0  0.83327  0.64446  0.32611  1.0000
  N   N42       1.0  0.84336  0.63174  0.32639  1.0000
  C   C213      1.0  0.87100  0.66674  0.32664  1.0000
  C   C214      1.0  0.88263  0.63744  0.32741  1.0000
  C   C215      1.0  0.87760  0.61463  0.32667  1.0000
  N   N43       1.0  0.85712  0.59574  0.32544  1.0000
  C   C216      1.0  0.88172  0.58410  0.32895  1.0000
  C   C217      1.0  0.89334  0.60732  0.32713  1.0000
  C   C218      1.0  0.84088  0.55406  0.32680  1.0000
  C   C219      1.0  0.84681  0.53680  0.33214  1.0000
  C   C220      1.0  0.85679  0.50074  0.34132  1.0000
  C   C221      1.0  0.84592  0.50526  0.41240  1.0000
  C   C222      1.0  0.84155  0.52322  0.40903  1.0000
  C   C223      1.0  0.90584  0.65453  0.33175  1.0000
  C   C224      1.0  0.95292  0.68749  0.33915  1.0000
  C   C225      1.0  0.94169  0.67293  0.41205  1.0000
  C   C226      1.0  0.91852  0.65714  0.40939  1.0000
  C   C227      1.0  0.80848  0.66905  0.40243  1.0000
  C   C228      1.0  0.80194  0.68552  0.40356  1.0000
  C   C229      1.0  0.78952  0.68777  0.33249  1.0000
  C   C230      1.0  0.74480  0.53710  0.32635  1.0000
  C   C231      1.0  0.73139  0.53361  0.40264  1.0000
  C   C232      1.0  0.69883  0.50093  0.33279  1.0000
  C   C233      1.0  0.70874  0.51624  0.40476  1.0000
  H   H139      1.0  0.69966  0.51489  0.46075  1.0000
  H   H140      1.0  0.73802  0.54377  0.45729  1.0000
  H   H141      1.0  0.76435  0.51077  0.32705  1.0000
  H   H142      1.0  0.81553  0.57623  0.32453  1.0000
  H   H143      1.0  0.83524  0.61556  0.32773  1.0000
  H   H144      1.0  0.81675  0.66756  0.45648  1.0000
  H   H145      1.0  0.80632  0.69573  0.45820  1.0000
  H   H146      1.0  0.88647  0.68102  0.32750  1.0000
  H   H147      1.0  0.88921  0.57442  0.33122  1.0000
  H   H148      1.0  0.91052  0.61699  0.32760  1.0000
  H   H149      1.0  0.91117  0.64685  0.46325  1.0000
  H   H150      1.0  0.95032  0.67301  0.46764  1.0000
  H   H151      1.0  0.83353  0.52569  0.46173  1.0000
  H   H152      1.0  0.84027  0.49509  0.46722  1.0000
  C   C234      1.0  0.52979  0.25452  0.32587  1.0000
  C   C235      1.0  0.52984  0.27466  0.32443  1.0000
  C   C236      1.0  0.50750  0.26998  0.32555  1.0000
  N   N44       1.0  0.49480  0.24715  0.32467  1.0000
  C   C237      1.0  0.50742  0.23693  0.32491  1.0000
  C   C238      1.0  0.50057  0.21356  0.32558  1.0000
  C   C239      1.0  0.47777  0.19581  0.32667  1.0000
  N   N45       1.0  0.45889  0.19744  0.32609  1.0000
  C   C240      1.0  0.41716  0.17201  0.32744  1.0000
  C   C241      1.0  0.41039  0.18858  0.32639  1.0000
  N   N46       1.0  0.42312  0.21140  0.32674  1.0000
  C   C242      1.0  0.41049  0.22159  0.32686  1.0000
  C   C243      1.0  0.38811  0.20403  0.32686  1.0000
  C   C244      1.0  0.38806  0.18389  0.32467  1.0000
  C   C245      1.0  0.41740  0.24495  0.32788  1.0000
  C   C246      1.0  0.44021  0.26274  0.32710  1.0000
  N   N47       1.0  0.45911  0.26116  0.32589  1.0000
  C   C247      1.0  0.47801  0.28165  0.32698  1.0000
  C   C248      1.0  0.47074  0.29740  0.32938  1.0000
  C   C249      1.0  0.44752  0.28579  0.32752  1.0000
  C   C250      1.0  0.50079  0.28660  0.32730  1.0000
  C   C251      1.0  0.51804  0.30979  0.33261  1.0000
  C   C252      1.0  0.55411  0.35583  0.34172  1.0000
  C   C253      1.0  0.54956  0.34046  0.41287  1.0000
  C   C254      1.0  0.53161  0.31811  0.40948  1.0000
  C   C255      1.0  0.40031  0.25107  0.33219  1.0000
  C   C256      1.0  0.36736  0.26522  0.33954  1.0000
  C   C257      1.0  0.38190  0.26854  0.41246  1.0000
  C   C258      1.0  0.39768  0.26115  0.40982  1.0000
  C   C259      1.0  0.39996  0.14878  0.32791  1.0000
  C   C260      1.0  0.38576  0.13918  0.40251  1.0000
  C   C261      1.0  0.36930  0.11617  0.40351  1.0000
  C   C262      1.0  0.36708  0.10152  0.33239  1.0000
  C   C263      1.0  0.51776  0.20749  0.32675  1.0000
  C   C264      1.0  0.52125  0.19758  0.40303  1.0000
  C   C265      1.0  0.55393  0.19769  0.33311  1.0000
  C   C266      1.0  0.53862  0.19230  0.40512  1.0000
  H   H153      1.0  0.53996  0.18458  0.46112  1.0000
  H   H154      1.0  0.51108  0.19405  0.45771  1.0000
  H   H155      1.0  0.54409  0.25337  0.32748  1.0000
  H   H156      1.0  0.47862  0.23908  0.32497  1.0000
  H   H157      1.0  0.43929  0.21946  0.32844  1.0000
  H   H158      1.0  0.43756  0.14407  0.33409  1.0000
  H   H159      1.0  0.38723  0.14893  0.45657  1.0000
  H   H160      1.0  0.35905  0.11033  0.45810  1.0000
  H   H161      1.0  0.37383  0.20522  0.32760  1.0000
  H   H162      1.0  0.48041  0.31456  0.33157  1.0000
  H   H163      1.0  0.43785  0.29329  0.32798  1.0000
  H   H164      1.0  0.40796  0.26409  0.46369  1.0000
  H   H165      1.0  0.38181  0.27710  0.46804  1.0000
  H   H166      1.0  0.52913  0.30763  0.46222  1.0000
  H   H167      1.0  0.55973  0.34497  0.46765  1.0000
  C   C267      1.0  0.80031  0.27503  0.32486  1.0000
  C   C268      1.0  0.78486  0.23729  0.32469  1.0000
  C   C269      1.0  0.84128  0.28679  0.32473  1.0000
  C   C270      1.0  0.85903  0.28173  0.32591  1.0000
  C   C271      1.0  0.86626  0.22159  0.32564  1.0000
  C   C272      1.0  0.85082  0.18386  0.32624  1.0000
  C   C273      1.0  0.80989  0.17222  0.32722  1.0000
  C   C274      1.0  0.79210  0.17724  0.32653  1.0000
  N   N48       1.0  0.79368  0.19772  0.32526  1.0000
  C   C275      1.0  0.75744  0.17311  0.32888  1.0000
  C   C276      1.0  0.76905  0.16150  0.32711  1.0000
  C   C277      1.0  0.74505  0.20802  0.33210  1.0000
  C   C278      1.0  0.71441  0.20892  0.41246  1.0000
  C   C279      1.0  0.73674  0.21328  0.40904  1.0000
  C   C280      1.0  0.80377  0.14901  0.33168  1.0000
  C   C281      1.0  0.78963  0.10192  0.33929  1.0000
  C   C282      1.0  0.78632  0.11317  0.41217  1.0000
  C   C283      1.0  0.79368  0.13633  0.40936  1.0000
  C   C284      1.0  0.91562  0.24636  0.40200  1.0000
  C   C285      1.0  0.93863  0.25291  0.40315  1.0000
  C   C286      1.0  0.85724  0.32343  0.40225  1.0000
  C   C287      1.0  0.85714  0.35600  0.33241  1.0000
  C   C288      1.0  0.86252  0.34608  0.40439  1.0000
  H   H168      1.0  0.87023  0.35514  0.46039  1.0000
  H   H169      1.0  0.86076  0.31678  0.45690  1.0000
  H   H170      1.0  0.80146  0.29048  0.32663  1.0000
  H   H171      1.0  0.83538  0.21960  0.32746  1.0000
  H   H172      1.0  0.90584  0.23807  0.45604  1.0000
  H   H173      1.0  0.94445  0.24851  0.45779  1.0000
  H   H174      1.0  0.84962  0.16838  0.32718  1.0000
  H   H175      1.0  0.74028  0.16562  0.33112  1.0000
  H   H176      1.0  0.76155  0.14432  0.32744  1.0000
  H   H177      1.0  0.79075  0.14369  0.46321  1.0000
  H   H178      1.0  0.77773  0.10453  0.46775  1.0000
  H   H179      1.0  0.74724  0.22132  0.46164  1.0000
  H   H180      1.0  0.70990  0.21459  0.46727  1.0000
  C   C289      1.0  0.21279  0.65792  0.33739  1.0000
  C   C290      1.0  0.20967  0.61506  0.34455  1.0000
  C   C291      1.0  0.21145  0.62657  0.42532  1.0000
  C   C292      1.0  0.21347  0.64812  0.41988  1.0000
  H   H181      1.0  0.21636  0.65712  0.47739  1.0000
  C   C293      1.0  0.20976  0.59452  0.34564  1.0000
  C   C294      1.0  0.21289  0.55473  0.34334  1.0000
  C   C295      1.0  0.21109  0.56430  0.42472  1.0000
  C   C296      1.0  0.21027  0.58452  0.42768  1.0000
  C   C297      1.0  0.21067  0.59536  0.50861  1.0000
  C   C298      1.0  0.21174  0.61650  0.50737  1.0000
  H   H182      1.0  0.21079  0.55670  0.48361  1.0000
  O   O1        1.0  0.21196  0.58663  0.58849  1.0000
  H   H183      1.0  0.19636  0.57762  0.61008  1.0000
  O   O2        1.0  0.21375  0.62719  0.58625  1.0000
  H   H184      1.0  0.19833  0.62280  0.60492  1.0000
  C   C299      1.0  0.39693  0.55465  0.33771  1.0000
  C   C300      1.0  0.43978  0.59439  0.34490  1.0000
  C   C301      1.0  0.42825  0.58466  0.42566  1.0000
  C   C302      1.0  0.40671  0.56513  0.42022  1.0000
  H   H185      1.0  0.39769  0.55903  0.47772  1.0000
  C   C303      1.0  0.46032  0.61503  0.34601  1.0000
  C   C304      1.0  0.50010  0.65795  0.34373  1.0000
  C   C305      1.0  0.49051  0.64657  0.42510  1.0000
  C   C306      1.0  0.47030  0.62553  0.42805  1.0000
  C   C307      1.0  0.45944  0.61510  0.50898  1.0000
  C   C308      1.0  0.43830  0.59503  0.50773  1.0000
  H   H186      1.0  0.49810  0.65387  0.48401  1.0000
  O   O3        1.0  0.46815  0.62511  0.58887  1.0000
  H   H187      1.0  0.47716  0.61854  0.61045  1.0000
  O   O4        1.0  0.42760  0.58634  0.58659  1.0000
  H   H188      1.0  0.43199  0.57531  0.60528  1.0000
  C   C309      1.0  0.50020  0.84208  0.33805  1.0000
  C   C310      1.0  0.46046  0.84519  0.34505  1.0000
  C   C311      1.0  0.47014  0.84338  0.42586  1.0000
  C   C312      1.0  0.48967  0.84135  0.42050  1.0000
  H   H189      1.0  0.49576  0.83844  0.47804  1.0000
  C   C313      1.0  0.43982  0.84510  0.34605  1.0000
  C   C314      1.0  0.39690  0.84197  0.34355  1.0000
  C   C315      1.0  0.40824  0.84374  0.42498  1.0000
  C   C316      1.0  0.42927  0.84456  0.42805  1.0000
  C   C317      1.0  0.43966  0.84411  0.50902  1.0000
  C   C318      1.0  0.45974  0.84305  0.50787  1.0000
  H   H190      1.0  0.40090  0.84400  0.48385  1.0000
  O   O5        1.0  0.42961  0.84281  0.58885  1.0000
  H   H191      1.0  0.43619  0.85839  0.61051  1.0000
  O   O6        1.0  0.46838  0.84101  0.58678  1.0000
  H   H192      1.0  0.47940  0.85642  0.60552  1.0000
  C   C319      1.0  0.86049  0.37850  0.33799  1.0000
  C   C320      1.0  0.86361  0.42136  0.34515  1.0000
  C   C321      1.0  0.86180  0.40984  0.42592  1.0000
  C   C322      1.0  0.85978  0.38829  0.42049  1.0000
  H   H193      1.0  0.85686  0.37928  0.47799  1.0000
  C   C323      1.0  0.86352  0.44190  0.34625  1.0000
  C   C324      1.0  0.86037  0.48169  0.34394  1.0000
  C   C325      1.0  0.86215  0.47210  0.42532  1.0000
  C   C326      1.0  0.86298  0.45189  0.42829  1.0000
  C   C327      1.0  0.86255  0.44104  0.50922  1.0000
  C   C328      1.0  0.86148  0.41989  0.50798  1.0000
  H   H194      1.0  0.86244  0.47969  0.48422  1.0000
  O   O7        1.0  0.86124  0.44975  0.58910  1.0000
  H   H195      1.0  0.87681  0.45876  0.61074  1.0000
  O   O8        1.0  0.85944  0.40919  0.58685  1.0000
  H   H196      1.0  0.87486  0.41358  0.60555  1.0000
  C   C329      1.0  0.67634  0.48177  0.33837  1.0000
  C   C330      1.0  0.63348  0.44203  0.34553  1.0000
  C   C331      1.0  0.64499  0.45175  0.42630  1.0000
  C   C332      1.0  0.66654  0.47128  0.42087  1.0000
  H   H197      1.0  0.67553  0.47738  0.47837  1.0000
  C   C333      1.0  0.61295  0.42139  0.34663  1.0000
  C   C334      1.0  0.57316  0.37847  0.34433  1.0000
  C   C335      1.0  0.58273  0.38984  0.42571  1.0000
  C   C336      1.0  0.60294  0.41088  0.42867  1.0000
  C   C337      1.0  0.61377  0.42130  0.50960  1.0000
  C   C338      1.0  0.63492  0.44137  0.50836  1.0000
  H   H198      1.0  0.57512  0.38253  0.48461  1.0000
  O   O9        1.0  0.60504  0.41128  0.58948  1.0000
  H   H199      1.0  0.59602  0.41785  0.61107  1.0000
  O   O10       1.0  0.64560  0.45004  0.58723  1.0000
  H   H200      1.0  0.64120  0.46107  0.60592  1.0000
  C   C339      1.0  0.57308  0.19435  0.33863  1.0000
  C   C340      1.0  0.61282  0.19123  0.34565  1.0000
  C   C341      1.0  0.60310  0.19303  0.42646  1.0000
  C   C342      1.0  0.58357  0.19504  0.42110  1.0000
  H   H201      1.0  0.57748  0.19796  0.47862  1.0000
  C   C343      1.0  0.63346  0.19133  0.34667  1.0000
  C   C344      1.0  0.67638  0.19448  0.34417  1.0000
  C   C345      1.0  0.66502  0.19269  0.42560  1.0000
  C   C346      1.0  0.64398  0.19186  0.42866  1.0000
  C   C347      1.0  0.63356  0.19228  0.50963  1.0000
  C   C348      1.0  0.61349  0.19335  0.50847  1.0000
  H   H202      1.0  0.67234  0.19240  0.48447  1.0000
  O   O11       1.0  0.64359  0.19358  0.58947  1.0000
  H   H203      1.0  0.63702  0.17800  0.61110  1.0000
  O   O12       1.0  0.60482  0.19536  0.58738  1.0000
  H   H204      1.0  0.59380  0.17994  0.60611  1.0000
  C   C349      1.0  0.09640  0.33359  0.34101  1.0000
  C   C350      1.0  0.04875  0.30707  0.34333  1.0000
  C   C351      1.0  0.06067  0.31187  0.42501  1.0000
  C   C352      1.0  0.08448  0.32449  0.42181  1.0000
  H   H205      1.0  0.09322  0.32759  0.48014  1.0000
  C   C353      1.0  0.02500  0.29509  0.34264  1.0000
  C   C354      1.0  0.97733  0.27405  0.33678  1.0000
  C   C355      1.0  0.98906  0.27889  0.41918  1.0000
  C   C356      1.0  0.01279  0.28897  0.42381  1.0000
  C   C357      1.0  0.02466  0.29373  0.50552  1.0000
  C   C358      1.0  0.04847  0.30469  0.50603  1.0000
  H   H206      1.0  0.98040  0.27606  0.47755  1.0000
  O   O13       1.0  0.01343  0.28731  0.58462  1.0000
  H   H207      1.0  0.01239  0.30032  0.60620  1.0000
  O   O14       1.0  0.05933  0.30868  0.58570  1.0000
  H   H208      1.0  0.06198  0.32345  0.60612  1.0000
  C   C359      1.0  0.72125  0.76258  0.34140  1.0000
  C   C360      1.0  0.74777  0.74146  0.34373  1.0000
  C   C361      1.0  0.74295  0.74858  0.42541  1.0000
  C   C362      1.0  0.73034  0.75977  0.42221  1.0000
  H   H209      1.0  0.72723  0.76542  0.48054  1.0000
  C   C363      1.0  0.75974  0.72968  0.34304  1.0000
  C   C364      1.0  0.78079  0.70306  0.33720  1.0000
  C   C365      1.0  0.77592  0.70993  0.41960  1.0000
  C   C366      1.0  0.76585  0.72360  0.42422  1.0000
  C   C367      1.0  0.76108  0.73071  0.50593  1.0000
  C   C368      1.0  0.75012  0.74356  0.50642  1.0000
  H   H210      1.0  0.77877  0.70413  0.47797  1.0000
  O   O15       1.0  0.76749  0.72590  0.58502  1.0000
  H   H211      1.0  0.75447  0.71186  0.60663  1.0000
  O   O16       1.0  0.74613  0.75045  0.58610  1.0000
  H   H212      1.0  0.73135  0.73833  0.60654  1.0000
  C   C369      1.0  0.29225  0.95844  0.34072  1.0000
  C   C370      1.0  0.31336  0.00608  0.34322  1.0000
  C   C371      1.0  0.30621  0.99413  0.42485  1.0000
  C   C372      1.0  0.29502  0.97032  0.42156  1.0000
  H   H213      1.0  0.28936  0.96155  0.47986  1.0000
  C   C373      1.0  0.32515  0.02983  0.34262  1.0000
  C   C374      1.0  0.35177  0.07751  0.33698  1.0000
  C   C375      1.0  0.34486  0.06574  0.41932  1.0000
  C   C376      1.0  0.33120  0.04201  0.42385  1.0000
  C   C377      1.0  0.32405  0.03010  0.50550  1.0000
  C   C378      1.0  0.31120  0.00629  0.50591  1.0000
  H   H214      1.0  0.35065  0.07437  0.47773  1.0000
  O   O17       1.0  0.32883  0.04130  0.58464  1.0000
  H   H215      1.0  0.34287  0.04232  0.60625  1.0000
  O   O18       1.0  0.30428  0.99539  0.58554  1.0000
  H   H216      1.0  0.31639  0.99273  0.60599  1.0000
  C   C379      1.0  0.97687  0.70284  0.34096  1.0000
  C   C380      1.0  0.02452  0.72935  0.34308  1.0000
  C   C381      1.0  0.01260  0.72456  0.42481  1.0000
  C   C382      1.0  0.98879  0.71195  0.42171  1.0000
  H   H217      1.0  0.98005  0.70885  0.48008  1.0000
  C   C383      1.0  0.04827  0.74131  0.34230  1.0000
  C   C384      1.0  0.09594  0.76236  0.33628  1.0000
  C   C385      1.0  0.08421  0.75751  0.41872  1.0000
  C   C386      1.0  0.06048  0.74745  0.42343  1.0000
  C   C387      1.0  0.04861  0.74269  0.50518  1.0000
  C   C388      1.0  0.02480  0.73174  0.50577  1.0000
  H   H218      1.0  0.09287  0.76037  0.47705  1.0000
  O   O19       1.0  0.05984  0.74912  0.58423  1.0000
  H   H219      1.0  0.06087  0.73611  0.60584  1.0000
  O   O20       1.0  0.01393  0.72777  0.58549  1.0000
  H   H220      1.0  0.01127  0.71299  0.60597  1.0000
  C   C389      1.0  0.35202  0.27382  0.34135  1.0000
  C   C390      1.0  0.32549  0.29494  0.34347  1.0000
  C   C391      1.0  0.33027  0.28782  0.42520  1.0000
  C   C392      1.0  0.34290  0.27664  0.42209  1.0000
  H   H221      1.0  0.34597  0.27098  0.48046  1.0000
  C   C393      1.0  0.31352  0.30672  0.34269  1.0000
  C   C394      1.0  0.29246  0.33334  0.33668  1.0000
  C   C395      1.0  0.29729  0.32644  0.41912  1.0000
  C   C396      1.0  0.30737  0.31280  0.42382  1.0000
  C   C397      1.0  0.31211  0.30568  0.50557  1.0000
  C   C398      1.0  0.32307  0.29283  0.50616  1.0000
  H   H222      1.0  0.29444  0.33227  0.47745  1.0000
  O   O21       1.0  0.30567  0.31049  0.58462  1.0000
  H   H223      1.0  0.31867  0.32453  0.60622  1.0000
  O   O22       1.0  0.32703  0.28595  0.58588  1.0000
  H   H224      1.0  0.34180  0.29807  0.60633  1.0000
  C   C399      1.0  0.78100  0.07796  0.34120  1.0000
  C   C400      1.0  0.75989  0.03033  0.34352  1.0000
  C   C401      1.0  0.76700  0.04224  0.42520  1.0000
  C   C402      1.0  0.77819  0.06606  0.42200  1.0000
  H   H225      1.0  0.78384  0.07480  0.48034  1.0000
  C   C403      1.0  0.74811  0.00657  0.34282  1.0000
  C   C404      1.0  0.72148  0.95890  0.33697  1.0000
  C   C405      1.0  0.72835  0.97064  0.41937  1.0000
  C   C406      1.0  0.74202  0.99437  0.42400  1.0000
  C   C407      1.0  0.74913  0.00624  0.50571  1.0000
  C   C408      1.0  0.76198  0.03005  0.50621  1.0000
  H   H226      1.0  0.72255  0.96198  0.47774  1.0000
  O   O23       1.0  0.74431  0.99502  0.58480  1.0000
  H   H227      1.0  0.73026  0.99398  0.60641  1.0000
  O   O24       1.0  0.76886  0.04092  0.58589  1.0000
  H   H228      1.0  0.75674  0.04358  0.60633  1.0000
