data_image0
_chemical_formula_structural       HNHNCNC2OHCHCNC2OHCHNCH2NCH2CNC2OHCHCNC2OHCHNCH2NCH2NC2OH2NC2OH2C6HNC6NH7N4C6HNC6NH7N4C6HNC6NH7N4C6HNC6NH6N3C6HNC6NH6N4C2HCHNC2HCHC2NC2OHCHC3NC2OHCHCNC2HCHNC2HCHC2NC2OHCHC3NC2OHCHC2NC2HC2HCNC2HC2H
_chemical_formula_sum              "H80 N50 C130 O10"
_cell_length_a       32.7261
_cell_length_b       40.9614
_cell_length_c       14.8181
_cell_angle_alpha    88.3638
_cell_angle_beta     91.281
_cell_angle_gamma    89.6991

_space_group_name_H-M_alt    "P 1"
_space_group_IT_number       1

loop_
  _space_group_symop_operation_xyz
  'x, y, z'

loop_
  _atom_site_type_symbol
  _atom_site_label
  _atom_site_symmetry_multiplicity
  _atom_site_fract_x
  _atom_site_fract_y
  _atom_site_fract_z
  _atom_site_occupancy
  H   H1        1.0  0.78435  0.36120  0.40868  1.0000
  N   N1        1.0  0.85513  0.33908  0.38022  1.0000
  H   H2        1.0  0.16234  0.66494  0.40936  1.0000
  N   N2        1.0  0.09104  0.68765  0.38043  1.0000
  C   C1        1.0  0.12405  0.11791  0.38819  1.0000
  N   N3        1.0  0.16239  0.16737  0.38012  1.0000
  C   C2        1.0  0.15948  0.13513  0.35983  1.0000
  C   C3        1.0  0.19005  0.12129  0.31006  1.0000
  O   O1        1.0  0.22247  0.13549  0.30009  1.0000
  H   H3        1.0  0.18126  0.10823  0.25775  1.0000
  C   C4        1.0  0.11598  0.08477  0.37272  1.0000
  H   H4        1.0  0.13665  0.07129  0.33900  1.0000
  C   C5        1.0  0.82230  0.90860  0.38846  1.0000
  N   N4        1.0  0.78373  0.85933  0.38022  1.0000
  C   C6        1.0  0.78628  0.89200  0.35999  1.0000
  C   C7        1.0  0.75479  0.90703  0.31007  1.0000
  O   O2        1.0  0.72197  0.89316  0.30229  1.0000
  H   H5        1.0  0.76313  0.91993  0.25596  1.0000
  C   C8        1.0  0.83010  0.94204  0.37288  1.0000
  H   H6        1.0  0.80878  0.95621  0.33897  1.0000
  N   N5        1.0  0.80868  0.12585  0.35034  1.0000
  C   C9        1.0  0.77952  0.14966  0.34542  1.0000
  H   H7        1.0  0.74933  0.14341  0.34489  1.0000
  H   H8        1.0  0.73382  0.20651  0.34126  1.0000
  N   N6        1.0  0.13698  0.90141  0.35028  1.0000
  C   C10       1.0  0.16604  0.87770  0.34530  1.0000
  H   H9        1.0  0.19622  0.88397  0.34470  1.0000
  H   H10       1.0  0.21166  0.82094  0.34101  1.0000
  C   C11       1.0  0.24947  0.48114  0.33760  1.0000
  N   N7        1.0  0.25267  0.53843  0.30912  1.0000
  C   C12       1.0  0.25075  0.50794  0.27468  1.0000
  C   C13       1.0  0.25254  0.50449  0.18208  1.0000
  O   O3        1.0  0.25420  0.52858  0.13168  1.0000
  H   H11       1.0  0.26687  0.48496  0.15995  1.0000
  C   C14       1.0  0.24569  0.44822  0.31557  1.0000
  H   H12       1.0  0.23311  0.44201  0.25463  1.0000
  C   C15       1.0  0.69614  0.54645  0.33866  1.0000
  N   N8        1.0  0.68994  0.48989  0.31037  1.0000
  C   C16       1.0  0.69118  0.52110  0.27591  1.0000
  C   C17       1.0  0.68535  0.52674  0.18374  1.0000
  O   O4        1.0  0.68122  0.50363  0.13401  1.0000
  H   H13       1.0  0.66953  0.54661  0.16493  1.0000
  C   C18       1.0  0.69980  0.57978  0.31654  1.0000
  H   H14       1.0  0.71004  0.58723  0.25458  1.0000
  N   N9        1.0  0.00102  0.34597  0.31923  1.0000
  C   C19       1.0  0.96123  0.34823  0.29061  1.0000
  H   H15       1.0  0.95489  0.35158  0.22312  1.0000
  H   H16       1.0  0.88294  0.33438  0.25944  1.0000
  N   N10       1.0  0.94389  0.68201  0.31956  1.0000
  C   C20       1.0  0.98311  0.68031  0.29096  1.0000
  H   H17       1.0  0.98807  0.67838  0.22346  1.0000
  H   H18       1.0  0.06073  0.69478  0.25966  1.0000
  N   N11       1.0  0.49986  0.32779  0.30915  1.0000
  C   C21       1.0  0.45943  0.32754  0.28272  1.0000
  C   C22       1.0  0.44999  0.32675  0.19112  1.0000
  O   O5        1.0  0.47707  0.32762  0.13556  1.0000
  H   H19       1.0  0.42560  0.31406  0.17263  1.0000
  H   H20       1.0  0.37955  0.34539  0.27069  1.0000
  N   N12       1.0  0.44486  0.70006  0.30928  1.0000
  C   C23       1.0  0.48476  0.70091  0.28287  1.0000
  C   C24       1.0  0.49246  0.70364  0.19122  1.0000
  O   O6        1.0  0.46407  0.70356  0.13616  1.0000
  H   H21       1.0  0.51587  0.71759  0.17389  1.0000
  H   H22       1.0  0.56442  0.68345  0.27070  1.0000
  C   C25       1.0  0.99518  0.01289  0.38523  1.0000
  C   C26       1.0  0.01748  0.98379  0.37072  1.0000
  C   C27       1.0  0.06072  0.98198  0.37202  1.0000
  C   C28       1.0  0.08395  0.01077  0.38534  1.0000
  C   C29       1.0  0.06274  0.04097  0.39344  1.0000
  C   C30       1.0  0.01960  0.04110  0.39751  1.0000
  H   H23       1.0  0.00192  0.96324  0.35535  1.0000
  N   N13       1.0  0.12537  0.00869  0.39759  1.0000
  C   C31       1.0  0.95118  0.01363  0.38526  1.0000
  C   C32       1.0  0.92700  0.98517  0.39759  1.0000
  C   C33       1.0  0.88378  0.98539  0.39352  1.0000
  C   C34       1.0  0.86241  0.01576  0.38547  1.0000
  C   C35       1.0  0.88537  0.04482  0.37212  1.0000
  C   C36       1.0  0.92859  0.04304  0.37081  1.0000
  N   N14       1.0  0.82125  0.01758  0.39776  1.0000
  H   H24       1.0  0.94383  0.06389  0.35529  1.0000
  H   H25       1.0  0.80702  0.99979  0.42744  1.0000
  H   H26       1.0  0.80685  0.03840  0.39630  1.0000
  H   H27       1.0  0.14013  0.02587  0.42746  1.0000
  H   H28       1.0  0.13976  0.98792  0.39620  1.0000
  H   H29       1.0  0.00589  0.06295  0.40968  1.0000
  H   H30       1.0  0.94096  0.96307  0.40973  1.0000
  N   N15       1.0  0.86508  0.07389  0.36440  1.0000
  N   N16       1.0  0.86685  0.95513  0.39415  1.0000
  N   N17       1.0  0.07967  0.07122  0.39398  1.0000
  N   N18       1.0  0.08086  0.95308  0.36434  1.0000
  C   C37       1.0  0.20132  0.32274  0.36936  1.0000
  C   C38       1.0  0.19963  0.28808  0.38047  1.0000
  C   C39       1.0  0.16274  0.27029  0.38609  1.0000
  C   C40       1.0  0.12478  0.28714  0.37274  1.0000
  C   C41       1.0  0.12407  0.32179  0.37323  1.0000
  C   C42       1.0  0.16185  0.33844  0.36643  1.0000
  H   H31       1.0  0.22596  0.27472  0.38626  1.0000
  N   N19       1.0  0.09094  0.27101  0.34169  1.0000
  C   C43       1.0  0.23984  0.34027  0.36632  1.0000
  C   C44       1.0  0.27973  0.32616  0.38348  1.0000
  C   C45       1.0  0.31686  0.34426  0.38078  1.0000
  C   C46       1.0  0.31418  0.37898  0.37563  1.0000
  C   C47       1.0  0.27569  0.39381  0.35546  1.0000
  C   C48       1.0  0.24051  0.37437  0.34501  1.0000
  N   N20       1.0  0.34761  0.39796  0.39219  1.0000
  H   H32       1.0  0.21421  0.38664  0.32850  1.0000
  H   H33       1.0  0.37288  0.38871  0.41729  1.0000
  H   H34       1.0  0.34598  0.42167  0.39078  1.0000
  H   H35       1.0  0.06730  0.28296  0.31742  1.0000
  H   H36       1.0  0.09346  0.24907  0.31951  1.0000
  H   H37       1.0  0.15953  0.36321  0.36676  1.0000
  H   H38       1.0  0.28285  0.30160  0.39427  1.0000
  N   N21       1.0  0.27239  0.42683  0.35526  1.0000
  N   N22       1.0  0.35421  0.32868  0.38685  1.0000
  N   N23       1.0  0.08789  0.33896  0.37440  1.0000
  N   N24       1.0  0.16556  0.23735  0.40252  1.0000
  C   C49       1.0  0.74462  0.70413  0.36960  1.0000
  C   C50       1.0  0.74648  0.73857  0.38059  1.0000
  C   C51       1.0  0.78346  0.75628  0.38623  1.0000
  C   C52       1.0  0.82116  0.73971  0.37295  1.0000
  C   C53       1.0  0.82195  0.70506  0.37352  1.0000
  C   C54       1.0  0.78405  0.68853  0.36690  1.0000
  H   H39       1.0  0.72024  0.75179  0.38628  1.0000
  N   N25       1.0  0.85429  0.75651  0.34175  1.0000
  C   C55       1.0  0.70607  0.68663  0.36652  1.0000
  C   C56       1.0  0.66649  0.70032  0.38362  1.0000
  C   C57       1.0  0.62935  0.68222  0.38088  1.0000
  C   C58       1.0  0.63200  0.64761  0.37565  1.0000
  C   C59       1.0  0.67013  0.63325  0.35570  1.0000
  C   C60       1.0  0.70506  0.65296  0.34537  1.0000
  N   N26       1.0  0.59896  0.62821  0.39209  1.0000
  H   H40       1.0  0.73104  0.64110  0.32867  1.0000
  H   H41       1.0  0.57401  0.63688  0.41646  1.0000
  H   H42       1.0  0.60051  0.60455  0.39002  1.0000
  H   H43       1.0  0.87773  0.74524  0.31810  1.0000
  H   H44       1.0  0.85159  0.77900  0.32004  1.0000
  H   H45       1.0  0.78641  0.66375  0.36711  1.0000
  H   H46       1.0  0.66354  0.72465  0.39442  1.0000
  N   N27       1.0  0.67362  0.60023  0.35583  1.0000
  N   N28       1.0  0.59209  0.69762  0.38703  1.0000
  N   N29       1.0  0.85817  0.68790  0.37468  1.0000
  N   N30       1.0  0.78095  0.78888  0.40261  1.0000
  C   C61       1.0  0.74190  0.32325  0.37737  1.0000
  C   C62       1.0  0.74335  0.28953  0.35656  1.0000
  C   C63       1.0  0.78028  0.27247  0.34376  1.0000
  C   C64       1.0  0.81849  0.28879  0.34612  1.0000
  C   C65       1.0  0.81925  0.32216  0.37005  1.0000
  C   C66       1.0  0.78163  0.33763  0.38996  1.0000
  H   H47       1.0  0.71732  0.27608  0.35297  1.0000
  N   N31       1.0  0.85378  0.27139  0.33577  1.0000
  C   C67       1.0  0.70331  0.34086  0.38293  1.0000
  C   C68       1.0  0.66338  0.32718  0.36787  1.0000
  C   C69       1.0  0.62611  0.34535  0.37016  1.0000
  C   C70       1.0  0.62854  0.38003  0.37298  1.0000
  C   C71       1.0  0.66705  0.39451  0.39057  1.0000
  C   C72       1.0  0.70255  0.37487  0.40030  1.0000
  N   N32       1.0  0.59498  0.39941  0.35560  1.0000
  H   H48       1.0  0.72902  0.38721  0.40981  1.0000
  H   H49       1.0  0.56971  0.39060  0.33136  1.0000
  H   H50       1.0  0.59643  0.42309  0.35544  1.0000
  H   H51       1.0  0.88040  0.27956  0.35288  1.0000
  H   H52       1.0  0.85358  0.24915  0.31559  1.0000
  H   H53       1.0  0.66032  0.30272  0.35961  1.0000
  N   N33       1.0  0.67025  0.42754  0.38757  1.0000
  N   N34       1.0  0.58898  0.32982  0.36500  1.0000
  N   N35       1.0  0.78109  0.23956  0.34007  1.0000
  C   C73       1.0  0.20422  0.70344  0.37749  1.0000
  C   C74       1.0  0.20239  0.73758  0.35646  1.0000
  C   C75       1.0  0.16522  0.75492  0.34356  1.0000
  C   C76       1.0  0.12703  0.73859  0.34589  1.0000
  C   C77       1.0  0.12672  0.70475  0.37010  1.0000
  C   C78       1.0  0.16472  0.68886  0.39023  1.0000
  H   H54       1.0  0.22838  0.75107  0.35277  1.0000
  N   N36       1.0  0.09156  0.75622  0.33538  1.0000
  C   C79       1.0  0.24288  0.68566  0.38310  1.0000
  C   C80       1.0  0.28254  0.69960  0.36808  1.0000
  C   C81       1.0  0.31980  0.68131  0.37031  1.0000
  C   C82       1.0  0.31732  0.64658  0.37284  1.0000
  C   C83       1.0  0.27912  0.63179  0.39027  1.0000
  C   C84       1.0  0.24389  0.65129  0.40034  1.0000
  N   N37       1.0  0.35049  0.62753  0.35538  1.0000
  H   H55       1.0  0.21756  0.63876  0.40923  1.0000
  H   H56       1.0  0.37527  0.63681  0.33110  1.0000
  H   H57       1.0  0.34887  0.60386  0.35482  1.0000
  H   H58       1.0  0.06528  0.74773  0.35259  1.0000
  H   H59       1.0  0.09138  0.77886  0.31507  1.0000
  H   H60       1.0  0.28550  0.72423  0.35997  1.0000
  N   N38       1.0  0.27566  0.59884  0.38670  1.0000
  N   N39       1.0  0.35687  0.69690  0.36513  1.0000
  N   N40       1.0  0.16438  0.78791  0.33986  1.0000
  N   N41       1.0  0.09611  0.13465  0.43557  1.0000
  C   C85       1.0  0.09990  0.16636  0.45697  1.0000
  C   C86       1.0  0.13436  0.18390  0.42767  1.0000
  H   H61       1.0  0.07692  0.17724  0.49106  1.0000
  C   C87       1.0  0.13676  0.21770  0.43954  1.0000
  H   H62       1.0  0.11279  0.22862  0.47051  1.0000
  N   N42       1.0  0.85115  0.89086  0.43595  1.0000
  C   C88       1.0  0.84775  0.85869  0.45726  1.0000
  C   C89       1.0  0.81269  0.84180  0.42782  1.0000
  H   H63       1.0  0.87135  0.84710  0.49160  1.0000
  C   C90       1.0  0.81048  0.80776  0.43969  1.0000
  H   H64       1.0  0.83501  0.79616  0.47086  1.0000
  C   C91       1.0  0.84971  0.13166  0.35198  1.0000
  C   C92       1.0  0.79179  0.18258  0.34167  1.0000
  N   N43       1.0  0.83273  0.18801  0.34394  1.0000
  C   C93       1.0  0.86249  0.16477  0.34865  1.0000
  C   C94       1.0  0.90299  0.17448  0.35310  1.0000
  O   O7        1.0  0.91198  0.20211  0.32756  1.0000
  H   H65       1.0  0.91953  0.16593  0.40550  1.0000
  C   C95       1.0  0.87741  0.10523  0.35636  1.0000
  H   H66       1.0  0.90795  0.10995  0.35644  1.0000
  C   C96       1.0  0.76477  0.20947  0.33878  1.0000
  C   C97       1.0  0.09598  0.89555  0.35201  1.0000
  C   C98       1.0  0.15370  0.84485  0.34153  1.0000
  N   N44       1.0  0.11281  0.83937  0.34390  1.0000
  C   C99       1.0  0.08316  0.86251  0.34876  1.0000
  C   C100      1.0  0.04284  0.85257  0.35321  1.0000
  O   O8        1.0  0.03287  0.82544  0.32875  1.0000
  H   H67       1.0  0.02693  0.86071  0.40429  1.0000
  C   C101      1.0  0.06837  0.92189  0.35631  1.0000
  H   H68       1.0  0.03783  0.91717  0.35631  1.0000
  C   C102      1.0  0.18067  0.81803  0.33855  1.0000
  N   N45       1.0  0.24797  0.48771  0.42702  1.0000
  C   C103      1.0  0.24704  0.51830  0.45946  1.0000
  C   C104      1.0  0.25083  0.54499  0.39838  1.0000
  H   H69       1.0  0.24564  0.52143  0.52751  1.0000
  C   C105      1.0  0.24945  0.57750  0.42480  1.0000
  H   H70       1.0  0.23802  0.58323  0.48612  1.0000
  N   N46       1.0  0.70154  0.53790  0.42760  1.0000
  C   C106      1.0  0.70299  0.50659  0.45967  1.0000
  C   C107      1.0  0.69571  0.48132  0.39910  1.0000
  H   H71       1.0  0.70746  0.50194  0.52732  1.0000
  C   C108      1.0  0.69707  0.44825  0.42551  1.0000
  H   H72       1.0  0.71126  0.44099  0.48508  1.0000
  C   C109      1.0  0.01313  0.33978  0.40659  1.0000
  C   C110      1.0  0.92948  0.34417  0.35317  1.0000
  N   N47       1.0  0.94159  0.33878  0.44065  1.0000
  C   C111      1.0  0.98139  0.33637  0.47092  1.0000
  C   C112      1.0  0.98900  0.33007  0.56233  1.0000
  O   O9        1.0  0.96031  0.32672  0.61324  1.0000
  H   H73       1.0  0.01328  0.34056  0.58991  1.0000
  C   C113      1.0  0.05465  0.33131  0.42501  1.0000
  H   H74       1.0  0.06034  0.31637  0.48051  1.0000
  C   C114      1.0  0.88816  0.34017  0.32551  1.0000
  C   C115      1.0  0.93358  0.68641  0.40691  1.0000
  C   C116      1.0  0.01614  0.68308  0.35352  1.0000
  N   N48       1.0  0.00581  0.68671  0.44099  1.0000
  C   C117      1.0  0.96664  0.68853  0.47119  1.0000
  C   C118      1.0  0.96102  0.69296  0.56253  1.0000
  O   O10       1.0  0.99039  0.69599  0.61403  1.0000
  H   H75       1.0  0.93714  0.68211  0.59029  1.0000
  C   C119      1.0  0.89244  0.69454  0.42525  1.0000
  H   H76       1.0  0.88788  0.70833  0.48073  1.0000
  C   C120      1.0  0.05688  0.68766  0.32577  1.0000
  C   C121      1.0  0.42897  0.32841  0.35045  1.0000
  N   N49       1.0  0.44304  0.32922  0.43754  1.0000
  C   C122      1.0  0.48341  0.32990  0.46225  1.0000
  C   C123      1.0  0.51391  0.32931  0.39595  1.0000
  H   H77       1.0  0.49110  0.33177  0.52914  1.0000
  C   C124      1.0  0.38673  0.33453  0.33214  1.0000
  C   C125      1.0  0.55565  0.33541  0.41678  1.0000
  H   H78       1.0  0.56160  0.34603  0.47744  1.0000
  C   C126      1.0  0.51659  0.69860  0.35065  1.0000
  N   N50       1.0  0.50427  0.69596  0.43773  1.0000
  C   C127      1.0  0.46440  0.69470  0.46240  1.0000
  C   C128      1.0  0.43258  0.69666  0.39605  1.0000
  H   H79       1.0  0.45806  0.69148  0.52928  1.0000
  C   C129      1.0  0.55847  0.69295  0.33225  1.0000
  C   C130      1.0  0.39125  0.69017  0.41687  1.0000
  H   H80       1.0  0.38652  0.67828  0.47750  1.0000
