data_image0
_chemical_formula_structural       C3NC3NC5NC5NC20H18C4H4C3NC3NC5NC5NC20H18C4H4C3NC3NC5NC5NC20H18C4H4C3H2NC3H2NC3H2NC3H2NC3H2NC3H2NC8H8C8H8C8H8C3HNH2NC3HNH2NC3HNH2NC3HNH2NC3HNH2NC3HNH2N
_chemical_formula_sum              "C180 N30 H120"
_cell_length_a       50.597
_cell_length_b       50.597
_cell_length_c       14.749
_cell_angle_alpha    90.016
_cell_angle_beta     89.984
_cell_angle_gamma    120

_space_group_name_H-M_alt    "P 1"
_space_group_IT_number       1

loop_
  _space_group_symop_operation_xyz
  'x, y, z'

loop_
  _atom_site_type_symbol
  _atom_site_label
  _atom_site_symmetry_multiplicity
  _atom_site_fract_x
  _atom_site_fract_y
  _atom_site_fract_z
  _atom_site_occupancy
  C   C1        1.0  0.02456  0.63987  0.34261  1.0000
  C   C2        1.0  0.05612  0.65583  0.34332  1.0000
  C   C3        1.0  0.06639  0.63481  0.34267  1.0000
  N   N1        1.0  0.04066  0.60697  0.34285  1.0000
  C   C4        1.0  0.01471  0.60868  0.34178  1.0000
  C   C5        1.0  0.98363  0.58487  0.33915  1.0000
  C   C6        1.0  0.97392  0.55318  0.33905  1.0000
  N   N2        1.0  0.99123  0.53972  0.34376  1.0000
  C   C7        1.0  0.97417  0.50891  0.33986  1.0000
  C   C8        1.0  0.94391  0.50222  0.33254  1.0000
  C   C9        1.0  0.94375  0.52939  0.33221  1.0000
  C   C10       1.0  0.98420  0.48718  0.34082  1.0000
  C   C11       1.0  0.01543  0.49489  0.34274  1.0000
  N   N3        1.0  0.04116  0.52273  0.34299  1.0000
  C   C12       1.0  0.06710  0.52103  0.34189  1.0000
  C   C13       1.0  0.05726  0.48984  0.34290  1.0000
  C   C14       1.0  0.02570  0.47388  0.34358  1.0000
  C   C15       1.0  0.09818  0.54483  0.33907  1.0000
  C   C16       1.0  0.10790  0.57652  0.33913  1.0000
  N   N4        1.0  0.09059  0.58999  0.34388  1.0000
  C   C17       1.0  0.10765  0.62079  0.34007  1.0000
  C   C18       1.0  0.13792  0.62748  0.33277  1.0000
  C   C19       1.0  0.13807  0.60031  0.33227  1.0000
  C   C20       1.0  0.09762  0.64253  0.34088  1.0000
  C   C21       1.0  0.12067  0.67405  0.33399  1.0000
  C   C22       1.0  0.17153  0.73466  0.31322  1.0000
  C   C23       1.0  0.15226  0.71875  0.23909  1.0000
  C   C24       1.0  0.12741  0.68891  0.24904  1.0000
  C   C25       1.0  0.12143  0.53674  0.33003  1.0000
  C   C26       1.0  0.17282  0.52801  0.30638  1.0000
  C   C27       1.0  0.15471  0.52702  0.23168  1.0000
  C   C28       1.0  0.12955  0.53143  0.24311  1.0000
  C   C29       1.0  0.96117  0.45566  0.33383  1.0000
  C   C30       1.0  0.95451  0.44081  0.24886  1.0000
  C   C31       1.0  0.92971  0.41094  0.23886  1.0000
  C   C32       1.0  0.91045  0.39497  0.31298  1.0000
  C   C33       1.0  0.96037  0.59295  0.33022  1.0000
  C   C34       1.0  0.95233  0.59841  0.24341  1.0000
  C   C35       1.0  0.90891  0.60155  0.30673  1.0000
  C   C36       1.0  0.92714  0.60278  0.23206  1.0000
  H   H1        1.0  0.92179  0.60610  0.16769  1.0000
  H   H2        1.0  0.96427  0.59839  0.18735  1.0000
  H   H3        1.0  0.01123  0.64978  0.34221  1.0000
  H   H4        1.0  0.06918  0.67909  0.34345  1.0000
  H   H5        1.0  0.04079  0.58806  0.34115  1.0000
  H   H6        1.0  0.04103  0.54164  0.34058  1.0000
  H   H7        1.0  0.92454  0.53109  0.32581  1.0000
  H   H8        1.0  0.92482  0.48121  0.32639  1.0000
  H   H9        1.0  0.96720  0.45197  0.19297  1.0000
  H   H10       1.0  0.92539  0.40123  0.17571  1.0000
  H   H11       1.0  0.01265  0.45061  0.34368  1.0000
  H   H12       1.0  0.07059  0.47993  0.34238  1.0000
  H   H13       1.0  0.15700  0.64848  0.32635  1.0000
  H   H14       1.0  0.15727  0.59860  0.32569  1.0000
  H   H15       1.0  0.11768  0.53157  0.18707  1.0000
  H   H16       1.0  0.16009  0.52375  0.16726  1.0000
  H   H17       1.0  0.11470  0.67778  0.19312  1.0000
  H   H18       1.0  0.15663  0.72845  0.17594  1.0000
  C   C37       1.0  0.19810  0.52435  0.29158  1.0000
  C   C38       1.0  0.88553  0.36571  0.29956  1.0000
  C   C39       1.0  0.88355  0.60511  0.29200  1.0000
  C   C40       1.0  0.19653  0.76386  0.29983  1.0000
  H   H19       1.0  0.19967  0.51584  0.23231  1.0000
  H   H20       1.0  0.88538  0.35426  0.24453  1.0000
  H   H21       1.0  0.88203  0.61373  0.23292  1.0000
  H   H22       1.0  0.19674  0.77536  0.24486  1.0000
  C   C41       1.0  0.46542  0.47258  0.34307  1.0000
  C   C42       1.0  0.44947  0.48818  0.34377  1.0000
  C   C43       1.0  0.47049  0.51946  0.34273  1.0000
  N   N5        1.0  0.49832  0.52157  0.34293  1.0000
  C   C44       1.0  0.49661  0.49391  0.34195  1.0000
  C   C45       1.0  0.52041  0.48663  0.33905  1.0000
  C   C46       1.0  0.55210  0.50861  0.33885  1.0000
  N   N6        1.0  0.56557  0.53938  0.34359  1.0000
  C   C47       1.0  0.59638  0.55312  0.33960  1.0000
  C   C48       1.0  0.60306  0.52955  0.33218  1.0000
  C   C49       1.0  0.57589  0.50222  0.33177  1.0000
  C   C50       1.0  0.61812  0.58489  0.34057  1.0000
  C   C51       1.0  0.61041  0.60840  0.34260  1.0000
  N   N7        1.0  0.58257  0.60630  0.34286  1.0000
  C   C52       1.0  0.58429  0.63395  0.34185  1.0000
  C   C53       1.0  0.61547  0.65529  0.34279  1.0000
  C   C54       1.0  0.63143  0.63968  0.34351  1.0000
  C   C55       1.0  0.56048  0.64123  0.33913  1.0000
  C   C56       1.0  0.52880  0.61926  0.33888  1.0000
  N   N8        1.0  0.51532  0.58849  0.34359  1.0000
  C   C57       1.0  0.48452  0.57474  0.33964  1.0000
  C   C58       1.0  0.47784  0.59832  0.33227  1.0000
  C   C59       1.0  0.50501  0.62565  0.33192  1.0000
  C   C60       1.0  0.46278  0.54298  0.34063  1.0000
  C   C61       1.0  0.43126  0.53451  0.33375  1.0000
  C   C62       1.0  0.37064  0.52473  0.31312  1.0000
  C   C63       1.0  0.38654  0.52135  0.23896  1.0000
  C   C64       1.0  0.41637  0.52632  0.24886  1.0000
  C   C65       1.0  0.56858  0.67257  0.33002  1.0000
  C   C66       1.0  0.57732  0.73268  0.30629  1.0000
  C   C67       1.0  0.57830  0.71554  0.23161  1.0000
  C   C68       1.0  0.57385  0.68596  0.24308  1.0000
  C   C69       1.0  0.64964  0.59337  0.33363  1.0000
  C   C70       1.0  0.66453  0.60159  0.24872  1.0000
  C   C71       1.0  0.69440  0.60667  0.23880  1.0000
  C   C72       1.0  0.71034  0.60336  0.31294  1.0000
  C   C73       1.0  0.51232  0.45529  0.33012  1.0000
  C   C74       1.0  0.50686  0.44177  0.24330  1.0000
  C   C75       1.0  0.50377  0.39523  0.30659  1.0000
  C   C76       1.0  0.50252  0.41222  0.23194  1.0000
  H   H23       1.0  0.49918  0.40353  0.16757  1.0000
  H   H24       1.0  0.50686  0.45371  0.18726  1.0000
  H   H25       1.0  0.45551  0.44934  0.34254  1.0000
  H   H26       1.0  0.42620  0.47798  0.34368  1.0000
  H   H27       1.0  0.51723  0.54060  0.34033  1.0000
  H   H28       1.0  0.56367  0.58726  0.34076  1.0000
  H   H29       1.0  0.57419  0.48131  0.32545  1.0000
  H   H30       1.0  0.62407  0.53146  0.32597  1.0000
  H   H31       1.0  0.65340  0.60317  0.19283  1.0000
  H   H32       1.0  0.70415  0.61211  0.17571  1.0000
  H   H33       1.0  0.65469  0.64989  0.34341  1.0000
  H   H34       1.0  0.62539  0.67853  0.34231  1.0000
  H   H35       1.0  0.45683  0.59641  0.32623  1.0000
  H   H36       1.0  0.50672  0.64656  0.32579  1.0000
  H   H37       1.0  0.57370  0.67393  0.18704  1.0000
  H   H38       1.0  0.58152  0.72416  0.16717  1.0000
  H   H39       1.0  0.42749  0.52475  0.19291  1.0000
  H   H40       1.0  0.37681  0.51598  0.17583  1.0000
  C   C77       1.0  0.58099  0.76163  0.29148  1.0000
  C   C78       1.0  0.73961  0.60771  0.29960  1.0000
  C   C79       1.0  0.50023  0.36633  0.29184  1.0000
  C   C80       1.0  0.34144  0.52054  0.29978  1.0000
  H   H41       1.0  0.58949  0.77168  0.23219  1.0000
  H   H42       1.0  0.75109  0.61904  0.24464  1.0000
  H   H43       1.0  0.49163  0.35618  0.23274  1.0000
  H   H44       1.0  0.32993  0.50924  0.24481  1.0000
  C   C81       1.0  0.63273  0.08073  0.34261  1.0000
  C   C82       1.0  0.61713  0.04917  0.34334  1.0000
  C   C83       1.0  0.58585  0.03890  0.34251  1.0000
  N   N9        1.0  0.58374  0.06463  0.34277  1.0000
  C   C84       1.0  0.61140  0.09057  0.34177  1.0000
  C   C85       1.0  0.61867  0.12166  0.33915  1.0000
  C   C86       1.0  0.59669  0.13137  0.33903  1.0000
  N   N10       1.0  0.56592  0.11406  0.34370  1.0000
  C   C87       1.0  0.55217  0.13112  0.33987  1.0000
  C   C88       1.0  0.57575  0.16139  0.33256  1.0000
  C   C89       1.0  0.60307  0.16154  0.33214  1.0000
  C   C90       1.0  0.52041  0.12109  0.34075  1.0000
  C   C91       1.0  0.49689  0.08986  0.34251  1.0000
  N   N11       1.0  0.49900  0.06413  0.34277  1.0000
  C   C92       1.0  0.47135  0.03819  0.34160  1.0000
  C   C93       1.0  0.45001  0.04803  0.34231  1.0000
  C   C94       1.0  0.46561  0.07959  0.34307  1.0000
  C   C95       1.0  0.46407  0.00710  0.33896  1.0000
  C   C96       1.0  0.48605  0.99740  0.33879  1.0000
  N   N12       1.0  0.51682  0.01470  0.34343  1.0000
  C   C97       1.0  0.53057  0.99764  0.33959  1.0000
  C   C98       1.0  0.50699  0.96737  0.33237  1.0000
  C   C99       1.0  0.47967  0.96722  0.33203  1.0000
  C   C100      1.0  0.56234  0.00767  0.34058  1.0000
  C   C101      1.0  0.57081  0.98463  0.33367  1.0000
  C   C102      1.0  0.58060  0.93378  0.31300  1.0000
  C   C103      1.0  0.58393  0.95302  0.23882  1.0000
  C   C104      1.0  0.57895  0.97788  0.24873  1.0000
  C   C105      1.0  0.43274  0.98386  0.32985  1.0000
  C   C106      1.0  0.37261  0.93249  0.30626  1.0000
  C   C107      1.0  0.38976  0.95056  0.23153  1.0000
  C   C108      1.0  0.41934  0.97572  0.24293  1.0000
  C   C109      1.0  0.51192  0.14413  0.33370  1.0000
  C   C110      1.0  0.50379  0.15082  0.24871  1.0000
  C   C111      1.0  0.49871  0.17561  0.23872  1.0000
  C   C112      1.0  0.50197  0.19485  0.31285  1.0000
  C   C113      1.0  0.65001  0.14492  0.33016  1.0000
  C   C114      1.0  0.66351  0.15296  0.24333  1.0000
  C   C115      1.0  0.71007  0.19640  0.30662  1.0000
  C   C116      1.0  0.69305  0.17817  0.23196  1.0000
  H   H45       1.0  0.70175  0.18351  0.16759  1.0000
  H   H46       1.0  0.65156  0.14103  0.18729  1.0000
  H   H47       1.0  0.65598  0.09406  0.34219  1.0000
  H   H48       1.0  0.62735  0.03611  0.34326  1.0000
  H   H49       1.0  0.56471  0.06450  0.34076  1.0000
  H   H50       1.0  0.51804  0.06426  0.34119  1.0000
  H   H51       1.0  0.62398  0.18075  0.32590  1.0000
  H   H52       1.0  0.57383  0.18047  0.32646  1.0000
  H   H53       1.0  0.50225  0.13811  0.19283  1.0000
  H   H54       1.0  0.49335  0.17994  0.17555  1.0000
  H   H55       1.0  0.45539  0.09265  0.34299  1.0000
  H   H56       1.0  0.42677  0.03470  0.34171  1.0000
  H   H57       1.0  0.50891  0.94827  0.32657  1.0000
  H   H58       1.0  0.45875  0.94800  0.32605  1.0000
  H   H59       1.0  0.43138  0.98754  0.18686  1.0000
  H   H60       1.0  0.38114  0.94514  0.16709  1.0000
  H   H61       1.0  0.58051  0.99057  0.19280  1.0000
  H   H62       1.0  0.58928  0.94865  0.17569  1.0000
  C   C117      1.0  0.34367  0.90721  0.29150  1.0000
  C   C118      1.0  0.49764  0.21977  0.29944  1.0000
  C   C119      1.0  0.73897  0.22175  0.29187  1.0000
  C   C120      1.0  0.58480  0.90878  0.29965  1.0000
  H   H63       1.0  0.33360  0.90565  0.23224  1.0000
  H   H64       1.0  0.48636  0.21994  0.24437  1.0000
  H   H65       1.0  0.74912  0.22329  0.23277  1.0000
  H   H66       1.0  0.59611  0.90857  0.24472  1.0000
  C   C121      1.0  0.28846  0.53105  0.26827  1.0000
  C   C122      1.0  0.26078  0.53128  0.26602  1.0000
  C   C123      1.0  0.24559  0.53070  0.34704  1.0000
  H   H67       1.0  0.29903  0.53216  0.20813  1.0000
  H   H68       1.0  0.25217  0.53252  0.20449  1.0000
  N   N13       1.0  0.21968  0.53178  0.34986  1.0000
  C   C124      1.0  0.57433  0.84530  0.26814  1.0000
  C   C125      1.0  0.57410  0.81739  0.26589  1.0000
  C   C126      1.0  0.57464  0.80277  0.34692  1.0000
  H   H69       1.0  0.57321  0.85475  0.20800  1.0000
  H   H70       1.0  0.57286  0.80754  0.20437  1.0000
  N   N14       1.0  0.57355  0.77579  0.34974  1.0000
  C   C127      1.0  0.26001  0.81687  0.26826  1.0000
  C   C128      1.0  0.28792  0.84454  0.26598  1.0000
  C   C129      1.0  0.30253  0.85973  0.34698  1.0000
  H   H71       1.0  0.25056  0.80628  0.20813  1.0000
  H   H72       1.0  0.29777  0.85314  0.20445  1.0000
  N   N15       1.0  0.32952  0.88563  0.34978  1.0000
  C   C130      1.0  0.79291  0.59770  0.26825  1.0000
  C   C131      1.0  0.82069  0.59768  0.26610  1.0000
  C   C132      1.0  0.83586  0.59829  0.34717  1.0000
  H   H73       1.0  0.78236  0.59656  0.20807  1.0000
  H   H74       1.0  0.82939  0.59655  0.20459  1.0000
  N   N16       1.0  0.86185  0.59738  0.35005  1.0000
  C   C133      1.0  0.50765  0.28309  0.26814  1.0000
  C   C134      1.0  0.50767  0.31090  0.26598  1.0000
  C   C135      1.0  0.50702  0.32545  0.34704  1.0000
  H   H75       1.0  0.50880  0.27367  0.20796  1.0000
  H   H76       1.0  0.50882  0.32072  0.20447  1.0000
  N   N17       1.0  0.50793  0.35235  0.34992  1.0000
  C   C136      1.0  0.82223  0.31239  0.26822  1.0000
  C   C137      1.0  0.79443  0.28461  0.26604  1.0000
  C   C138      1.0  0.77985  0.26944  0.34710  1.0000
  H   H77       1.0  0.83165  0.32295  0.20804  1.0000
  H   H78       1.0  0.78460  0.27593  0.20453  1.0000
  N   N18       1.0  0.75295  0.24344  0.34995  1.0000
  C   C139      1.0  0.13944  0.68994  0.40873  1.0000
  C   C140      1.0  0.16444  0.71975  0.39849  1.0000
  C   C141      1.0  0.13910  0.53742  0.40518  1.0000
  C   C142      1.0  0.16433  0.53305  0.39352  1.0000
  C   C143      1.0  0.91747  0.40989  0.39826  1.0000
  C   C144      1.0  0.94240  0.43974  0.40853  1.0000
  C   C145      1.0  0.94262  0.59210  0.40537  1.0000
  C   C146      1.0  0.91734  0.59641  0.39379  1.0000
  H   H79       1.0  0.90484  0.59525  0.44974  1.0000
  H   H80       1.0  0.94750  0.58750  0.46879  1.0000
  H   H81       1.0  0.94630  0.45013  0.47054  1.0000
  H   H82       1.0  0.90422  0.39930  0.45376  1.0000
  H   H83       1.0  0.13416  0.54191  0.46869  1.0000
  H   H84       1.0  0.17674  0.53404  0.44950  1.0000
  H   H85       1.0  0.17770  0.73029  0.45400  1.0000
  H   H86       1.0  0.13552  0.67953  0.47069  1.0000
  C   C147      1.0  0.41539  0.53741  0.40853  1.0000
  C   C148      1.0  0.38558  0.53259  0.39836  1.0000
  C   C149      1.0  0.56792  0.68958  0.40515  1.0000
  C   C150      1.0  0.57230  0.71919  0.39346  1.0000
  C   C151      1.0  0.69539  0.59544  0.39817  1.0000
  C   C152      1.0  0.66553  0.59051  0.40837  1.0000
  C   C153      1.0  0.51323  0.43841  0.40523  1.0000
  C   C154      1.0  0.50893  0.40883  0.39365  1.0000
  H   H87       1.0  0.51010  0.39750  0.44960  1.0000
  H   H88       1.0  0.51782  0.44789  0.46865  1.0000
  H   H89       1.0  0.65511  0.58398  0.47032  1.0000
  H   H90       1.0  0.70595  0.59275  0.45368  1.0000
  H   H91       1.0  0.56347  0.68019  0.46869  1.0000
  H   H92       1.0  0.57134  0.73063  0.44944  1.0000
  H   H93       1.0  0.37504  0.53533  0.45387  1.0000
  H   H94       1.0  0.42582  0.54393  0.47047  1.0000
  C   C155      1.0  0.56796  0.96589  0.40847  1.0000
  C   C156      1.0  0.57277  0.94089  0.39828  1.0000
  C   C157      1.0  0.41573  0.96624  0.40504  1.0000
  C   C158      1.0  0.38611  0.94102  0.39342  1.0000
  C   C159      1.0  0.50982  0.18782  0.39815  1.0000
  C   C160      1.0  0.51474  0.16289  0.40842  1.0000
  C   C161      1.0  0.66691  0.16267  0.40531  1.0000
  C   C162      1.0  0.69648  0.18796  0.39370  1.0000
  H   H95       1.0  0.70783  0.20045  0.44966  1.0000
  H   H96       1.0  0.65743  0.15779  0.46874  1.0000
  H   H97       1.0  0.52121  0.15898  0.47044  1.0000
  H   H98       1.0  0.51247  0.20106  0.45365  1.0000
  H   H99       1.0  0.42513  0.97121  0.46857  1.0000
  H   H100      1.0  0.37467  0.92864  0.44943  1.0000
  H   H101      1.0  0.57008  0.92766  0.45381  1.0000
  H   H102      1.0  0.56147  0.96983  0.47044  1.0000
  C   C163      1.0  0.25942  0.53060  0.43003  1.0000
  C   C164      1.0  0.28733  0.53034  0.43384  1.0000
  C   C165      1.0  0.30194  0.53015  0.35149  1.0000
  H   H103      1.0  0.24887  0.53071  0.48923  1.0000
  N   N19       1.0  0.29926  0.53018  0.51639  1.0000
  H   H104      1.0  0.28905  0.53022  0.57231  1.0000
  H   H105      1.0  0.31820  0.52981  0.52245  1.0000
  N   N20       1.0  0.32887  0.53103  0.35399  1.0000
  C   C166      1.0  0.57472  0.81671  0.42991  1.0000
  C   C167      1.0  0.57498  0.84488  0.43371  1.0000
  C   C168      1.0  0.57520  0.85968  0.35136  1.0000
  H   H106      1.0  0.57459  0.80605  0.48911  1.0000
  N   N21       1.0  0.57512  0.85699  0.51626  1.0000
  H   H107      1.0  0.57506  0.84673  0.57218  1.0000
  H   H108      1.0  0.57548  0.87628  0.52231  1.0000
  N   N22       1.0  0.57430  0.88573  0.35385  1.0000
  C   C169      1.0  0.28861  0.84590  0.42999  1.0000
  C   C170      1.0  0.26043  0.81799  0.43382  1.0000
  C   C171      1.0  0.24562  0.80339  0.35149  1.0000
  H   H109      1.0  0.29927  0.85645  0.48918  1.0000
  N   N23       1.0  0.24834  0.80606  0.51639  1.0000
  H   H110      1.0  0.25860  0.81627  0.57229  1.0000
  H   H111      1.0  0.22903  0.78712  0.52247  1.0000
  N   N24       1.0  0.21958  0.77645  0.35403  1.0000
  C   C172      1.0  0.82191  0.59821  0.43012  1.0000
  C   C173      1.0  0.79389  0.59827  0.43383  1.0000
  C   C174      1.0  0.77930  0.59843  0.35143  1.0000
  H   H112      1.0  0.83244  0.59813  0.48935  1.0000
  N   N25       1.0  0.78185  0.59829  0.51635  1.0000
  H   H113      1.0  0.79205  0.59828  0.57229  1.0000
  H   H114      1.0  0.76283  0.59851  0.52235  1.0000
  N   N26       1.0  0.75228  0.59736  0.35387  1.0000
  C   C175      1.0  0.50707  0.31157  0.42999  1.0000
  C   C176      1.0  0.50701  0.28349  0.43371  1.0000
  C   C177      1.0  0.50688  0.26875  0.35132  1.0000
  H   H115      1.0  0.50713  0.32219  0.48922  1.0000
  N   N27       1.0  0.50696  0.27144  0.51624  1.0000
  H   H116      1.0  0.50695  0.28165  0.57218  1.0000
  H   H117      1.0  0.50674  0.25220  0.52223  1.0000
  N   N28       1.0  0.50794  0.24279  0.35376  1.0000
  C   C178      1.0  0.79372  0.28337  0.43006  1.0000
  C   C179      1.0  0.82180  0.31139  0.43379  1.0000
  C   C180      1.0  0.83656  0.32599  0.35141  1.0000
  H   H118      1.0  0.78309  0.27283  0.48929  1.0000
  N   N29       1.0  0.83384  0.32342  0.51632  1.0000
  H   H119      1.0  0.82361  0.31321  0.57226  1.0000
  H   H120      1.0  0.85307  0.34244  0.52233  1.0000
  N   N30       1.0  0.86251  0.35301  0.35386  1.0000
