data_image0
_chemical_formula_structural       CNC2NC4NC18H14C2NC16H12C3NC2NC5NC4NC18H14CNC16H12C11H11CNCNC4NC16H13N24C7NC12H12C2NC3NC3NC18H14C12H12C3NC3NC3NC18H14C3NC3NC2NC5NC20H15C8NC14H13C4NH3C4NH3C4NH3C4NH3C4NH3C4NH3C4NH3C4NH3C4NH3C4NH3C4NH3C4NH3
_chemical_formula_sum              "C312 N60 H192"
_cell_length_a       56.8316
_cell_length_b       56.8317
_cell_length_c       14.9699
_cell_angle_alpha    90.0018
_cell_angle_beta     89.9652
_cell_angle_gamma    120

_space_group_name_H-M_alt    "P 1"
_space_group_IT_number       1

loop_
  _space_group_symop_operation_xyz
  'x, y, z'

loop_
  _atom_site_type_symbol
  _atom_site_label
  _atom_site_symmetry_multiplicity
  _atom_site_fract_x
  _atom_site_fract_y
  _atom_site_fract_z
  _atom_site_occupancy
  C   C1        1.0  0.28773  0.53014  0.35921  1.0000
  N   N1        1.0  0.27915  0.48895  0.32631  1.0000
  C   C2        1.0  0.30651  0.50395  0.33588  1.0000
  C   C3        1.0  0.32655  0.49612  0.32514  1.0000
  N   N2        1.0  0.29583  0.44607  0.32333  1.0000
  C   C4        1.0  0.29762  0.42331  0.31619  1.0000
  C   C5        1.0  0.32518  0.43203  0.30431  1.0000
  C   C6        1.0  0.33922  0.46007  0.30359  1.0000
  C   C7        1.0  0.27626  0.39593  0.32360  1.0000
  N   N3        1.0  0.23593  0.40288  0.32562  1.0000
  C   C8        1.0  0.20855  0.38777  0.33493  1.0000
  C   C9        1.0  0.22730  0.36113  0.34641  1.0000
  C   C10       1.0  0.21751  0.46878  0.32477  1.0000
  C   C11       1.0  0.23892  0.49602  0.33235  1.0000
  C   C12       1.0  0.23197  0.51684  0.33704  1.0000
  C   C13       1.0  0.23439  0.53252  0.26087  1.0000
  C   C14       1.0  0.23052  0.55506  0.26770  1.0000
  C   C15       1.0  0.22462  0.56286  0.35092  1.0000
  C   C16       1.0  0.14642  0.35995  0.26202  1.0000
  C   C17       1.0  0.11826  0.34160  0.26683  1.0000
  C   C18       1.0  0.28392  0.37561  0.32881  1.0000
  C   C19       1.0  0.30483  0.33922  0.34079  1.0000
  C   C20       1.0  0.29979  0.34738  0.25685  1.0000
  C   C21       1.0  0.28933  0.36517  0.25078  1.0000
  C   C22       1.0  0.35445  0.51702  0.32766  1.0000
  C   C23       1.0  0.36542  0.53682  0.25935  1.0000
  C   C24       1.0  0.39148  0.55974  0.26834  1.0000
  C   C25       1.0  0.40729  0.56344  0.34563  1.0000
  H   H1        1.0  0.39814  0.57446  0.22009  1.0000
  H   H2        1.0  0.35392  0.53545  0.20487  1.0000
  H   H3        1.0  0.28598  0.54680  0.37322  1.0000
  H   H4        1.0  0.26977  0.47045  0.30523  1.0000
  H   H5        1.0  0.24535  0.42186  0.31001  1.0000
  H   H6        1.0  0.35981  0.47187  0.29679  1.0000
  H   H7        1.0  0.33398  0.42024  0.29768  1.0000
  H   H8        1.0  0.28649  0.37111  0.18908  1.0000
  H   H9        1.0  0.30384  0.34055  0.19884  1.0000
  H   H10       1.0  0.22903  0.34418  0.35370  1.0000
  H   H11       1.0  0.15631  0.36232  0.20264  1.0000
  H   H12       1.0  0.10842  0.33081  0.21088  1.0000
  H   H13       1.0  0.23360  0.56661  0.21179  1.0000
  H   H14       1.0  0.23990  0.52822  0.20061  1.0000
  C   C26       1.0  0.53974  0.75815  0.36065  1.0000
  C   C27       1.0  0.56591  0.80309  0.33685  1.0000
  N   N4        1.0  0.62374  0.85026  0.32373  1.0000
  C   C28       1.0  0.64650  0.87482  0.31655  1.0000
  C   C29       1.0  0.63778  0.89364  0.30441  1.0000
  C   C30       1.0  0.60974  0.87964  0.30361  1.0000
  C   C31       1.0  0.67387  0.88084  0.32414  1.0000
  C   C32       1.0  0.68205  0.82130  0.33521  1.0000
  C   C33       1.0  0.70869  0.86669  0.34667  1.0000
  C   C34       1.0  0.60104  0.74926  0.32534  1.0000
  C   C35       1.0  0.53727  0.70243  0.26134  1.0000
  C   C36       1.0  0.51474  0.67603  0.26811  1.0000
  C   C37       1.0  0.70988  0.78697  0.26239  1.0000
  C   C38       1.0  0.72823  0.77717  0.26724  1.0000
  C   C39       1.0  0.69420  0.90884  0.32926  1.0000
  C   C40       1.0  0.72245  0.95289  0.25711  1.0000
  C   C41       1.0  0.70467  0.92465  0.25116  1.0000
  C   C42       1.0  0.53296  0.82897  0.25975  1.0000
  C   C43       1.0  0.51005  0.83213  0.26863  1.0000
  H   H15       1.0  0.49534  0.82405  0.22039  1.0000
  H   H16       1.0  0.53435  0.81882  0.20532  1.0000
  H   H17       1.0  0.52307  0.73974  0.37464  1.0000
  H   H18       1.0  0.59795  0.88841  0.29653  1.0000
  H   H19       1.0  0.64957  0.91423  0.29768  1.0000
  H   H20       1.0  0.69873  0.91584  0.18949  1.0000
  H   H21       1.0  0.72930  0.96376  0.19906  1.0000
  H   H22       1.0  0.72564  0.88538  0.35387  1.0000
  H   H23       1.0  0.70754  0.79451  0.20303  1.0000
  H   H24       1.0  0.73903  0.77811  0.21130  1.0000
  H   H25       1.0  0.50318  0.66758  0.21222  1.0000
  H   H26       1.0  0.54157  0.71228  0.20114  1.0000
  C   C44       1.0  0.28743  0.75786  0.35776  1.0000
  C   C45       1.0  0.31170  0.78209  0.35905  1.0000
  C   C46       1.0  0.30634  0.80296  0.33886  1.0000
  N   N5        1.0  0.27911  0.79069  0.32614  1.0000
  C   C47       1.0  0.26674  0.76333  0.33558  1.0000
  C   C48       1.0  0.23890  0.74329  0.32458  1.0000
  N   N6        1.0  0.21956  0.77400  0.32271  1.0000
  C   C49       1.0  0.19501  0.77221  0.31557  1.0000
  C   C50       1.0  0.17618  0.74465  0.30383  1.0000
  C   C51       1.0  0.19017  0.73061  0.30311  1.0000
  C   C52       1.0  0.18899  0.79356  0.32314  1.0000
  C   C53       1.0  0.20881  0.82157  0.33132  1.0000
  N   N7        1.0  0.23626  0.83391  0.32493  1.0000
  C   C54       1.0  0.24852  0.86129  0.33433  1.0000
  C   C55       1.0  0.22742  0.86683  0.34754  1.0000
  C   C56       1.0  0.20311  0.84253  0.34540  1.0000
  C   C57       1.0  0.27661  0.88118  0.33055  1.0000
  N   N8        1.0  0.29596  0.85045  0.32985  1.0000
  C   C58       1.0  0.32058  0.85232  0.32490  1.0000
  C   C59       1.0  0.32640  0.83090  0.33210  1.0000
  C   C60       1.0  0.35417  0.83785  0.33690  1.0000
  C   C61       1.0  0.36747  0.83540  0.26082  1.0000
  C   C62       1.0  0.39386  0.83927  0.26775  1.0000
  C   C63       1.0  0.40755  0.84522  0.35097  1.0000
  C   C64       1.0  0.28425  0.90916  0.33711  1.0000
  C   C65       1.0  0.28292  0.92347  0.26192  1.0000
  C   C66       1.0  0.29272  0.95162  0.26685  1.0000
  C   C67       1.0  0.30385  0.96615  0.34711  1.0000
  C   C68       1.0  0.16099  0.78589  0.32839  1.0000
  C   C69       1.0  0.10370  0.76497  0.34043  1.0000
  C   C70       1.0  0.11691  0.76999  0.25647  1.0000
  C   C71       1.0  0.14515  0.78045  0.25037  1.0000
  C   C72       1.0  0.23190  0.71539  0.32717  1.0000
  C   C73       1.0  0.24074  0.70443  0.25889  1.0000
  C   C74       1.0  0.23765  0.67839  0.26802  1.0000
  C   C75       1.0  0.22548  0.66255  0.34526  1.0000
  H   H27       1.0  0.24567  0.67171  0.21969  1.0000
  H   H28       1.0  0.25090  0.71594  0.20443  1.0000
  H   H29       1.0  0.33010  0.78383  0.37315  1.0000
  H   H30       1.0  0.27005  0.80007  0.30443  1.0000
  H   H31       1.0  0.24585  0.82445  0.31049  1.0000
  H   H32       1.0  0.18139  0.71002  0.29628  1.0000
  H   H33       1.0  0.15559  0.73584  0.29730  1.0000
  H   H34       1.0  0.15394  0.78327  0.18866  1.0000
  H   H35       1.0  0.10602  0.76590  0.19848  1.0000
  H   H36       1.0  0.18442  0.84079  0.35257  1.0000
  H   H37       1.0  0.27545  0.91362  0.20250  1.0000
  H   H38       1.0  0.29184  0.96150  0.21089  1.0000
  H   H39       1.0  0.40236  0.83619  0.21188  1.0000
  H   H40       1.0  0.35767  0.82987  0.20055  1.0000
  C   C76       1.0  0.78623  0.54295  0.33631  1.0000
  N   N9        1.0  0.79692  0.60084  0.32397  1.0000
  C   C77       1.0  0.79513  0.62360  0.31693  1.0000
  C   C78       1.0  0.76758  0.61489  0.30524  1.0000
  C   C79       1.0  0.75353  0.58685  0.30468  1.0000
  C   C80       1.0  0.81650  0.65098  0.32430  1.0000
  C   C81       1.0  0.88423  0.65916  0.33504  1.0000
  C   C82       1.0  0.86548  0.68581  0.34613  1.0000
  C   C83       1.0  0.87525  0.57812  0.32554  1.0000
  C   C84       1.0  0.85838  0.51437  0.26130  1.0000
  C   C85       1.0  0.86220  0.49181  0.26821  1.0000
  C   C86       1.0  0.94637  0.68693  0.26225  1.0000
  C   C87       1.0  0.97452  0.70527  0.26699  1.0000
  C   C88       1.0  0.80884  0.67131  0.32940  1.0000
  C   C89       1.0  0.79299  0.69952  0.25729  1.0000
  C   C90       1.0  0.80347  0.68175  0.25132  1.0000
  C   C91       1.0  0.72732  0.51014  0.25997  1.0000
  C   C92       1.0  0.70126  0.48722  0.26899  1.0000
  H   H41       1.0  0.69459  0.47253  0.22065  1.0000
  H   H42       1.0  0.73882  0.51153  0.20540  1.0000
  H   H43       1.0  0.80673  0.50006  0.37327  1.0000
  H   H44       1.0  0.73295  0.57506  0.29769  1.0000
  H   H45       1.0  0.75878  0.62668  0.29869  1.0000
  H   H46       1.0  0.80628  0.67576  0.18965  1.0000
  H   H47       1.0  0.78893  0.70632  0.19926  1.0000
  H   H48       1.0  0.86375  0.70277  0.35330  1.0000
  H   H49       1.0  0.93650  0.68452  0.20285  1.0000
  H   H50       1.0  0.98438  0.71603  0.21097  1.0000
  H   H51       1.0  0.85919  0.48029  0.21226  1.0000
  H   H52       1.0  0.85288  0.51867  0.20103  1.0000
  C   C93       1.0  0.44626  0.17209  0.31691  1.0000
  C   C94       1.0  0.45499  0.15326  0.30502  1.0000
  C   C95       1.0  0.48302  0.16725  0.30437  1.0000
  C   C96       1.0  0.55546  0.34455  0.26192  1.0000
  C   C97       1.0  0.57799  0.37095  0.26878  1.0000
  C   C98       1.0  0.38291  0.25993  0.26260  1.0000
  C   C99       1.0  0.36457  0.26974  0.26733  1.0000
  C   C100      1.0  0.37036  0.09403  0.25713  1.0000
  C   C101      1.0  0.38815  0.12227  0.25121  1.0000
  C   C102      1.0  0.55977  0.21782  0.26017  1.0000
  C   C103      1.0  0.58269  0.21468  0.26908  1.0000
  H   H53       1.0  0.59741  0.22275  0.22081  1.0000
  H   H54       1.0  0.55840  0.22797  0.20571  1.0000
  H   H55       1.0  0.56974  0.30720  0.37426  1.0000
  H   H56       1.0  0.49482  0.15847  0.29756  1.0000
  H   H57       1.0  0.39412  0.13110  0.18956  1.0000
  H   H58       1.0  0.36355  0.08317  0.19908  1.0000
  H   H59       1.0  0.36711  0.16152  0.35422  1.0000
  H   H60       1.0  0.38531  0.25242  0.20327  1.0000
  H   H61       1.0  0.35380  0.26880  0.21134  1.0000
  H   H62       1.0  0.58954  0.37945  0.21286  1.0000
  H   H63       1.0  0.55116  0.33476  0.20164  1.0000
  C   C104      1.0  0.78108  0.26477  0.36078  1.0000
  N   N10       1.0  0.81368  0.25618  0.32748  1.0000
  C   C105      1.0  0.82603  0.28355  0.33689  1.0000
  N   N11       1.0  0.87320  0.27289  0.32360  1.0000
  C   C106      1.0  0.89775  0.27469  0.31635  1.0000
  C   C107      1.0  0.91657  0.30224  0.30422  1.0000
  C   C108      1.0  0.90257  0.31627  0.30350  1.0000
  C   C109      1.0  0.90377  0.25334  0.32386  1.0000
  N   N12       1.0  0.85650  0.21299  0.32570  1.0000
  C   C110      1.0  0.84423  0.18562  0.33500  1.0000
  C   C111      1.0  0.88963  0.20437  0.34640  1.0000
  C   C112      1.0  0.77219  0.19459  0.32534  1.0000
  C   C113      1.0  0.76637  0.21601  0.33295  1.0000
  C   C114      1.0  0.72536  0.21155  0.26156  1.0000
  C   C115      1.0  0.69896  0.20768  0.26842  1.0000
  C   C116      1.0  0.68522  0.20171  0.35162  1.0000
  C   C117      1.0  0.80991  0.12347  0.26220  1.0000
  C   C118      1.0  0.80011  0.09532  0.26703  1.0000
  C   C119      1.0  0.93177  0.26101  0.32898  1.0000
  C   C120      1.0  0.98906  0.28191  0.34075  1.0000
  C   C121      1.0  0.97583  0.27682  0.25685  1.0000
  C   C122      1.0  0.94759  0.26637  0.25089  1.0000
  C   C123      1.0  0.86085  0.33149  0.32795  1.0000
  C   C124      1.0  0.85191  0.34241  0.25985  1.0000
  C   C125      1.0  0.85507  0.36848  0.26880  1.0000
  H   H64       1.0  0.84699  0.37512  0.22059  1.0000
  H   H65       1.0  0.84176  0.33089  0.20542  1.0000
  H   H66       1.0  0.76267  0.26303  0.37482  1.0000
  H   H67       1.0  0.82271  0.24689  0.30474  1.0000
  H   H68       1.0  0.91135  0.33685  0.29645  1.0000
  H   H69       1.0  0.93716  0.31104  0.29744  1.0000
  H   H70       1.0  0.93879  0.26351  0.18922  1.0000
  H   H71       1.0  0.98671  0.28086  0.19881  1.0000
  H   H72       1.0  0.90831  0.20611  0.35357  1.0000
  H   H73       1.0  0.81745  0.13336  0.20284  1.0000
  H   H74       1.0  0.80106  0.08547  0.21108  1.0000
  H   H75       1.0  0.69050  0.21080  0.21257  1.0000
  H   H76       1.0  0.73520  0.21711  0.20133  1.0000
  N   N13       1.0  0.21599  0.61979  0.28733  1.0000
  N   N14       1.0  0.21552  0.59659  0.28761  1.0000
  N   N15       1.0  0.45007  0.59670  0.28774  1.0000
  N   N16       1.0  0.47326  0.61945  0.28800  1.0000
  N   N17       1.0  0.47312  0.85381  0.28759  1.0000
  N   N18       1.0  0.45039  0.85429  0.28776  1.0000
  N   N19       1.0  0.87675  0.42708  0.28788  1.0000
  N   N20       1.0  0.87721  0.45028  0.28810  1.0000
  N   N21       1.0  0.64270  0.45023  0.28852  1.0000
  N   N22       1.0  0.61949  0.42749  0.28878  1.0000
  N   N23       1.0  0.61964  0.19303  0.28830  1.0000
  N   N24       1.0  0.64238  0.19258  0.28848  1.0000
  N   N25       1.0  0.06039  0.32484  0.28496  1.0000
  N   N26       1.0  0.03387  0.31211  0.28289  1.0000
  N   N27       1.0  0.74498  0.73606  0.28543  1.0000
  N   N28       1.0  0.75771  0.72227  0.28337  1.0000
  N   N29       1.0  0.33381  0.00946  0.28517  1.0000
  N   N30       1.0  0.34760  0.03598  0.28313  1.0000
  N   N31       1.0  0.03236  0.72198  0.28509  1.0000
  N   N32       1.0  0.05889  0.73470  0.28292  1.0000
  N   N33       1.0  0.34779  0.31084  0.28528  1.0000
  N   N34       1.0  0.33507  0.32463  0.28312  1.0000
  N   N35       1.0  0.75900  0.03746  0.28518  1.0000
  N   N36       1.0  0.74520  0.01093  0.28313  1.0000
  C   C126      1.0  0.31196  0.53011  0.35792  1.0000
  C   C127      1.0  0.26686  0.50391  0.33910  1.0000
  C   C128      1.0  0.32045  0.46878  0.31658  1.0000
  C   C129      1.0  0.24825  0.38776  0.33194  1.0000
  C   C130      1.0  0.20301  0.36115  0.34860  1.0000
  C   C131      1.0  0.18865  0.39596  0.33074  1.0000
  C   C132      1.0  0.19472  0.42337  0.32440  1.0000
  N   N37       1.0  0.21938  0.44603  0.32987  1.0000
  C   C133      1.0  0.18996  0.46024  0.31548  1.0000
  C   C134      1.0  0.17589  0.43220  0.31512  1.0000
  C   C135      1.0  0.22137  0.54639  0.42628  1.0000
  C   C136      1.0  0.22503  0.52372  0.41963  1.0000
  C   C137      1.0  0.16067  0.37561  0.33721  1.0000
  C   C138      1.0  0.10368  0.33823  0.34701  1.0000
  C   C139      1.0  0.11807  0.35418  0.42178  1.0000
  C   C140      1.0  0.14620  0.37243  0.41730  1.0000
  C   C141      1.0  0.28880  0.36758  0.41281  1.0000
  C   C142      1.0  0.29895  0.34957  0.41858  1.0000
  C   C143      1.0  0.37076  0.51992  0.40273  1.0000
  C   C144      1.0  0.39704  0.54258  0.41070  1.0000
  H   H77       1.0  0.40812  0.54437  0.46673  1.0000
  H   H78       1.0  0.36324  0.50607  0.45370  1.0000
  H   H79       1.0  0.33044  0.54678  0.37106  1.0000
  H   H80       1.0  0.28577  0.37546  0.47035  1.0000
  H   H81       1.0  0.30323  0.34517  0.48065  1.0000
  H   H82       1.0  0.18441  0.34423  0.35778  1.0000
  H   H83       1.0  0.18125  0.47216  0.31095  1.0000
  H   H84       1.0  0.15526  0.42047  0.30985  1.0000
  H   H85       1.0  0.15590  0.38405  0.47205  1.0000
  H   H86       1.0  0.10804  0.35320  0.47970  1.0000
  H   H87       1.0  0.22349  0.51285  0.47602  1.0000
  H   H88       1.0  0.21669  0.55093  0.48751  1.0000
  C   C145      1.0  0.53978  0.78242  0.35940  1.0000
  C   C146      1.0  0.56594  0.76350  0.34010  1.0000
  N   N38       1.0  0.58093  0.79074  0.32747  1.0000
  C   C147      1.0  0.57370  0.83092  0.32546  1.0000
  C   C148      1.0  0.60104  0.85217  0.31667  1.0000
  C   C149      1.0  0.68206  0.86101  0.33230  1.0000
  N   N39       1.0  0.66694  0.83357  0.32591  1.0000
  C   C150      1.0  0.70867  0.84238  0.34868  1.0000
  C   C151      1.0  0.67385  0.79321  0.33109  1.0000
  C   C152      1.0  0.64644  0.77187  0.32494  1.0000
  N   N40       1.0  0.62378  0.77387  0.33049  1.0000
  C   C153      1.0  0.60957  0.73024  0.31580  1.0000
  C   C154      1.0  0.63761  0.74421  0.31546  1.0000
  C   C155      1.0  0.57379  0.74343  0.33287  1.0000
  C   C156      1.0  0.55297  0.71566  0.33751  1.0000
  C   C157      1.0  0.50694  0.66229  0.35127  1.0000
  C   C158      1.0  0.52340  0.67549  0.42663  1.0000
  C   C159      1.0  0.54609  0.70178  0.42001  1.0000
  C   C160      1.0  0.69420  0.78557  0.33758  1.0000
  C   C161      1.0  0.73158  0.76597  0.34743  1.0000
  C   C162      1.0  0.71562  0.76442  0.42221  1.0000
  C   C163      1.0  0.69734  0.77428  0.41767  1.0000
  C   C164      1.0  0.70220  0.92176  0.41321  1.0000
  C   C165      1.0  0.72021  0.94993  0.41886  1.0000
  C   C166      1.0  0.73058  0.96613  0.34100  1.0000
  C   C167      1.0  0.55279  0.83791  0.32790  1.0000
  C   C168      1.0  0.54989  0.85138  0.40283  1.0000
  C   C169      1.0  0.50637  0.84434  0.34574  1.0000
  C   C170      1.0  0.52722  0.85500  0.41074  1.0000
  H   H89       1.0  0.52545  0.86437  0.46663  1.0000
  H   H90       1.0  0.56376  0.85779  0.45372  1.0000
  H   H91       1.0  0.52309  0.78422  0.37239  1.0000
  H   H92       1.0  0.59927  0.79977  0.30476  1.0000
  H   H93       1.0  0.64793  0.82401  0.31090  1.0000
  H   H94       1.0  0.69434  0.91088  0.47079  1.0000
  H   H95       1.0  0.72463  0.95863  0.48090  1.0000
  H   H96       1.0  0.72560  0.84071  0.35787  1.0000
  H   H97       1.0  0.59764  0.70962  0.31091  1.0000
  H   H98       1.0  0.64935  0.73532  0.30980  1.0000
  H   H99       1.0  0.68572  0.77237  0.47243  1.0000
  H   H100      1.0  0.71656  0.75535  0.48011  1.0000
  H   H101      1.0  0.55694  0.71112  0.47643  1.0000
  H   H102      1.0  0.51885  0.66624  0.48781  1.0000
  C   C171      1.0  0.21765  0.74938  0.31589  1.0000
  C   C172      1.0  0.29796  0.87512  0.32457  1.0000
  C   C173      1.0  0.33960  0.87988  0.31572  1.0000
  C   C174      1.0  0.32564  0.89395  0.31538  1.0000
  C   C175      1.0  0.39428  0.84847  0.42624  1.0000
  C   C176      1.0  0.36798  0.84483  0.41949  1.0000
  C   C177      1.0  0.30534  0.95170  0.42187  1.0000
  C   C178      1.0  0.29545  0.92357  0.41731  1.0000
  C   C179      1.0  0.14808  0.78103  0.41240  1.0000
  C   C180      1.0  0.11992  0.77090  0.41821  1.0000
  C   C181      1.0  0.21847  0.69907  0.40228  1.0000
  C   C182      1.0  0.21488  0.67280  0.41034  1.0000
  H   H103      1.0  0.20551  0.66168  0.46629  1.0000
  H   H104      1.0  0.21211  0.70658  0.45321  1.0000
  H   H105      1.0  0.28563  0.73938  0.37086  1.0000
  H   H106      1.0  0.15898  0.78411  0.46994  1.0000
  H   H107      1.0  0.11123  0.76664  0.48029  1.0000
  H   H108      1.0  0.22908  0.88542  0.35675  1.0000
  H   H109      1.0  0.36023  0.88859  0.31088  1.0000
  H   H110      1.0  0.33453  0.91458  0.30987  1.0000
  H   H111      1.0  0.29733  0.91384  0.47204  1.0000
  H   H112      1.0  0.31435  0.96169  0.47984  1.0000
  H   H113      1.0  0.35861  0.84637  0.47583  1.0000
  H   H114      1.0  0.40349  0.85318  0.48746  1.0000
  C   C183      1.0  0.78076  0.51677  0.35813  1.0000
  C   C184      1.0  0.80499  0.51673  0.35929  1.0000
  C   C185      1.0  0.82587  0.54297  0.33931  1.0000
  N   N41       1.0  0.81360  0.55794  0.32671  1.0000
  C   C186      1.0  0.76620  0.55079  0.32576  1.0000
  C   C187      1.0  0.77230  0.57814  0.31730  1.0000
  C   C188      1.0  0.84451  0.65916  0.33222  1.0000
  N   N42       1.0  0.85685  0.64405  0.32579  1.0000
  C   C189      1.0  0.88978  0.68580  0.34814  1.0000
  C   C190      1.0  0.90411  0.65094  0.33109  1.0000
  C   C191      1.0  0.89804  0.62353  0.32504  1.0000
  N   N43       1.0  0.87337  0.60087  0.33041  1.0000
  C   C192      1.0  0.90281  0.58665  0.31641  1.0000
  C   C193      1.0  0.91688  0.61469  0.31595  1.0000
  C   C194      1.0  0.85382  0.55087  0.33271  1.0000
  C   C195      1.0  0.86077  0.53005  0.33745  1.0000
  C   C196      1.0  0.86811  0.48402  0.35142  1.0000
  C   C197      1.0  0.87132  0.50049  0.42674  1.0000
  C   C198      1.0  0.86769  0.52316  0.42005  1.0000
  C   C199      1.0  0.93209  0.67129  0.33752  1.0000
  C   C200      1.0  0.98908  0.70867  0.34717  1.0000
  C   C201      1.0  0.97467  0.69275  0.42202  1.0000
  C   C202      1.0  0.94654  0.67450  0.41761  1.0000
  C   C203      1.0  0.80396  0.67936  0.41336  1.0000
  C   C204      1.0  0.79381  0.69739  0.41905  1.0000
  C   C205      1.0  0.78793  0.70770  0.34120  1.0000
  C   C206      1.0  0.73830  0.52990  0.32835  1.0000
  C   C207      1.0  0.72199  0.52696  0.40353  1.0000
  C   C208      1.0  0.68545  0.48347  0.34640  1.0000
  C   C209      1.0  0.69573  0.50428  0.41160  1.0000
  H   H115      1.0  0.68463  0.50248  0.46766  1.0000
  H   H116      1.0  0.72952  0.54078  0.45459  1.0000
  H   H117      1.0  0.76228  0.50009  0.37127  1.0000
  H   H118      1.0  0.82299  0.57646  0.30580  1.0000
  H   H119      1.0  0.84737  0.62499  0.31145  1.0000
  H   H120      1.0  0.80696  0.67150  0.47094  1.0000
  H   H121      1.0  0.78950  0.70178  0.48108  1.0000
  H   H122      1.0  0.90838  0.70273  0.35721  1.0000
  H   H123      1.0  0.91151  0.57472  0.31166  1.0000
  H   H124      1.0  0.93751  0.62642  0.31055  1.0000
  H   H125      1.0  0.93682  0.66290  0.47243  1.0000
  H   H126      1.0  0.98469  0.69374  0.47995  1.0000
  H   H127      1.0  0.86919  0.53403  0.47643  1.0000
  H   H128      1.0  0.87601  0.49596  0.48796  1.0000
  C   C210      1.0  0.55305  0.26453  0.35889  1.0000
  C   C211      1.0  0.55308  0.28879  0.36023  1.0000
  C   C212      1.0  0.52685  0.28343  0.34011  1.0000
  N   N44       1.0  0.51190  0.25620  0.32727  1.0000
  C   C213      1.0  0.52689  0.24383  0.33682  1.0000
  C   C214      1.0  0.51907  0.21597  0.32603  1.0000
  C   C215      1.0  0.49173  0.19472  0.31741  1.0000
  N   N45       1.0  0.46902  0.19663  0.32413  1.0000
  C   C216      1.0  0.41888  0.16607  0.32426  1.0000
  C   C217      1.0  0.41070  0.18589  0.33261  1.0000
  N   N46       1.0  0.42583  0.21334  0.32637  1.0000
  C   C218      1.0  0.41071  0.22560  0.33564  1.0000
  C   C219      1.0  0.38408  0.20452  0.34921  1.0000
  C   C220      1.0  0.38407  0.18021  0.34700  1.0000
  C   C221      1.0  0.41890  0.25369  0.33149  1.0000
  C   C222      1.0  0.44631  0.27503  0.32523  1.0000
  N   N47       1.0  0.46897  0.27303  0.33077  1.0000
  C   C223      1.0  0.49172  0.29765  0.32572  1.0000
  C   C224      1.0  0.48318  0.31667  0.31643  1.0000
  C   C225      1.0  0.45515  0.30270  0.31600  1.0000
  C   C226      1.0  0.51896  0.30348  0.33337  1.0000
  C   C227      1.0  0.53977  0.33125  0.33809  1.0000
  C   C228      1.0  0.58578  0.38463  0.35202  1.0000
  C   C229      1.0  0.56931  0.37137  0.42738  1.0000
  C   C230      1.0  0.54665  0.34505  0.42070  1.0000
  C   C231      1.0  0.39854  0.26133  0.33786  1.0000
  C   C232      1.0  0.36116  0.28093  0.34747  1.0000
  C   C233      1.0  0.37708  0.28248  0.42231  1.0000
  C   C234      1.0  0.39533  0.27260  0.41792  1.0000
  C   C235      1.0  0.39855  0.13807  0.32933  1.0000
  C   C236      1.0  0.39049  0.12512  0.41326  1.0000
  C   C237      1.0  0.37247  0.09695  0.41889  1.0000
  C   C238      1.0  0.36216  0.08077  0.34101  1.0000
  C   C239      1.0  0.53997  0.20897  0.32849  1.0000
  C   C240      1.0  0.54287  0.19553  0.40352  1.0000
  C   C241      1.0  0.58638  0.20254  0.34633  1.0000
  C   C242      1.0  0.56553  0.19191  0.41142  1.0000
  H   H129      1.0  0.56731  0.18259  0.46742  1.0000
  H   H130      1.0  0.52901  0.18918  0.45451  1.0000
  H   H131      1.0  0.56972  0.26272  0.37202  1.0000
  H   H132      1.0  0.49340  0.24708  0.30618  1.0000
  H   H133      1.0  0.44481  0.22290  0.31081  1.0000
  H   H134      1.0  0.44320  0.13267  0.29832  1.0000
  H   H135      1.0  0.39833  0.13598  0.47086  1.0000
  H   H136      1.0  0.36805  0.08823  0.48091  1.0000
  H   H137      1.0  0.36715  0.20619  0.35834  1.0000
  H   H138      1.0  0.49511  0.33731  0.31194  1.0000
  H   H139      1.0  0.44341  0.31160  0.31068  1.0000
  H   H140      1.0  0.40693  0.27450  0.47272  1.0000
  H   H141      1.0  0.37608  0.29152  0.48021  1.0000
  H   H142      1.0  0.53578  0.33569  0.47710  1.0000
  H   H143      1.0  0.57385  0.38056  0.48863  1.0000
  C   C243      1.0  0.80535  0.28900  0.35950  1.0000
  C   C244      1.0  0.78644  0.24393  0.34017  1.0000
  C   C245      1.0  0.85386  0.30360  0.32546  1.0000
  C   C246      1.0  0.87510  0.29751  0.31659  1.0000
  C   C247      1.0  0.88395  0.22533  0.33206  1.0000
  C   C248      1.0  0.86531  0.18008  0.34844  1.0000
  C   C249      1.0  0.81614  0.16573  0.33092  1.0000
  C   C250      1.0  0.79480  0.17180  0.32482  1.0000
  N   N48       1.0  0.79681  0.19646  0.33043  1.0000
  C   C251      1.0  0.75318  0.16705  0.31580  1.0000
  C   C252      1.0  0.76714  0.15298  0.31538  1.0000
  C   C253      1.0  0.73860  0.20906  0.33767  1.0000
  C   C254      1.0  0.69843  0.19843  0.42691  1.0000
  C   C255      1.0  0.72473  0.20204  0.42021  1.0000
  C   C256      1.0  0.80850  0.13774  0.33739  1.0000
  C   C257      1.0  0.78890  0.08075  0.34721  1.0000
  C   C258      1.0  0.78734  0.09515  0.42200  1.0000
  C   C259      1.0  0.79720  0.12328  0.41748  1.0000
  C   C260      1.0  0.94468  0.26592  0.41294  1.0000
  C   C261      1.0  0.97285  0.27608  0.41860  1.0000
  C   C262      1.0  0.87432  0.34784  0.40289  1.0000
  C   C263      1.0  0.86727  0.38434  0.34593  1.0000
  C   C264      1.0  0.87793  0.37412  0.41087  1.0000
  H   H144      1.0  0.88730  0.38524  0.46677  1.0000
  H   H145      1.0  0.88072  0.34036  0.45375  1.0000
  H   H146      1.0  0.80716  0.30749  0.37253  1.0000
  H   H147      1.0  0.84694  0.22245  0.31069  1.0000
  H   H148      1.0  0.93379  0.26289  0.47052  1.0000
  H   H149      1.0  0.98154  0.28034  0.48064  1.0000
  H   H150      1.0  0.86364  0.16148  0.35762  1.0000
  H   H151      1.0  0.73255  0.15835  0.31095  1.0000
  H   H152      1.0  0.75825  0.13235  0.30970  1.0000
  H   H153      1.0  0.79529  0.13299  0.47225  1.0000
  H   H154      1.0  0.77826  0.08513  0.47990  1.0000
  H   H155      1.0  0.73407  0.20051  0.47659  1.0000
  H   H156      1.0  0.68919  0.19372  0.48812  1.0000
  C   C265      1.0  0.22361  0.58739  0.35832  1.0000
  C   C266      1.0  0.23315  0.60455  0.43395  1.0000
  C   C267      1.0  0.23453  0.63013  0.43430  1.0000
  C   C268      1.0  0.22487  0.63742  0.35727  1.0000
  N   N49       1.0  0.24639  0.64691  0.50536  1.0000
  H   H157      1.0  0.25363  0.64149  0.55522  1.0000
  H   H158      1.0  0.25055  0.66566  0.50480  1.0000
  H   H159      1.0  0.24100  0.59935  0.48687  1.0000
  C   C269      1.0  0.48240  0.63675  0.35866  1.0000
  C   C270      1.0  0.46521  0.62914  0.43426  1.0000
  C   C271      1.0  0.43962  0.60495  0.43456  1.0000
  C   C272      1.0  0.43240  0.58797  0.35765  1.0000
  N   N50       1.0  0.42280  0.60007  0.50551  1.0000
  H   H160      1.0  0.42824  0.61262  0.55567  1.0000
  H   H161      1.0  0.40412  0.58534  0.50537  1.0000
  H   H162      1.0  0.47036  0.64225  0.48704  1.0000
  C   C273      1.0  0.43309  0.84623  0.35850  1.0000
  C   C274      1.0  0.44068  0.83670  0.43421  1.0000
  C   C275      1.0  0.46487  0.83531  0.43465  1.0000
  C   C276      1.0  0.48185  0.84497  0.35767  1.0000
  N   N51       1.0  0.46977  0.82348  0.50585  1.0000
  H   H163      1.0  0.45710  0.81624  0.55571  1.0000
  H   H164      1.0  0.48438  0.81934  0.50541  1.0000
  H   H165      1.0  0.42760  0.82885  0.48714  1.0000
  C   C277      1.0  0.86912  0.45949  0.35884  1.0000
  C   C278      1.0  0.85960  0.44234  0.43455  1.0000
  C   C279      1.0  0.85823  0.41677  0.43495  1.0000
  C   C280      1.0  0.86790  0.40948  0.35792  1.0000
  N   N52       1.0  0.84638  0.40000  0.50609  1.0000
  H   H166      1.0  0.83914  0.40541  0.55597  1.0000
  H   H167      1.0  0.84226  0.38126  0.50561  1.0000
  H   H168      1.0  0.85174  0.44754  0.48749  1.0000
  C   C281      1.0  0.61031  0.41017  0.35944  1.0000
  C   C282      1.0  0.62749  0.41775  0.43500  1.0000
  C   C283      1.0  0.65306  0.44195  0.43535  1.0000
  C   C284      1.0  0.66034  0.45894  0.35840  1.0000
  N   N53       1.0  0.66986  0.44681  0.50632  1.0000
  H   H169      1.0  0.66445  0.43413  0.55612  1.0000
  H   H170      1.0  0.68861  0.46141  0.50573  1.0000
  H   H171      1.0  0.62230  0.40466  0.48786  1.0000
  C   C285      1.0  0.65969  0.20072  0.35911  1.0000
  C   C286      1.0  0.65209  0.21028  0.43476  1.0000
  C   C287      1.0  0.62790  0.21167  0.43514  1.0000
  C   C288      1.0  0.61091  0.20194  0.35826  1.0000
  N   N54       1.0  0.62302  0.22359  0.50615  1.0000
  H   H172      1.0  0.63558  0.23069  0.55629  1.0000
  H   H173      1.0  0.60829  0.22754  0.50609  1.0000
  H   H174      1.0  0.66520  0.21821  0.48752  1.0000
  C   C289      1.0  0.01790  0.29396  0.34612  1.0000
  C   C290      1.0  0.03147  0.28872  0.41570  1.0000
  C   C291      1.0  0.06021  0.30195  0.41844  1.0000
  C   C292      1.0  0.07494  0.32116  0.35002  1.0000
  N   N55       1.0  0.07234  0.29516  0.48388  1.0000
  H   H175      1.0  0.06162  0.28130  0.52800  1.0000
  H   H176      1.0  0.09175  0.30187  0.48353  1.0000
  H   H177      1.0  0.02038  0.27455  0.46338  1.0000
  C   C293      1.0  0.77585  0.72447  0.34659  1.0000
  C   C294      1.0  0.78109  0.74330  0.41613  1.0000
  C   C295      1.0  0.76784  0.75879  0.41886  1.0000
  C   C296      1.0  0.74864  0.75429  0.35046  1.0000
  N   N56       1.0  0.77463  0.77773  0.48424  1.0000
  H   H178      1.0  0.78849  0.78089  0.52835  1.0000
  H   H179      1.0  0.76791  0.79043  0.48389  1.0000
  H   H180      1.0  0.79525  0.74640  0.46377  1.0000
  C   C297      1.0  0.34538  0.05192  0.34636  1.0000
  C   C298      1.0  0.32652  0.03833  0.41587  1.0000
  C   C299      1.0  0.31102  0.00959  0.41858  1.0000
  C   C300      1.0  0.31556  0.99489  0.35021  1.0000
  N   N57       1.0  0.29204  0.99743  0.48390  1.0000
  H   H181      1.0  0.28886  0.00813  0.52798  1.0000
  H   H182      1.0  0.27934  0.97802  0.48353  1.0000
  H   H183      1.0  0.32340  0.04939  0.46351  1.0000
  C   C301      1.0  0.07485  0.75291  0.34595  1.0000
  C   C302      1.0  0.06129  0.75822  0.41545  1.0000
  C   C303      1.0  0.03255  0.74500  0.41828  1.0000
  C   C304      1.0  0.01782  0.72572  0.35007  1.0000
  N   N58       1.0  0.02043  0.75187  0.48355  1.0000
  H   H184      1.0  0.03113  0.76561  0.52800  1.0000
  H   H185      1.0  0.00099  0.74500  0.48381  1.0000
  H   H186      1.0  0.07238  0.77244  0.46291  1.0000
  C   C305      1.0  0.31689  0.32243  0.34627  1.0000
  C   C306      1.0  0.31162  0.30362  0.41589  1.0000
  C   C307      1.0  0.32485  0.28811  0.41872  1.0000
  C   C308      1.0  0.34409  0.29261  0.35038  1.0000
  N   N59       1.0  0.31804  0.26918  0.48418  1.0000
  H   H187      1.0  0.30416  0.26603  0.52826  1.0000
  H   H188      1.0  0.32475  0.25648  0.48391  1.0000
  H   H189      1.0  0.29743  0.30052  0.46351  1.0000
  C   C309      1.0  0.74738  0.99498  0.34637  1.0000
  C   C310      1.0  0.76619  0.00855  0.41593  1.0000
  C   C311      1.0  0.78170  0.03729  0.41866  1.0000
  C   C312      1.0  0.77722  0.05201  0.35023  1.0000
  N   N60       1.0  0.80062  0.04943  0.48406  1.0000
  H   H190      1.0  0.80376  0.03871  0.52818  1.0000
  H   H191      1.0  0.81333  0.06884  0.48371  1.0000
  H   H192      1.0  0.76927  0.99747  0.46360  1.0000
