data_image0
_chemical_formula_structural       C3NC3NC5NC5NC20H18N4C3NC3NC5NC5NC20H18N4C3NC3NC5NC5NC20H18N4C3NC3NC5NC5NC20H18N4C3NC3NC5NC5NC20H18N4C3NC3NC5NC5NC20H18N4C3HCH3CHC3HCH3CHC3HCH3CHC3HCH3CHC3HCH3CHC3HCH3CHC3HCH3CHC3HCH3CHC3HCH3CHC3HCH3CHC3HCH3CHC3HCH3CHC8H8C8H8C8H8C8H8C8H8C8H8C3HCH3CHC3HCH3CHC3HCH3CHC3HCH3CHC3HCH3CHC3HCH3CHC3HCH3CHC3HCH3CHC3HCH3CHC3HCH3CHC3HCH3CHC3HCH3CH
_chemical_formula_sum              "C384 N48 H276"
_cell_length_a       69.4304
_cell_length_b       69.4303
_cell_length_c       14.8916
_cell_angle_alpha    90.0046
_cell_angle_beta     89.91
_cell_angle_gamma    120

_space_group_name_H-M_alt    "P 1"
_space_group_IT_number       1

loop_
  _space_group_symop_operation_xyz
  'x, y, z'

loop_
  _atom_site_type_symbol
  _atom_site_label
  _atom_site_symmetry_multiplicity
  _atom_site_fract_x
  _atom_site_fract_y
  _atom_site_fract_z
  _atom_site_occupancy
  C   C1        1.0  0.21074  0.37625  0.31273  1.0000
  C   C2        1.0  0.23017  0.37558  0.31723  1.0000
  C   C3        1.0  0.24804  0.39737  0.31555  1.0000
  N   N1        1.0  0.23857  0.41042  0.31531  1.0000
  C   C4        1.0  0.21597  0.39847  0.31450  1.0000
  C   C5        1.0  0.19987  0.40553  0.31490  1.0000
  C   C6        1.0  0.20577  0.42839  0.31635  1.0000
  N   N2        1.0  0.22627  0.44686  0.31606  1.0000
  C   C7        1.0  0.22539  0.46596  0.31547  1.0000
  C   C8        1.0  0.20274  0.45912  0.31377  1.0000
  C   C9        1.0  0.19080  0.43625  0.31824  1.0000
  C   C10       1.0  0.24319  0.48849  0.31551  1.0000
  C   C11       1.0  0.26612  0.49425  0.31615  1.0000
  N   N3        1.0  0.27582  0.48131  0.31558  1.0000
  C   C12       1.0  0.29851  0.49318  0.31499  1.0000
  C   C13       1.0  0.30357  0.51535  0.31382  1.0000
  C   C14       1.0  0.28405  0.51599  0.31801  1.0000
  C   C15       1.0  0.31471  0.48609  0.31474  1.0000
  C   C16       1.0  0.30871  0.46319  0.31509  1.0000
  N   N4        1.0  0.28814  0.44483  0.31459  1.0000
  C   C17       1.0  0.28882  0.42562  0.31408  1.0000
  C   C18       1.0  0.31140  0.43222  0.31257  1.0000
  C   C19       1.0  0.32350  0.45509  0.31688  1.0000
  C   C20       1.0  0.27087  0.40319  0.31451  1.0000
  C   C21       1.0  0.27604  0.38546  0.31509  1.0000
  C   C22       1.0  0.28857  0.35165  0.31413  1.0000
  C   C23       1.0  0.27513  0.35275  0.24537  1.0000
  C   C24       1.0  0.26938  0.36961  0.24482  1.0000
  C   C25       1.0  0.33823  0.50273  0.31550  1.0000
  C   C26       1.0  0.38470  0.53720  0.31574  1.0000
  C   C27       1.0  0.37585  0.52086  0.24745  1.0000
  C   C28       1.0  0.35309  0.50425  0.24658  1.0000
  C   C29       1.0  0.23749  0.50603  0.31651  1.0000
  C   C30       1.0  0.24441  0.52233  0.24778  1.0000
  C   C31       1.0  0.24016  0.54023  0.25314  1.0000
  C   C32       1.0  0.22765  0.54195  0.32471  1.0000
  C   C33       1.0  0.17653  0.38869  0.31581  1.0000
  C   C34       1.0  0.16183  0.38698  0.24623  1.0000
  C   C35       1.0  0.12960  0.35689  0.32537  1.0000
  C   C36       1.0  0.13873  0.37180  0.25220  1.0000
  H   H1        1.0  0.12842  0.37234  0.20451  1.0000
  H   H2        1.0  0.16769  0.39774  0.19297  1.0000
  H   H3        1.0  0.19538  0.36234  0.31003  1.0000
  H   H4        1.0  0.23062  0.36112  0.31936  1.0000
  H   H5        1.0  0.24697  0.42638  0.31538  1.0000
  H   H6        1.0  0.26745  0.46535  0.31512  1.0000
  H   H7        1.0  0.17384  0.42719  0.31934  1.0000
  H   H8        1.0  0.19554  0.46882  0.31077  1.0000
  H   H9        1.0  0.25374  0.52195  0.19525  1.0000
  H   H10       1.0  0.24699  0.55256  0.20586  1.0000
  H   H11       1.0  0.28353  0.53042  0.32023  1.0000
  H   H12       1.0  0.31892  0.52929  0.31130  1.0000
  H   H13       1.0  0.31843  0.42236  0.31070  1.0000
  H   H14       1.0  0.34046  0.46398  0.31910  1.0000
  H   H15       1.0  0.34730  0.49332  0.19396  1.0000
  H   H16       1.0  0.38584  0.52146  0.19561  1.0000
  H   H17       1.0  0.26047  0.37042  0.19173  1.0000
  H   H18       1.0  0.27035  0.34189  0.19256  1.0000
  N   N5        1.0  0.40582  0.55446  0.30901  1.0000
  N   N6        1.0  0.22729  0.56096  0.33996  1.0000
  N   N7        1.0  0.10755  0.34564  0.34116  1.0000
  N   N8        1.0  0.29631  0.33732  0.30617  1.0000
  C   C37       1.0  0.69348  0.83631  0.31392  1.0000
  C   C38       1.0  0.69417  0.85642  0.31850  1.0000
  C   C39       1.0  0.67239  0.85252  0.31676  1.0000
  N   N9        1.0  0.65933  0.83000  0.31655  1.0000
  C   C40       1.0  0.67127  0.81933  0.31573  1.0000
  C   C41       1.0  0.66420  0.79616  0.31609  1.0000
  C   C42       1.0  0.64135  0.77920  0.31750  1.0000
  N   N10       1.0  0.62287  0.78121  0.31721  1.0000
  C   C43       1.0  0.60377  0.76122  0.31666  1.0000
  C   C44       1.0  0.61062  0.74542  0.31500  1.0000
  C   C45       1.0  0.63349  0.75636  0.31923  1.0000
  C   C46       1.0  0.58124  0.75649  0.31672  1.0000
  C   C47       1.0  0.57548  0.77366  0.31737  1.0000
  N   N11       1.0  0.58843  0.79629  0.31682  1.0000
  C   C48       1.0  0.57658  0.80712  0.31622  1.0000
  C   C49       1.0  0.55440  0.79002  0.31499  1.0000
  C   C50       1.0  0.55374  0.76985  0.31928  1.0000
  C   C51       1.0  0.58373  0.83040  0.31595  1.0000
  C   C52       1.0  0.60661  0.84733  0.31635  1.0000
  N   N12       1.0  0.62497  0.84515  0.31582  1.0000
  C   C53       1.0  0.64417  0.86504  0.31531  1.0000
  C   C54       1.0  0.63755  0.88101  0.31394  1.0000
  C   C55       1.0  0.61468  0.87023  0.31813  1.0000
  C   C56       1.0  0.66661  0.86957  0.31567  1.0000
  C   C57       1.0  0.68435  0.89250  0.31638  1.0000
  C   C58       1.0  0.71822  0.93888  0.31624  1.0000
  C   C59       1.0  0.71713  0.92440  0.24704  1.0000
  C   C60       1.0  0.70029  0.90177  0.24627  1.0000
  C   C61       1.0  0.56714  0.83728  0.31662  1.0000
  C   C62       1.0  0.53279  0.84925  0.31626  1.0000
  C   C63       1.0  0.54919  0.85681  0.24818  1.0000
  C   C64       1.0  0.56574  0.85061  0.24749  1.0000
  C   C65       1.0  0.56371  0.73326  0.31775  1.0000
  C   C66       1.0  0.54744  0.72387  0.24905  1.0000
  C   C67       1.0  0.52955  0.70171  0.25446  1.0000
  C   C68       1.0  0.52779  0.68749  0.32604  1.0000
  C   C69       1.0  0.68104  0.78966  0.31705  1.0000
  C   C70       1.0  0.68284  0.77670  0.24747  1.0000
  C   C71       1.0  0.71288  0.77457  0.32676  1.0000
  C   C72       1.0  0.69799  0.76876  0.25361  1.0000
  H   H19       1.0  0.69753  0.75793  0.20588  1.0000
  H   H20       1.0  0.67210  0.77176  0.19423  1.0000
  H   H21       1.0  0.70739  0.83485  0.31109  1.0000
  H   H22       1.0  0.70863  0.87134  0.32030  1.0000
  H   H23       1.0  0.64337  0.82243  0.31660  1.0000
  H   H24       1.0  0.60440  0.80388  0.31641  1.0000
  H   H25       1.0  0.64255  0.74847  0.32085  1.0000
  H   H26       1.0  0.60092  0.72852  0.31224  1.0000
  H   H27       1.0  0.54784  0.73357  0.19652  1.0000
  H   H28       1.0  0.51723  0.69620  0.20727  1.0000
  H   H29       1.0  0.53931  0.75491  0.32126  1.0000
  H   H30       1.0  0.54047  0.79144  0.31231  1.0000
  H   H31       1.0  0.64740  0.89790  0.31177  1.0000
  H   H32       1.0  0.60578  0.87829  0.32032  1.0000
  H   H33       1.0  0.57672  0.85573  0.19495  1.0000
  H   H34       1.0  0.54864  0.86620  0.19633  1.0000
  H   H35       1.0  0.69955  0.89208  0.19310  1.0000
  H   H36       1.0  0.72808  0.93051  0.19444  1.0000
  N   N13       1.0  0.51565  0.85319  0.30885  1.0000
  N   N14       1.0  0.50881  0.66812  0.34157  1.0000
  N   N15       1.0  0.72412  0.76378  0.34258  1.0000
  N   N16       1.0  0.73257  0.96096  0.30916  1.0000
  C   C73       1.0  0.23339  0.85899  0.31145  1.0000
  C   C74       1.0  0.21329  0.83955  0.31615  1.0000
  C   C75       1.0  0.21719  0.82168  0.31434  1.0000
  N   N17       1.0  0.23971  0.83115  0.31410  1.0000
  C   C76       1.0  0.25038  0.85377  0.31326  1.0000
  C   C77       1.0  0.27353  0.86991  0.31347  1.0000
  C   C78       1.0  0.29049  0.86405  0.31495  1.0000
  N   N18       1.0  0.28832  0.84351  0.31527  1.0000
  C   C79       1.0  0.30823  0.84430  0.31547  1.0000
  C   C80       1.0  0.32417  0.86691  0.31311  1.0000
  C   C81       1.0  0.31335  0.87896  0.31680  1.0000
  C   C82       1.0  0.31276  0.82639  0.31733  1.0000
  C   C83       1.0  0.29567  0.80345  0.31655  1.0000
  N   N19       1.0  0.27308  0.79375  0.31469  1.0000
  C   C84       1.0  0.26237  0.77108  0.31366  1.0000
  C   C85       1.0  0.27949  0.76602  0.31255  1.0000
  C   C86       1.0  0.29957  0.78556  0.31809  1.0000
  C   C87       1.0  0.23913  0.75490  0.31344  1.0000
  C   C88       1.0  0.22230  0.76097  0.31387  1.0000
  N   N20       1.0  0.22452  0.78155  0.31335  1.0000
  C   C89       1.0  0.20466  0.78090  0.31286  1.0000
  C   C90       1.0  0.18867  0.75832  0.31150  1.0000
  C   C91       1.0  0.19941  0.74619  0.31555  1.0000
  C   C92       1.0  0.20016  0.79885  0.31324  1.0000
  C   C93       1.0  0.17724  0.79366  0.31393  1.0000
  C   C94       1.0  0.13086  0.78115  0.31371  1.0000
  C   C95       1.0  0.14539  0.79453  0.24454  1.0000
  C   C96       1.0  0.16802  0.80033  0.24380  1.0000
  C   C97       1.0  0.23230  0.73142  0.31435  1.0000
  C   C98       1.0  0.22041  0.68501  0.31450  1.0000
  C   C99       1.0  0.21296  0.69389  0.24617  1.0000
  C   C100      1.0  0.21907  0.71663  0.24529  1.0000
  C   C101      1.0  0.33590  0.83194  0.31623  1.0000
  C   C102      1.0  0.34441  0.82505  0.24439  1.0000
  C   C103      1.0  0.36657  0.82936  0.24396  1.0000
  C   C104      1.0  0.38189  0.84190  0.31202  1.0000
  C   C105      1.0  0.28005  0.89323  0.31445  1.0000
  C   C106      1.0  0.29311  0.90797  0.24492  1.0000
  C   C107      1.0  0.29519  0.94014  0.32407  1.0000
  C   C108      1.0  0.30106  0.93106  0.25097  1.0000
  H   H37       1.0  0.31191  0.94140  0.20321  1.0000
  H   H38       1.0  0.29804  0.90213  0.19165  1.0000
  H   H39       1.0  0.23485  0.87435  0.30860  1.0000
  H   H40       1.0  0.19837  0.83909  0.31783  1.0000
  H   H41       1.0  0.24726  0.82274  0.31404  1.0000
  H   H42       1.0  0.26551  0.80213  0.31448  1.0000
  H   H43       1.0  0.32131  0.89593  0.31811  1.0000
  H   H44       1.0  0.34106  0.87399  0.31109  1.0000
  H   H45       1.0  0.33412  0.81578  0.19320  1.0000
  H   H46       1.0  0.37130  0.82241  0.19429  1.0000
  H   H47       1.0  0.31452  0.78611  0.32111  1.0000
  H   H48       1.0  0.27814  0.75070  0.30996  1.0000
  H   H49       1.0  0.17179  0.75130  0.30935  1.0000
  H   H50       1.0  0.19134  0.72923  0.31781  1.0000
  H   H51       1.0  0.21397  0.72245  0.19265  1.0000
  H   H52       1.0  0.20364  0.68393  0.19428  1.0000
  H   H53       1.0  0.17775  0.80928  0.19063  1.0000
  H   H54       1.0  0.13932  0.79937  0.19192  1.0000
  N   N21       1.0  0.21659  0.66392  0.30774  1.0000
  N   N22       1.0  0.40105  0.84120  0.31737  1.0000
  N   N23       1.0  0.30601  0.96218  0.33976  1.0000
  N   N24       1.0  0.10878  0.77343  0.30665  1.0000
  C   C109      1.0  0.88102  0.67143  0.31449  1.0000
  C   C110      1.0  0.86159  0.67211  0.31929  1.0000
  C   C111      1.0  0.84371  0.65034  0.31747  1.0000
  N   N25       1.0  0.85318  0.63728  0.31725  1.0000
  C   C112      1.0  0.87579  0.64921  0.31640  1.0000
  C   C113      1.0  0.89189  0.64215  0.31678  1.0000
  C   C114      1.0  0.88600  0.61929  0.31825  1.0000
  N   N26       1.0  0.86550  0.60082  0.31794  1.0000
  C   C115      1.0  0.86639  0.58172  0.31734  1.0000
  C   C116      1.0  0.88903  0.58856  0.31568  1.0000
  C   C117      1.0  0.90097  0.61143  0.32009  1.0000
  C   C118      1.0  0.84859  0.55919  0.31738  1.0000
  C   C119      1.0  0.82565  0.55343  0.31807  1.0000
  N   N27       1.0  0.81596  0.56637  0.31753  1.0000
  C   C120      1.0  0.79327  0.55451  0.31693  1.0000
  C   C121      1.0  0.78820  0.53234  0.31573  1.0000
  C   C122      1.0  0.80772  0.53169  0.32001  1.0000
  C   C123      1.0  0.77707  0.56161  0.31666  1.0000
  C   C124      1.0  0.78308  0.58451  0.31702  1.0000
  N   N28       1.0  0.80364  0.60289  0.31651  1.0000
  C   C125      1.0  0.80296  0.62210  0.31601  1.0000
  C   C126      1.0  0.78038  0.61548  0.31462  1.0000
  C   C127      1.0  0.76828  0.59260  0.31870  1.0000
  C   C128      1.0  0.82089  0.64455  0.31639  1.0000
  C   C129      1.0  0.81570  0.66230  0.31710  1.0000
  C   C130      1.0  0.80322  0.69620  0.31700  1.0000
  C   C131      1.0  0.81659  0.69507  0.24777  1.0000
  C   C132      1.0  0.82239  0.67822  0.24700  1.0000
  C   C133      1.0  0.75355  0.54497  0.31742  1.0000
  C   C134      1.0  0.70709  0.51048  0.31762  1.0000
  C   C135      1.0  0.71598  0.52687  0.24941  1.0000
  C   C136      1.0  0.73875  0.54347  0.24850  1.0000
  C   C137      1.0  0.85429  0.54166  0.31848  1.0000
  C   C138      1.0  0.84744  0.52537  0.24982  1.0000
  C   C139      1.0  0.85172  0.50748  0.25530  1.0000
  C   C140      1.0  0.86413  0.50575  0.32703  1.0000
  C   C141      1.0  0.91523  0.65898  0.31771  1.0000
  C   C142      1.0  0.93000  0.66075  0.24813  1.0000
  C   C143      1.0  0.96213  0.69085  0.32723  1.0000
  C   C144      1.0  0.95309  0.67597  0.25402  1.0000
  H   H55       1.0  0.96344  0.67552  0.20619  1.0000
  H   H56       1.0  0.92420  0.65002  0.19484  1.0000
  H   H57       1.0  0.89639  0.68534  0.31187  1.0000
  H   H58       1.0  0.86114  0.68658  0.32104  1.0000
  H   H59       1.0  0.84479  0.62132  0.31726  1.0000
  H   H60       1.0  0.82433  0.58233  0.31706  1.0000
  H   H61       1.0  0.91793  0.62049  0.32137  1.0000
  H   H62       1.0  0.89624  0.57887  0.31273  1.0000
  H   H63       1.0  0.83819  0.52578  0.19717  1.0000
  H   H64       1.0  0.84496  0.49517  0.20802  1.0000
  H   H65       1.0  0.80824  0.51726  0.32184  1.0000
  H   H66       1.0  0.77286  0.51840  0.31303  1.0000
  H   H67       1.0  0.77334  0.62534  0.31258  1.0000
  H   H68       1.0  0.75132  0.58371  0.32105  1.0000
  H   H69       1.0  0.74458  0.55443  0.19589  1.0000
  H   H70       1.0  0.70605  0.52627  0.19752  1.0000
  H   H71       1.0  0.83133  0.67746  0.19379  1.0000
  H   H72       1.0  0.82143  0.70599  0.19512  1.0000
  N   N29       1.0  0.68597  0.49323  0.31092  1.0000
  N   N30       1.0  0.86457  0.48680  0.34256  1.0000
  N   N31       1.0  0.98419  0.70231  0.34266  1.0000
  N   N32       1.0  0.79548  0.71054  0.30987  1.0000
  C   C145      1.0  0.39834  0.21145  0.31724  1.0000
  C   C146      1.0  0.39760  0.19128  0.32026  1.0000
  C   C147      1.0  0.41937  0.19513  0.31859  1.0000
  N   N33       1.0  0.43246  0.21765  0.31913  1.0000
  C   C148      1.0  0.42056  0.22836  0.31985  1.0000
  C   C149      1.0  0.42772  0.25152  0.32226  1.0000
  C   C150      1.0  0.45060  0.26845  0.32199  1.0000
  N   N34       1.0  0.46908  0.26645  0.32027  1.0000
  C   C151      1.0  0.48814  0.28646  0.31850  1.0000
  C   C152      1.0  0.48130  0.30226  0.31683  1.0000
  C   C153      1.0  0.45847  0.29130  0.32314  1.0000
  C   C154      1.0  0.51065  0.29120  0.31844  1.0000
  C   C155      1.0  0.51636  0.27400  0.31925  1.0000
  N   N35       1.0  0.50340  0.25137  0.31870  1.0000
  C   C156      1.0  0.51525  0.24053  0.31814  1.0000
  C   C157      1.0  0.53743  0.25764  0.31698  1.0000
  C   C158      1.0  0.53809  0.27782  0.32117  1.0000
  C   C159      1.0  0.50813  0.21725  0.31788  1.0000
  C   C160      1.0  0.48523  0.20035  0.31825  1.0000
  N   N36       1.0  0.46685  0.20253  0.31777  1.0000
  C   C161      1.0  0.44763  0.18264  0.31733  1.0000
  C   C162      1.0  0.45425  0.16667  0.31585  1.0000
  C   C163      1.0  0.47713  0.17745  0.32005  1.0000
  C   C164      1.0  0.42517  0.17811  0.31761  1.0000
  C   C165      1.0  0.40743  0.15519  0.31813  1.0000
  C   C166      1.0  0.37356  0.10883  0.31705  1.0000
  C   C167      1.0  0.37474  0.12343  0.24821  1.0000
  C   C168      1.0  0.39160  0.14605  0.24783  1.0000
  C   C169      1.0  0.52477  0.21037  0.31866  1.0000
  C   C170      1.0  0.55925  0.19839  0.31890  1.0000
  C   C171      1.0  0.54292  0.19091  0.25062  1.0000
  C   C172      1.0  0.52631  0.19706  0.24974  1.0000
  C   C173      1.0  0.52815  0.31443  0.31964  1.0000
  C   C174      1.0  0.54444  0.32385  0.25085  1.0000
  C   C175      1.0  0.56232  0.34602  0.25624  1.0000
  C   C176      1.0  0.56401  0.36019  0.32786  1.0000
  C   C177      1.0  0.41103  0.25821  0.31974  1.0000
  C   C178      1.0  0.41036  0.27085  0.24648  1.0000
  C   C179      1.0  0.37956  0.27382  0.31395  1.0000
  C   C180      1.0  0.39554  0.27916  0.24547  1.0000
  H   H73       1.0  0.39675  0.28958  0.19440  1.0000
  H   H74       1.0  0.42162  0.27522  0.19515  1.0000
  H   H75       1.0  0.38447  0.21298  0.31582  1.0000
  H   H76       1.0  0.38312  0.17638  0.32234  1.0000
  H   H77       1.0  0.44842  0.22520  0.31979  1.0000
  H   H78       1.0  0.48744  0.24377  0.31807  1.0000
  H   H79       1.0  0.44943  0.29921  0.32559  1.0000
  H   H80       1.0  0.49097  0.31915  0.31376  1.0000
  H   H81       1.0  0.54409  0.31418  0.19830  1.0000
  H   H82       1.0  0.57466  0.35155  0.20896  1.0000
  H   H83       1.0  0.55252  0.29276  0.32332  1.0000
  H   H84       1.0  0.55136  0.25623  0.31443  1.0000
  H   H85       1.0  0.44440  0.14978  0.31399  1.0000
  H   H86       1.0  0.48602  0.16939  0.32226  1.0000
  H   H87       1.0  0.51539  0.19194  0.19713  1.0000
  H   H88       1.0  0.54354  0.18155  0.19880  1.0000
  H   H89       1.0  0.39244  0.15581  0.19478  1.0000
  H   H90       1.0  0.36391  0.11740  0.19535  1.0000
  N   N37       1.0  0.57652  0.19454  0.31220  1.0000
  N   N38       1.0  0.58300  0.37955  0.34313  1.0000
  N   N39       1.0  0.36853  0.28521  0.31604  1.0000
  N   N40       1.0  0.35922  0.08677  0.30926  1.0000
  C   C181      1.0  0.85835  0.18871  0.31339  1.0000
  C   C182      1.0  0.87847  0.20814  0.31799  1.0000
  C   C183      1.0  0.87457  0.22602  0.31624  1.0000
  N   N41       1.0  0.85204  0.21655  0.31602  1.0000
  C   C184      1.0  0.84137  0.19394  0.31521  1.0000
  C   C185      1.0  0.81820  0.17784  0.31555  1.0000
  C   C186      1.0  0.80124  0.18373  0.31696  1.0000
  N   N42       1.0  0.80325  0.20422  0.31670  1.0000
  C   C187      1.0  0.78327  0.20334  0.31617  1.0000
  C   C188      1.0  0.76747  0.18069  0.31451  1.0000
  C   C189      1.0  0.77840  0.16875  0.31871  1.0000
  C   C190      1.0  0.77854  0.22114  0.31625  1.0000
  C   C191      1.0  0.79572  0.24407  0.31688  1.0000
  N   N43       1.0  0.81835  0.25377  0.31631  1.0000
  C   C192      1.0  0.82918  0.27646  0.31573  1.0000
  C   C193      1.0  0.81207  0.28152  0.31452  1.0000
  C   C194      1.0  0.79190  0.26200  0.31878  1.0000
  C   C195      1.0  0.85247  0.29265  0.31543  1.0000
  C   C196      1.0  0.86937  0.28665  0.31580  1.0000
  N   N44       1.0  0.86719  0.26609  0.31530  1.0000
  C   C197      1.0  0.88707  0.26677  0.31480  1.0000
  C   C198      1.0  0.90304  0.28935  0.31343  1.0000
  C   C199      1.0  0.89226  0.30145  0.31756  1.0000
  C   C200      1.0  0.89160  0.24884  0.31515  1.0000
  C   C201      1.0  0.91454  0.25404  0.31586  1.0000
  C   C202      1.0  0.96092  0.26654  0.31573  1.0000
  C   C203      1.0  0.94646  0.25319  0.24654  1.0000
  C   C204      1.0  0.92382  0.24739  0.24576  1.0000
  C   C205      1.0  0.85935  0.31618  0.31620  1.0000
  C   C206      1.0  0.87134  0.36265  0.31640  1.0000
  C   C207      1.0  0.87886  0.35379  0.24815  1.0000
  C   C208      1.0  0.87271  0.33102  0.24728  1.0000
  C   C209      1.0  0.75531  0.21543  0.31728  1.0000
  C   C210      1.0  0.74594  0.22234  0.24858  1.0000
  C   C211      1.0  0.72379  0.21811  0.25406  1.0000
  C   C212      1.0  0.70955  0.20564  0.32563  1.0000
  C   C213      1.0  0.81170  0.15450  0.31652  1.0000
  C   C214      1.0  0.79875  0.13977  0.24696  1.0000
  C   C215      1.0  0.79661  0.10757  0.32629  1.0000
  C   C216      1.0  0.79081  0.11667  0.25312  1.0000
  H   H91       1.0  0.78000  0.10633  0.20539  1.0000
  H   H92       1.0  0.79383  0.14558  0.19371  1.0000
  H   H93       1.0  0.85690  0.17335  0.31056  1.0000
  H   H94       1.0  0.89338  0.20859  0.31978  1.0000
  H   H95       1.0  0.84447  0.22494  0.31607  1.0000
  H   H96       1.0  0.82595  0.24540  0.31590  1.0000
  H   H97       1.0  0.77051  0.15179  0.32032  1.0000
  H   H98       1.0  0.75057  0.17348  0.31176  1.0000
  H   H99       1.0  0.75565  0.23166  0.19605  1.0000
  H   H100      1.0  0.71832  0.22498  0.20693  1.0000
  H   H101      1.0  0.77696  0.26148  0.32077  1.0000
  H   H102      1.0  0.81348  0.29686  0.31187  1.0000
  H   H103      1.0  0.91993  0.29639  0.31125  1.0000
  H   H104      1.0  0.90033  0.31841  0.31968  1.0000
  H   H105      1.0  0.87786  0.32522  0.19467  1.0000
  H   H106      1.0  0.88826  0.36376  0.19633  1.0000
  H   H107      1.0  0.91415  0.23846  0.19259  1.0000
  H   H108      1.0  0.95258  0.24837  0.19394  1.0000
  N   N45       1.0  0.87521  0.38377  0.30975  1.0000
  N   N46       1.0  0.69028  0.20543  0.34135  1.0000
  N   N47       1.0  0.78583  0.08552  0.34212  1.0000
  N   N48       1.0  0.98301  0.27428  0.30863  1.0000
  C   C217      1.0  0.21750  0.58942  0.32259  1.0000
  C   C218      1.0  0.22230  0.60527  0.25280  1.0000
  C   C219      1.0  0.22096  0.62472  0.26964  1.0000
  H   H109      1.0  0.22492  0.63595  0.21840  1.0000
  C   C220      1.0  0.22926  0.60288  0.16070  1.0000
  H   H110      1.0  0.23122  0.58835  0.15272  1.0000
  H   H111      1.0  0.24524  0.61748  0.14431  1.0000
  H   H112      1.0  0.21690  0.60159  0.11216  1.0000
  C   C221      1.0  0.21518  0.56835  0.30528  1.0000
  H   H113      1.0  0.20413  0.55907  0.25882  1.0000
  C   C222      1.0  0.48031  0.62988  0.32371  1.0000
  C   C223      1.0  0.46449  0.61883  0.25395  1.0000
  C   C224      1.0  0.44505  0.59803  0.27084  1.0000
  H   H114      1.0  0.43384  0.59076  0.21963  1.0000
  C   C225      1.0  0.46691  0.62816  0.16183  1.0000
  H   H115      1.0  0.48142  0.64466  0.15379  1.0000
  H   H116      1.0  0.45230  0.62951  0.14545  1.0000
  H   H117      1.0  0.46825  0.61710  0.11330  1.0000
  C   C226      1.0  0.50136  0.64866  0.30625  1.0000
  H   H118      1.0  0.51057  0.64698  0.25909  1.0000
  C   C227      1.0  0.44010  0.85244  0.33053  1.0000
  C   C228      1.0  0.45070  0.84750  0.25913  1.0000
  C   C229      1.0  0.47168  0.84887  0.27306  1.0000
  H   H119      1.0  0.47871  0.84499  0.22062  1.0000
  C   C230      1.0  0.44098  0.84093  0.16783  1.0000
  H   H120      1.0  0.42482  0.83984  0.16195  1.0000
  H   H121      1.0  0.43880  0.82465  0.15087  1.0000
  H   H122      1.0  0.45218  0.85307  0.11877  1.0000
  C   C231      1.0  0.42189  0.85620  0.32136  1.0000
  H   H123      1.0  0.42561  0.87200  0.32008  1.0000
  C   C232      1.0  0.87423  0.45824  0.32434  1.0000
  C   C233      1.0  0.86952  0.44241  0.25461  1.0000
  C   C234      1.0  0.87088  0.42298  0.27153  1.0000
  H   H124      1.0  0.86698  0.41176  0.22033  1.0000
  C   C235      1.0  0.86262  0.44478  0.16246  1.0000
  H   H125      1.0  0.86059  0.45926  0.15435  1.0000
  H   H126      1.0  0.84668  0.43015  0.14609  1.0000
  H   H127      1.0  0.87504  0.44612  0.11396  1.0000
  C   C236      1.0  0.87648  0.47927  0.30678  1.0000
  H   H128      1.0  0.88727  0.48842  0.25921  1.0000
  C   C237      1.0  0.61146  0.41780  0.32573  1.0000
  C   C238      1.0  0.62733  0.42888  0.25594  1.0000
  C   C239      1.0  0.64677  0.44966  0.27279  1.0000
  H   H129      1.0  0.65802  0.45695  0.22154  1.0000
  C   C240      1.0  0.62496  0.41957  0.16385  1.0000
  H   H130      1.0  0.61043  0.40309  0.15587  1.0000
  H   H131      1.0  0.63955  0.41819  0.14746  1.0000
  H   H132      1.0  0.62368  0.43066  0.11530  1.0000
  C   C241      1.0  0.59040  0.39907  0.30843  1.0000
  H   H133      1.0  0.58113  0.40085  0.26195  1.0000
  C   C242      1.0  0.65194  0.19549  0.32664  1.0000
  C   C243      1.0  0.64089  0.20028  0.25696  1.0000
  C   C244      1.0  0.62010  0.19894  0.27395  1.0000
  H   H134      1.0  0.61282  0.20289  0.22276  1.0000
  C   C245      1.0  0.65022  0.20719  0.16482  1.0000
  H   H135      1.0  0.66670  0.20913  0.15679  1.0000
  H   H136      1.0  0.65162  0.22317  0.14839  1.0000
  H   H137      1.0  0.63914  0.19481  0.11635  1.0000
  C   C246      1.0  0.67056  0.19297  0.30905  1.0000
  H   H138      1.0  0.66851  0.18150  0.26414  1.0000
  C   C247      1.0  0.06921  0.31814  0.32326  1.0000
  C   C248      1.0  0.05374  0.31461  0.25353  1.0000
  C   C249      1.0  0.03054  0.30185  0.27059  1.0000
  H   H139      1.0  0.01985  0.29991  0.21944  1.0000
  C   C250      1.0  0.06054  0.32402  0.16143  1.0000
  H   H140      1.0  0.07844  0.33470  0.15342  1.0000
  H   H141      1.0  0.05289  0.33402  0.14508  1.0000
  H   H142      1.0  0.05493  0.31049  0.11288  1.0000
  C   C251      1.0  0.09210  0.32751  0.30568  1.0000
  H   H143      1.0  0.09643  0.32020  0.25863  1.0000
  C   C252      1.0  0.75157  0.75285  0.32438  1.0000
  C   C253      1.0  0.75517  0.74092  0.25469  1.0000
  C   C254      1.0  0.76795  0.73051  0.27179  1.0000
  H   H144      1.0  0.76992  0.72175  0.22066  1.0000
  C   C255      1.0  0.74583  0.73828  0.16257  1.0000
  H   H145      1.0  0.73512  0.74546  0.15450  1.0000
  H   H146      1.0  0.73588  0.72062  0.14622  1.0000
  H   H147      1.0  0.75939  0.74622  0.11403  1.0000
  C   C256      1.0  0.74220  0.76636  0.30667  1.0000
  H   H148      1.0  0.74944  0.77788  0.25916  1.0000
  C   C257      1.0  0.31683  0.00052  0.32215  1.0000
  C   C258      1.0  0.32884  0.01606  0.25258  1.0000
  C   C259      1.0  0.33929  0.03925  0.26992  1.0000
  H   H149      1.0  0.34812  0.05001  0.21896  1.0000
  C   C260      1.0  0.33153  0.00937  0.16041  1.0000
  H   H150      1.0  0.32429  0.99148  0.15225  1.0000
  H   H151      1.0  0.34919  0.01703  0.14413  1.0000
  H   H152      1.0  0.32367  0.01505  0.11191  1.0000
  C   C261      1.0  0.30332  0.97764  0.30443  1.0000
  H   H153      1.0  0.29167  0.97335  0.25757  1.0000
  C   C262      1.0  0.02256  0.72955  0.32153  1.0000
  C   C263      1.0  0.03809  0.73313  0.25174  1.0000
  C   C264      1.0  0.06128  0.74593  0.26872  1.0000
  H   H154      1.0  0.07201  0.74788  0.21755  1.0000
  C   C265      1.0  0.03141  0.72373  0.15964  1.0000
  H   H155      1.0  0.01353  0.71296  0.15157  1.0000
  H   H156      1.0  0.03916  0.71382  0.14334  1.0000
  H   H157      1.0  0.03700  0.73727  0.11104  1.0000
  C   C266      1.0  0.99964  0.71994  0.30400  1.0000
  H   H158      1.0  0.99526  0.72662  0.25463  1.0000
  C   C267      1.0  0.33959  0.29419  0.32975  1.0000
  C   C268      1.0  0.33677  0.30611  0.25764  1.0000
  C   C269      1.0  0.32425  0.31701  0.27138  1.0000
  H   H159      1.0  0.32268  0.32569  0.21889  1.0000
  C   C270      1.0  0.34635  0.30789  0.16655  1.0000
  H   H160      1.0  0.35619  0.29967  0.16156  1.0000
  H   H161      1.0  0.35717  0.32538  0.14917  1.0000
  H   H162      1.0  0.33299  0.30036  0.11715  1.0000
  C   C271      1.0  0.34774  0.27928  0.32185  1.0000
  H   H163      1.0  0.33678  0.26315  0.32785  1.0000
  C   C272      1.0  0.77490  0.04716  0.32365  1.0000
  C   C273      1.0  0.76297  0.03166  0.25398  1.0000
  C   C274      1.0  0.75256  0.00847  0.27109  1.0000
  H   H164      1.0  0.74381  0.99776  0.21998  1.0000
  C   C275      1.0  0.76034  0.03840  0.16185  1.0000
  H   H165      1.0  0.76751  0.05629  0.15377  1.0000
  H   H166      1.0  0.74268  0.03070  0.14555  1.0000
  H   H167      1.0  0.76829  0.03280  0.11330  1.0000
  C   C276      1.0  0.78838  0.07005  0.30593  1.0000
  H   H168      1.0  0.79987  0.07436  0.25821  1.0000
  C   C277      1.0  0.28834  0.38350  0.38648  1.0000
  C   C278      1.0  0.29512  0.36751  0.38432  1.0000
  C   C279      1.0  0.34741  0.51851  0.38573  1.0000
  C   C280      1.0  0.36981  0.53571  0.38424  1.0000
  C   C281      1.0  0.21955  0.52501  0.39044  1.0000
  C   C282      1.0  0.22470  0.50772  0.38727  1.0000
  C   C283      1.0  0.16730  0.37344  0.38810  1.0000
  C   C284      1.0  0.14440  0.35758  0.39189  1.0000
  H   H169      1.0  0.13831  0.34757  0.44726  1.0000
  H   H170      1.0  0.17719  0.37418  0.44042  1.0000
  H   H171      1.0  0.21942  0.49654  0.43909  1.0000
  H   H172      1.0  0.21104  0.52599  0.44474  1.0000
  H   H173      1.0  0.33748  0.51821  0.43724  1.0000
  H   H174      1.0  0.37499  0.54745  0.43363  1.0000
  H   H175      1.0  0.30551  0.36810  0.43404  1.0000
  H   H176      1.0  0.29359  0.39460  0.43858  1.0000
  C   C285      1.0  0.68623  0.90675  0.38784  1.0000
  C   C286      1.0  0.70225  0.92953  0.38607  1.0000
  C   C287      1.0  0.55134  0.83070  0.38692  1.0000
  C   C288      1.0  0.53414  0.83585  0.38504  1.0000
  C   C289      1.0  0.54470  0.69636  0.39177  1.0000
  C   C290      1.0  0.56197  0.71879  0.38855  1.0000
  C   C291      1.0  0.69623  0.79569  0.38937  1.0000
  C   C292      1.0  0.71211  0.78868  0.39322  1.0000
  H   H177      1.0  0.72208  0.79261  0.44860  1.0000
  H   H178      1.0  0.69545  0.80484  0.44169  1.0000
  H   H179      1.0  0.57312  0.72472  0.44040  1.0000
  H   H180      1.0  0.54367  0.68688  0.44615  1.0000
  H   H181      1.0  0.55158  0.82105  0.43840  1.0000
  H   H182      1.0  0.52230  0.82922  0.43419  1.0000
  H   H183      1.0  0.70168  0.93930  0.43605  1.0000
  H   H184      1.0  0.67508  0.90087  0.43984  1.0000
  C   C293      1.0  0.16293  0.78129  0.38535  1.0000
  C   C294      1.0  0.14017  0.77454  0.38359  1.0000
  C   C295      1.0  0.23892  0.72224  0.38453  1.0000
  C   C296      1.0  0.23375  0.69986  0.38302  1.0000
  C   C297      1.0  0.37388  0.85010  0.38124  1.0000
  C   C298      1.0  0.35128  0.84468  0.38457  1.0000
  C   C299      1.0  0.27399  0.90240  0.38680  1.0000
  C   C300      1.0  0.28107  0.92530  0.39066  1.0000
  H   H185      1.0  0.27707  0.93135  0.44591  1.0000
  H   H186      1.0  0.26480  0.89247  0.43911  1.0000
  H   H187      1.0  0.34598  0.84989  0.43868  1.0000
  H   H188      1.0  0.38398  0.85835  0.43435  1.0000
  H   H189      1.0  0.24849  0.73214  0.43606  1.0000
  H   H190      1.0  0.24032  0.69467  0.43234  1.0000
  H   H191      1.0  0.13036  0.76418  0.43353  1.0000
  H   H192      1.0  0.16878  0.77603  0.43740  1.0000
  C   C301      1.0  0.80331  0.66420  0.38851  1.0000
  C   C302      1.0  0.79657  0.68023  0.38680  1.0000
  C   C303      1.0  0.74431  0.52915  0.38763  1.0000
  C   C304      1.0  0.72191  0.51196  0.38616  1.0000
  C   C305      1.0  0.87220  0.52270  0.39262  1.0000
  C   C306      1.0  0.86702  0.53996  0.38932  1.0000
  C   C307      1.0  0.92438  0.67420  0.39002  1.0000
  C   C308      1.0  0.94726  0.69009  0.39379  1.0000
  H   H193      1.0  0.95328  0.70013  0.44902  1.0000
  H   H194      1.0  0.91443  0.67345  0.44228  1.0000
  H   H195      1.0  0.87221  0.55112  0.44115  1.0000
  H   H196      1.0  0.88061  0.52169  0.44710  1.0000
  H   H197      1.0  0.75419  0.52944  0.43917  1.0000
  H   H198      1.0  0.71670  0.50019  0.43555  1.0000
  H   H199      1.0  0.78620  0.67966  0.43674  1.0000
  H   H200      1.0  0.79802  0.65306  0.44054  1.0000
  C   C309      1.0  0.40542  0.14084  0.38940  1.0000
  C   C310      1.0  0.38939  0.11808  0.38723  1.0000
  C   C311      1.0  0.54053  0.21694  0.38890  1.0000
  C   C312      1.0  0.55773  0.21174  0.38743  1.0000
  C   C313      1.0  0.54704  0.35131  0.39358  1.0000
  C   C314      1.0  0.52979  0.32887  0.39042  1.0000
  C   C315      1.0  0.39494  0.25272  0.38860  1.0000
  C   C316      1.0  0.37913  0.25993  0.38467  1.0000
  H   H201      1.0  0.36839  0.25643  0.43729  1.0000
  H   H202      1.0  0.39489  0.24373  0.44317  1.0000
  H   H203      1.0  0.51859  0.32292  0.44222  1.0000
  H   H204      1.0  0.54800  0.36078  0.44789  1.0000
  H   H205      1.0  0.54021  0.22654  0.44041  1.0000
  H   H206      1.0  0.56946  0.21829  0.43682  1.0000
  H   H207      1.0  0.38989  0.10822  0.43701  1.0000
  H   H208      1.0  0.41648  0.14665  0.44157  1.0000
  C   C317      1.0  0.92877  0.26637  0.38731  1.0000
  C   C318      1.0  0.95155  0.27313  0.38556  1.0000
  C   C319      1.0  0.85274  0.32538  0.38643  1.0000
  C   C320      1.0  0.85794  0.34778  0.38493  1.0000
  C   C321      1.0  0.71838  0.19753  0.39131  1.0000
  C   C322      1.0  0.74081  0.20266  0.38807  1.0000
  C   C323      1.0  0.81772  0.14531  0.38886  1.0000
  C   C324      1.0  0.81070  0.12242  0.39274  1.0000
  H   H209      1.0  0.81463  0.11636  0.44812  1.0000
  H   H210      1.0  0.82686  0.15523  0.44116  1.0000
  H   H211      1.0  0.74672  0.19742  0.43993  1.0000
  H   H212      1.0  0.70890  0.18910  0.44576  1.0000
  H   H213      1.0  0.84308  0.31546  0.43789  1.0000
  H   H214      1.0  0.85135  0.35296  0.43429  1.0000
  H   H215      1.0  0.96131  0.28345  0.43554  1.0000
  H   H216      1.0  0.92288  0.27162  0.43932  1.0000
  C   C325      1.0  0.21503  0.62959  0.35423  1.0000
  C   C326      1.0  0.21038  0.61376  0.42470  1.0000
  C   C327      1.0  0.21170  0.59424  0.40751  1.0000
  H   H217      1.0  0.20770  0.58281  0.45802  1.0000
  C   C328      1.0  0.20353  0.61589  0.51773  1.0000
  H   H218      1.0  0.20072  0.62982  0.52719  1.0000
  H   H219      1.0  0.21630  0.61772  0.56527  1.0000
  H   H220      1.0  0.18795  0.60092  0.53509  1.0000
  C   C329      1.0  0.21671  0.65056  0.36836  1.0000
  H   H221      1.0  0.22016  0.65646  0.43026  1.0000
  C   C330      1.0  0.44015  0.58724  0.35543  1.0000
  C   C331      1.0  0.45592  0.59844  0.42589  1.0000
  C   C332      1.0  0.47544  0.61929  0.40867  1.0000
  H   H222      1.0  0.48684  0.62675  0.45917  1.0000
  C   C333      1.0  0.45373  0.58948  0.51893  1.0000
  H   H223      1.0  0.43980  0.57273  0.52837  1.0000
  H   H224      1.0  0.45187  0.60042  0.56645  1.0000
  H   H225      1.0  0.46870  0.58888  0.53631  1.0000
  C   C334      1.0  0.41915  0.56797  0.36957  1.0000
  H   H226      1.0  0.41319  0.56555  0.43147  1.0000
  C   C335      1.0  0.48304  0.85487  0.35646  1.0000
  C   C336      1.0  0.47232  0.85956  0.42846  1.0000
  C   C337      1.0  0.45143  0.85823  0.41378  1.0000
  H   H227      1.0  0.44445  0.86231  0.46587  1.0000
  C   C338      1.0  0.48164  0.86627  0.52109  1.0000
  H   H228      1.0  0.49836  0.86896  0.52961  1.0000
  H   H229      1.0  0.47076  0.85348  0.56887  1.0000
  H   H230      1.0  0.48242  0.88189  0.53920  1.0000
  C   C339      1.0  0.50223  0.85303  0.36970  1.0000
  H   H231      1.0  0.50465  0.84942  0.43138  1.0000
  C   C340      1.0  0.87675  0.41811  0.35614  1.0000
  C   C341      1.0  0.88130  0.43391  0.42656  1.0000
  C   C342      1.0  0.87996  0.45341  0.40929  1.0000
  H   H232      1.0  0.88389  0.46482  0.45977  1.0000
  C   C343      1.0  0.88806  0.43175  0.51961  1.0000
  H   H233      1.0  0.89088  0.41782  0.52907  1.0000
  H   H234      1.0  0.87524  0.42989  0.56713  1.0000
  H   H235      1.0  0.90362  0.44672  0.53698  1.0000
  C   C344      1.0  0.87502  0.39711  0.37032  1.0000
  H   H236      1.0  0.87145  0.39117  0.43220  1.0000
  C   C345      1.0  0.65162  0.46042  0.35737  1.0000
  C   C346      1.0  0.63578  0.44922  0.42785  1.0000
  C   C347      1.0  0.61626  0.42838  0.41066  1.0000
  H   H237      1.0  0.60482  0.42093  0.46117  1.0000
  C   C348      1.0  0.63789  0.45816  0.52086  1.0000
  H   H238      1.0  0.65182  0.47490  0.53028  1.0000
  H   H239      1.0  0.63971  0.44720  0.56842  1.0000
  H   H240      1.0  0.62292  0.45876  0.53824  1.0000
  C   C349      1.0  0.67259  0.47970  0.37151  1.0000
  H   H241      1.0  0.67850  0.48207  0.43338  1.0000
  C   C350      1.0  0.60929  0.19299  0.35855  1.0000
  C   C351      1.0  0.62049  0.18838  0.42894  1.0000
  C   C352      1.0  0.64133  0.18970  0.41160  1.0000
  H   H242      1.0  0.64875  0.18569  0.46201  1.0000
  C   C353      1.0  0.61152  0.18154  0.52199  1.0000
  H   H243      1.0  0.59477  0.17872  0.53152  1.0000
  H   H244      1.0  0.62246  0.19432  0.56953  1.0000
  H   H245      1.0  0.61092  0.16597  0.53928  1.0000
  C   C354      1.0  0.59000  0.19468  0.37277  1.0000
  H   H246      1.0  0.58755  0.19816  0.43468  1.0000
  C   C355      1.0  0.02157  0.29220  0.35527  1.0000
  C   C356      1.0  0.03710  0.29599  0.42580  1.0000
  C   C357      1.0  0.06038  0.30879  0.40840  1.0000
  H   H247      1.0  0.07129  0.31079  0.45876  1.0000
  C   C358      1.0  0.03071  0.28691  0.51892  1.0000
  H   H248      1.0  0.01301  0.27558  0.52864  1.0000
  H   H249      1.0  0.03595  0.30062  0.56637  1.0000
  H   H250      1.0  0.03904  0.27761  0.53626  1.0000
  C   C359      1.0  0.99839  0.28194  0.36950  1.0000
  H   H251      1.0  0.99352  0.28235  0.43154  1.0000
  C   C360      1.0  0.77755  0.73121  0.35648  1.0000
  C   C361      1.0  0.77368  0.74293  0.42698  1.0000
  C   C362      1.0  0.76089  0.75340  0.40952  1.0000
  H   H252      1.0  0.75883  0.76230  0.45987  1.0000
  C   C363      1.0  0.78269  0.74562  0.52012  1.0000
  H   H253      1.0  0.79401  0.73925  0.52987  1.0000
  H   H254      1.0  0.76894  0.73715  0.56754  1.0000
  H   H255      1.0  0.79198  0.76325  0.53746  1.0000
  C   C364      1.0  0.78777  0.71826  0.37073  1.0000
  H   H256      1.0  0.78732  0.71299  0.43277  1.0000
  C   C365      1.0  0.33853  0.04809  0.35475  1.0000
  C   C366      1.0  0.32668  0.03247  0.42505  1.0000
  C   C367      1.0  0.31621  0.00923  0.40737  1.0000
  H   H257      1.0  0.30724  0.99825  0.45761  1.0000
  C   C368      1.0  0.32387  0.03876  0.51817  1.0000
  H   H258      1.0  0.33017  0.05644  0.52790  1.0000
  H   H259      1.0  0.33235  0.03353  0.56562  1.0000
  H   H260      1.0  0.30622  0.03036  0.53544  1.0000
  C   C369      1.0  0.35153  0.07123  0.36958  1.0000
  H   H261      1.0  0.35683  0.07592  0.43165  1.0000
  C   C370      1.0  0.07019  0.75555  0.35337  1.0000
  C   C371      1.0  0.05460  0.75170  0.42396  1.0000
  C   C372      1.0  0.03134  0.73889  0.40664  1.0000
  H   H262      1.0  0.02039  0.73681  0.45710  1.0000
  C   C373      1.0  0.06093  0.76073  0.51709  1.0000
  H   H263      1.0  0.07863  0.77205  0.52675  1.0000
  H   H264      1.0  0.05567  0.74699  0.56449  1.0000
  H   H265      1.0  0.05260  0.77002  0.53453  1.0000
  C   C374      1.0  0.09335  0.76574  0.36753  1.0000
  H   H266      1.0  0.09817  0.76531  0.42955  1.0000
  C   C375      1.0  0.31413  0.31665  0.35469  1.0000
  C   C376      1.0  0.31740  0.30511  0.42739  1.0000
  C   C377      1.0  0.32995  0.29433  0.41327  1.0000
  H   H267      1.0  0.33161  0.28567  0.46576  1.0000
  C   C378      1.0  0.30797  0.30264  0.51978  1.0000
  H   H268      1.0  0.29667  0.30908  0.52792  1.0000
  H   H269      1.0  0.32152  0.31112  0.56788  1.0000
  H   H270      1.0  0.29852  0.28504  0.53767  1.0000
  C   C379      1.0  0.30397  0.32968  0.36726  1.0000
  H   H271      1.0  0.30430  0.33502  0.42905  1.0000
  C   C380      1.0  0.75324  0.99953  0.35578  1.0000
  C   C381      1.0  0.76494  0.01510  0.42629  1.0000
  C   C382      1.0  0.77541  0.03836  0.40883  1.0000
  H   H272      1.0  0.78429  0.04930  0.45919  1.0000
  C   C383      1.0  0.76761  0.00874  0.51943  1.0000
  H   H273      1.0  0.76124  0.99104  0.52918  1.0000
  H   H274      1.0  0.75912  0.01399  0.56684  1.0000
  H   H275      1.0  0.78523  0.01708  0.53679  1.0000
  C   C384      1.0  0.74029  0.97635  0.37004  1.0000
  H   H276      1.0  0.73501  0.97149  0.43208  1.0000
