data_image0
_chemical_formula_structural       C3NC3NC5NC5NC36H26C4H4CNC2N2CNC2N2C16H16NC3N3C3N2
_chemical_formula_sum              "C84 N16 H46"
_cell_length_a       34.2245
_cell_length_b       34.2245
_cell_length_c       14.6329
_cell_angle_alpha    90
_cell_angle_beta     90
_cell_angle_gamma    90.1689

_space_group_name_H-M_alt    "P 1"
_space_group_IT_number       1

loop_
  _space_group_symop_operation_xyz
  'x, y, z'

loop_
  _atom_site_type_symbol
  _atom_site_label
  _atom_site_symmetry_multiplicity
  _atom_site_fract_x
  _atom_site_fract_y
  _atom_site_fract_z
  _atom_site_occupancy
  C   C1        1.0  0.11495  0.08659  0.34107  1.0000
  C   C2        1.0  0.08621  0.11485  0.34058  1.0000
  C   C3        1.0  0.04983  0.09621  0.34207  1.0000
  N   N1        1.0  0.05798  0.05739  0.34316  1.0000
  C   C4        1.0  0.09693  0.04989  0.34211  1.0000
  C   C5        1.0  0.11707  0.01347  0.34187  1.0000
  C   C6        1.0  0.09842  0.97628  0.34182  1.0000
  N   N2        1.0  0.05967  0.96828  0.34258  1.0000
  C   C7        1.0  0.05231  0.92940  0.34138  1.0000
  C   C8        1.0  0.08882  0.91127  0.33993  1.0000
  C   C9        1.0  0.11716  0.94008  0.33996  1.0000
  C   C10       1.0  0.01543  0.91013  0.34152  1.0000
  C   C11       1.0  0.97868  0.92962  0.34205  1.0000
  N   N3        1.0  0.97051  0.96844  0.34204  1.0000
  C   C12       1.0  0.93155  0.97592  0.34163  1.0000
  C   C13       1.0  0.91356  0.93920  0.34212  1.0000
  C   C14       1.0  0.94231  0.91095  0.34206  1.0000
  C   C15       1.0  0.91139  0.01233  0.34106  1.0000
  C   C16       1.0  0.93006  0.04952  0.34133  1.0000
  N   N4        1.0  0.96882  0.05753  0.34224  1.0000
  C   C17       1.0  0.97620  0.09641  0.34138  1.0000
  C   C18       1.0  0.93968  0.11453  0.34027  1.0000
  C   C19       1.0  0.91133  0.08572  0.33977  1.0000
  C   C20       1.0  0.01309  0.11571  0.34139  1.0000
  C   C21       1.0  0.01307  0.15754  0.33811  1.0000
  C   C22       1.0  0.00698  0.17724  0.25452  1.0000
  C   C23       1.0  0.00557  0.21834  0.25136  1.0000
  C   C24       1.0  0.01030  0.24133  0.33129  1.0000
  C   C25       1.0  0.00712  0.28317  0.32797  1.0000
  C   C26       1.0  0.00026  0.36712  0.31868  1.0000
  C   C27       1.0  0.97426  0.34224  0.27063  1.0000
  C   C28       1.0  0.97760  0.30130  0.27521  1.0000
  C   C29       1.0  0.86956  0.01155  0.33778  1.0000
  C   C30       1.0  0.84995  0.00488  0.25428  1.0000
  C   C31       1.0  0.80885  0.00323  0.25089  1.0000
  C   C32       1.0  0.78576  0.00834  0.33048  1.0000
  C   C33       1.0  0.74389  0.00525  0.32685  1.0000
  C   C34       1.0  0.72559  0.97560  0.27447  1.0000
  C   C35       1.0  0.68462  0.97242  0.26939  1.0000
  C   C36       1.0  0.65989  0.99869  0.31660  1.0000
  C   C37       1.0  0.01544  0.86832  0.33886  1.0000
  C   C38       1.0  0.01725  0.78446  0.33259  1.0000
  C   C39       1.0  0.01920  0.80729  0.25174  1.0000
  C   C40       1.0  0.01834  0.84842  0.25463  1.0000
  C   C41       1.0  0.01893  0.74248  0.32890  1.0000
  C   C42       1.0  0.04440  0.72327  0.26729  1.0000
  C   C43       1.0  0.04515  0.68226  0.26011  1.0000
  C   C44       1.0  0.02073  0.65851  0.31504  1.0000
  C   C45       1.0  0.15889  0.01423  0.33924  1.0000
  C   C46       1.0  0.17878  0.01948  0.25559  1.0000
  C   C47       1.0  0.21990  0.02062  0.25278  1.0000
  C   C48       1.0  0.24274  0.01652  0.33314  1.0000
  C   C49       1.0  0.28472  0.01827  0.32960  1.0000
  C   C50       1.0  0.36866  0.02020  0.31547  1.0000
  C   C51       1.0  0.34509  0.04632  0.26492  1.0000
  C   C52       1.0  0.30409  0.04550  0.27227  1.0000
  H   H1        1.0  0.35760  0.06616  0.22134  1.0000
  H   H2        1.0  0.28844  0.06523  0.23474  1.0000
  H   H3        1.0  0.23306  0.02393  0.19049  1.0000
  H   H4        1.0  0.16341  0.02254  0.19601  1.0000
  H   H5        1.0  0.14424  0.09244  0.33997  1.0000
  H   H6        1.0  0.09157  0.14422  0.33899  1.0000
  H   H7        1.0  0.03829  0.03737  0.34413  1.0000
  H   H8        1.0  0.99019  0.98846  0.34129  1.0000
  H   H9        1.0  0.14655  0.93498  0.33854  1.0000
  H   H10       1.0  0.09441  0.88196  0.33872  1.0000
  H   H11       1.0  0.01995  0.86378  0.19473  1.0000
  H   H12       1.0  0.02079  0.79414  0.18910  1.0000
  H   H13       1.0  0.93699  0.88155  0.34202  1.0000
  H   H14       1.0  0.88427  0.93331  0.34236  1.0000
  H   H15       1.0  0.93405  0.14382  0.33950  1.0000
  H   H16       1.0  0.88194  0.09084  0.33841  1.0000
  H   H17       1.0  0.86552  0.00090  0.19530  1.0000
  H   H18       1.0  0.79588  0.99857  0.18885  1.0000
  H   H19       1.0  0.67303  0.95044  0.23032  1.0000
  H   H20       1.0  0.74199  0.95547  0.24001  1.0000
  H   H21       1.0  0.95764  0.28477  0.24022  1.0000
  H   H22       1.0  0.95237  0.35370  0.23129  1.0000
  H   H23       1.0  0.00119  0.23139  0.18932  1.0000
  H   H24       1.0  0.00314  0.16173  0.19538  1.0000
  H   H25       1.0  0.06292  0.73902  0.22651  1.0000
  H   H26       1.0  0.06368  0.66989  0.21346  1.0000
  C   C53       1.0  0.99630  0.40767  0.31031  1.0000
  C   C54       1.0  0.61933  0.99492  0.30769  1.0000
  C   C55       1.0  0.02042  0.61821  0.30143  1.0000
  C   C56       1.0  0.40889  0.02001  0.30131  1.0000
  H   H27       1.0  0.97648  0.41779  0.26652  1.0000
  H   H28       1.0  0.41857  0.02633  0.23883  1.0000
  H   H29       1.0  0.02567  0.60845  0.23852  1.0000
  H   H30       1.0  0.60910  0.97551  0.26291  1.0000
  C   C57       1.0  0.01520  0.47186  0.35298  1.0000
  N   N5        1.0  0.01643  0.53459  0.28161  1.0000
  C   C58       1.0  0.01657  0.49508  0.27274  1.0000
  C   C59       1.0  0.01940  0.48110  0.19046  1.0000
  N   N6        1.0  0.02183  0.46890  0.11757  1.0000
  N   N7        1.0  0.01630  0.43283  0.35637  1.0000
  C   C60       1.0  0.55526  0.01354  0.35141  1.0000
  N   N8        1.0  0.49245  0.01534  0.28044  1.0000
  C   C61       1.0  0.53195  0.01545  0.27135  1.0000
  C   C62       1.0  0.54588  0.01868  0.18907  1.0000
  N   N9        1.0  0.55800  0.02146  0.11619  1.0000
  N   N10       1.0  0.59428  0.01451  0.35475  1.0000
  C   C63       1.0  0.01719  0.22128  0.41452  1.0000
  C   C64       1.0  0.01837  0.18011  0.41806  1.0000
  C   C65       1.0  0.03293  0.30802  0.37681  1.0000
  C   C66       1.0  0.02970  0.34911  0.37202  1.0000
  C   C67       1.0  0.80573  0.01568  0.41366  1.0000
  C   C68       1.0  0.84690  0.01712  0.41744  1.0000
  C   C69       1.0  0.67807  0.02824  0.36962  1.0000
  C   C70       1.0  0.71918  0.03132  0.37487  1.0000
  C   C71       1.0  0.01309  0.84599  0.41990  1.0000
  C   C72       1.0  0.01386  0.80481  0.41665  1.0000
  C   C73       1.0  0.99581  0.67737  0.37822  1.0000
  C   C74       1.0  0.99501  0.71852  0.38500  1.0000
  C   C75       1.0  0.18124  0.00979  0.41974  1.0000
  C   C76       1.0  0.22242  0.01081  0.41657  1.0000
  C   C77       1.0  0.30850  0.99258  0.38134  1.0000
  C   C78       1.0  0.34965  0.99346  0.37445  1.0000
  H   H31       1.0  0.36555  0.97349  0.41074  1.0000
  H   H32       1.0  0.29598  0.97181  0.42229  1.0000
  H   H33       1.0  0.23746  0.00827  0.47666  1.0000
  H   H34       1.0  0.16763  0.00602  0.48139  1.0000
  H   H35       1.0  0.01116  0.85963  0.48197  1.0000
  H   H36       1.0  0.01300  0.78979  0.47704  1.0000
  H   H37       1.0  0.86028  0.02186  0.47900  1.0000
  H   H38       1.0  0.79045  0.01892  0.47325  1.0000
  H   H39       1.0  0.73093  0.05362  0.41255  1.0000
  H   H40       1.0  0.66154  0.04816  0.40441  1.0000
  H   H41       1.0  0.02260  0.16665  0.47971  1.0000
  H   H42       1.0  0.02006  0.23649  0.47433  1.0000
  H   H43       1.0  0.04939  0.36575  0.40752  1.0000
  H   H44       1.0  0.05509  0.29640  0.41489  1.0000
  H   H45       1.0  0.97552  0.73089  0.42930  1.0000
  H   H46       1.0  0.97713  0.66134  0.41805  1.0000
  N   N11       1.0  0.01430  0.49115  0.43421  1.0000
  C   C79       1.0  0.01384  0.53075  0.44282  1.0000
  C   C80       1.0  0.01493  0.55402  0.36283  1.0000
  C   C81       1.0  0.01291  0.54524  0.52493  1.0000
  N   N12       1.0  0.01211  0.55799  0.59750  1.0000
  N   N13       1.0  0.01518  0.59317  0.36611  1.0000
  N   N14       1.0  0.53603  0.01217  0.43270  1.0000
  C   C82       1.0  0.49645  0.01174  0.44152  1.0000
  C   C83       1.0  0.47310  0.01339  0.36173  1.0000
  C   C84       1.0  0.48203  0.01033  0.52370  1.0000
  N   N15       1.0  0.46936  0.00912  0.59631  1.0000
  N   N16       1.0  0.43397  0.01368  0.36529  1.0000
