data_image0
_chemical_formula_structural       C5NC3H2NO2NHCNC3H2NO2NHCNC3H2NO2NHC5H3C2O3C5H3C2O3C4HC2NHNO2NHC4HC2NHNO2NHC4HC2NHNO2NH
_chemical_formula_sum              "C48 N18 H24 O18"
_cell_length_a       29.1719
_cell_length_b       29.172
_cell_length_c       15.0671
_cell_angle_alpha    90
_cell_angle_beta     90
_cell_angle_gamma    120

_space_group_name_H-M_alt    "P 1"
_space_group_IT_number       1

loop_
  _space_group_symop_operation_xyz
  'x, y, z'

loop_
  _atom_site_type_symbol
  _atom_site_label
  _atom_site_symmetry_multiplicity
  _atom_site_fract_x
  _atom_site_fract_y
  _atom_site_fract_z
  _atom_site_occupancy
  C   C1        1.0  0.35581  0.63369  0.31035  1.0000
  C   C2        1.0  0.38196  0.60350  0.31911  1.0000
  C   C3        1.0  0.61999  0.34042  0.34171  1.0000
  C   C4        1.0  0.57693  0.34985  0.33782  1.0000
  C   C5        1.0  0.52619  0.41604  0.29644  1.0000
  N   N1        1.0  0.49080  0.43289  0.29087  1.0000
  C   C6        1.0  0.40375  0.45317  0.26211  1.0000
  C   C7        1.0  0.37884  0.48367  0.24867  1.0000
  C   C8        1.0  0.38170  0.52024  0.31293  1.0000
  H   H1        1.0  0.36001  0.48047  0.18977  1.0000
  H   H2        1.0  0.54522  0.41511  0.24015  1.0000
  N   N2        1.0  0.40108  0.41698  0.19680  1.0000
  O   O1        1.0  0.42170  0.43989  0.12489  1.0000
  O   O2        1.0  0.35412  0.38152  0.18202  1.0000
  N   N3        1.0  0.35948  0.55122  0.29718  1.0000
  H   H3        1.0  0.32760  0.53562  0.26091  1.0000
  C   C9        1.0  0.57849  0.10903  0.29631  1.0000
  N   N4        1.0  0.56162  0.05679  0.29077  1.0000
  C   C10       1.0  0.54126  0.94943  0.26200  1.0000
  C   C11       1.0  0.51072  0.89403  0.24859  1.0000
  C   C12       1.0  0.47419  0.86033  0.31291  1.0000
  H   H4        1.0  0.51391  0.87836  0.18971  1.0000
  H   H5        1.0  0.57937  0.12897  0.24001  1.0000
  N   N5        1.0  0.57744  0.98293  0.19665  1.0000
  O   O3        1.0  0.55451  0.98065  0.12477  1.0000
  O   O4        1.0  0.61287  0.97139  0.18182  1.0000
  N   N6        1.0  0.44324  0.80711  0.29730  1.0000
  H   H6        1.0  0.45879  0.79088  0.26078  1.0000
  C   C13       1.0  0.88538  0.46828  0.29649  1.0000
  N   N7        1.0  0.93762  0.50365  0.29093  1.0000
  C   C14       1.0  0.04496  0.59068  0.26208  1.0000
  C   C15       1.0  0.10036  0.61560  0.24867  1.0000
  C   C16       1.0  0.13407  0.61274  0.31294  1.0000
  H   H7        1.0  0.11600  0.63438  0.18973  1.0000
  H   H8        1.0  0.86543  0.44923  0.24021  1.0000
  N   N8        1.0  0.01143  0.59332  0.19673  1.0000
  O   O5        1.0  0.01373  0.57266  0.12487  1.0000
  O   O6        1.0  0.02292  0.64026  0.18187  1.0000
  N   N9        1.0  0.18729  0.63503  0.29731  1.0000
  H   H9        1.0  0.20352  0.66681  0.26079  1.0000
  C   C17       1.0  0.36072  0.72102  0.31036  1.0000
  C   C18       1.0  0.30474  0.69445  0.31056  1.0000
  C   C19       1.0  0.27339  0.63861  0.31033  1.0000
  C   C20       1.0  0.29996  0.60920  0.31058  1.0000
  C   C21       1.0  0.38522  0.68968  0.31050  1.0000
  H   H10       1.0  0.27796  0.56892  0.31496  1.0000
  H   H11       1.0  0.42550  0.70795  0.31497  1.0000
  H   H12       1.0  0.28647  0.71646  0.31490  1.0000
  C   C22       1.0  0.39093  0.77736  0.31907  1.0000
  C   C23       1.0  0.21704  0.61247  0.31905  1.0000
  O   O7        1.0  0.43253  0.62892  0.34936  1.0000
  O   O8        1.0  0.36554  0.80252  0.34940  1.0000
  O   O9        1.0  0.19189  0.56190  0.34934  1.0000
  C   C24       1.0  0.65401  0.27846  0.34158  1.0000
  C   C25       1.0  0.70617  0.32186  0.34113  1.0000
  C   C26       1.0  0.71598  0.37444  0.34168  1.0000
  C   C27       1.0  0.67257  0.38319  0.34123  1.0000
  C   C28       1.0  0.61124  0.28826  0.34115  1.0000
  H   H13       1.0  0.67938  0.42120  0.33946  1.0000
  H   H14       1.0  0.57323  0.25706  0.33932  1.0000
  H   H15       1.0  0.73737  0.31506  0.33926  1.0000
  C   C29       1.0  0.64458  0.22597  0.33761  1.0000
  C   C30       1.0  0.76847  0.41750  0.33778  1.0000
  O   O10       1.0  0.53584  0.31857  0.28384  1.0000
  O   O11       1.0  0.67590  0.21620  0.28366  1.0000
  O   O12       1.0  0.77825  0.45864  0.28392  1.0000
  C   C31       1.0  0.53803  0.40252  0.37968  1.0000
  C   C32       1.0  0.46375  0.43704  0.36094  1.0000
  C   C33       1.0  0.47447  0.42453  0.44699  1.0000
  C   C34       1.0  0.51234  0.40787  0.45494  1.0000
  H   H16       1.0  0.52061  0.39872  0.51624  1.0000
  C   C35       1.0  0.43111  0.45936  0.34338  1.0000
  C   C36       1.0  0.40662  0.52204  0.39414  1.0000
  N   N10       1.0  0.43074  0.49317  0.40500  1.0000
  H   H17       1.0  0.40811  0.54590  0.44494  1.0000
  N   N11       1.0  0.44728  0.42780  0.52245  1.0000
  O   O13       1.0  0.47869  0.46037  0.57831  1.0000
  O   O14       1.0  0.42077  0.38360  0.55976  1.0000
  N   N12       1.0  0.57559  0.38803  0.38779  1.0000
  H   H18       1.0  0.60137  0.40447  0.43551  1.0000
  C   C37       1.0  0.59201  0.13441  0.37953  1.0000
  C   C38       1.0  0.55747  0.02559  0.36084  1.0000
  C   C39       1.0  0.56997  0.04883  0.44688  1.0000
  C   C40       1.0  0.58663  0.10336  0.45481  1.0000
  H   H19       1.0  0.59576  0.12079  0.51611  1.0000
  C   C41       1.0  0.53514  0.97062  0.34329  1.0000
  C   C42       1.0  0.47243  0.88349  0.39412  1.0000
  N   N13       1.0  0.50133  0.93648  0.40494  1.0000
  H   H20       1.0  0.44859  0.86113  0.44494  1.0000
  N   N14       1.0  0.56669  0.01838  0.52236  1.0000
  O   O15       1.0  0.53411  0.01724  0.57819  1.0000
  O   O16       1.0  0.61088  0.03608  0.55970  1.0000
  N   N15       1.0  0.60646  0.18645  0.38764  1.0000
  H   H21       1.0  0.58998  0.19576  0.43531  1.0000
  C   C43       1.0  0.86002  0.45644  0.37973  1.0000
  C   C44       1.0  0.96883  0.53072  0.36098  1.0000
  C   C45       1.0  0.94561  0.51998  0.44703  1.0000
  C   C46       1.0  0.89108  0.48210  0.45499  1.0000
  H   H22       1.0  0.87365  0.47384  0.51629  1.0000
  C   C47       1.0  0.02379  0.56338  0.34339  1.0000
  C   C48       1.0  0.11095  0.58789  0.39420  1.0000
  N   N16       1.0  0.05796  0.56375  0.40504  1.0000
  H   H23       1.0  0.13332  0.58636  0.44498  1.0000
  N   N17       1.0  0.97606  0.54717  0.52249  1.0000
  O   O17       1.0  0.97723  0.51576  0.57834  1.0000
  O   O18       1.0  0.95836  0.57367  0.55982  1.0000
  N   N18       1.0  0.80797  0.41890  0.38786  1.0000
  H   H24       1.0  0.79865  0.39302  0.43539  1.0000
