data_image0
_chemical_formula_structural       CNHCNHCNHCNHC2NCHC2NCHC2NCHC2NCHC2NCHC2NCHC2NCHC2NCHCNHCNHCNHCNHC2NCHC2NCHC2NCHC2NCHCNHCNHCNHCNHC2NCHC2NCHCNHCNHCNHCNHC2NCHC2NCHC2NCHC2NCHC2NCHC2NCHC2NCHC2NCHCNHCNHCNHCNHC6H3C6H3C6H3C6H3C6H3C6H3C6H3C6H3C6H3C6H3C6H3C6H3C6H3C6H3C6H3C6H3C6H3C6H3C6H3C6H3C6H3C6H3C6H3C6H3C6H3C6H3C6H3C6H3C2NCHC2NCHC2NCHC2NCHCNHCNHCNHCNHCNHCNHCNHCNHC2NCHC2NCHC2NCHC2NCHCNHCNHCNHCNHC2NCHC2NCHC2NCHC2NCHCNHCNHC2NCHC2NCHC2NCHC2NCHCNHCNHCNHCNHCNHCNHCNHCNHC2NCHC2NCHC2NCHC2NCH
_chemical_formula_sum              "C336 N84 H168"
_cell_length_a       51.9117
_cell_length_b       51.9117
_cell_length_c       14.8852
_cell_angle_alpha    90
_cell_angle_beta     90
_cell_angle_gamma    90

_space_group_name_H-M_alt    "P 1"
_space_group_IT_number       1

loop_
  _space_group_symop_operation_xyz
  'x, y, z'

loop_
  _atom_site_type_symbol
  _atom_site_label
  _atom_site_symmetry_multiplicity
  _atom_site_fract_x
  _atom_site_fract_y
  _atom_site_fract_z
  _atom_site_occupancy
  C   C1        1.0  0.16188  0.13472  0.31563  1.0000
  N   N1        1.0  0.14256  0.11737  0.31669  1.0000
  H   H1        1.0  0.17767  0.13115  0.27656  1.0000
  C   C2        1.0  0.84511  0.87450  0.30733  1.0000
  N   N2        1.0  0.86480  0.89141  0.31033  1.0000
  H   H2        1.0  0.82949  0.87864  0.26813  1.0000
  C   C3        1.0  0.87384  0.16228  0.31181  1.0000
  N   N3        1.0  0.89096  0.14277  0.31349  1.0000
  H   H3        1.0  0.87767  0.17802  0.27277  1.0000
  C   C4        1.0  0.13399  0.84548  0.31142  1.0000
  N   N4        1.0  0.11687  0.86499  0.31360  1.0000
  H   H4        1.0  0.13011  0.82979  0.27224  1.0000
  C   C5        1.0  0.09628  0.03100  0.30929  1.0000
  C   C6        1.0  0.08725  0.01657  0.23544  1.0000
  N   N5        1.0  0.08717  0.99065  0.24197  1.0000
  C   C7        1.0  0.09720  0.97771  0.31315  1.0000
  H   H5        1.0  0.07826  0.02510  0.18207  1.0000
  C   C8        1.0  0.91191  0.97683  0.30946  1.0000
  C   C9        1.0  0.92098  0.99114  0.23541  1.0000
  N   N6        1.0  0.92088  0.01706  0.24131  1.0000
  C   C10       1.0  0.91068  0.03007  0.31202  1.0000
  H   H6        1.0  0.93007  0.98254  0.18236  1.0000
  C   C11       1.0  0.97683  0.09603  0.30839  1.0000
  C   C12       1.0  0.99125  0.08689  0.23470  1.0000
  N   N7        1.0  0.01716  0.08684  0.24127  1.0000
  C   C13       1.0  0.03008  0.09697  0.31230  1.0000
  H   H7        1.0  0.98272  0.07783  0.18147  1.0000
  C   C14       1.0  0.03096  0.91175  0.31003  1.0000
  C   C15       1.0  0.01660  0.92074  0.23600  1.0000
  N   N8        1.0  0.99068  0.92065  0.24207  1.0000
  C   C16       1.0  0.97768  0.91049  0.31292  1.0000
  H   H8        1.0  0.02516  0.92979  0.18281  1.0000
  C   C17       1.0  0.18018  0.24928  0.34530  1.0000
  C   C18       1.0  0.19279  0.26719  0.28942  1.0000
  N   N9        1.0  0.18394  0.29164  0.28679  1.0000
  C   C19       1.0  0.16306  0.30046  0.33303  1.0000
  H   H9        1.0  0.20853  0.26238  0.25179  1.0000
  C   C20       1.0  0.82523  0.75992  0.33487  1.0000
  C   C21       1.0  0.81221  0.74145  0.28238  1.0000
  N   N10       1.0  0.82135  0.71708  0.28051  1.0000
  C   C22       1.0  0.84279  0.70882  0.32489  1.0000
  H   H10       1.0  0.79612  0.74586  0.24598  1.0000
  C   C23       1.0  0.75938  0.18136  0.33959  1.0000
  C   C24       1.0  0.74124  0.19421  0.28524  1.0000
  N   N11       1.0  0.71686  0.18514  0.28237  1.0000
  C   C25       1.0  0.70834  0.16390  0.32726  1.0000
  H   H11       1.0  0.74587  0.21017  0.24849  1.0000
  C   C26       1.0  0.24865  0.82643  0.34036  1.0000
  C   C27       1.0  0.26686  0.81369  0.28604  1.0000
  N   N12       1.0  0.29128  0.82266  0.28412  1.0000
  C   C28       1.0  0.29984  0.84376  0.32977  1.0000
  H   H12       1.0  0.26227  0.79781  0.24879  1.0000
  C   C29       1.0  0.85714  0.28247  0.31447  1.0000
  N   N13       1.0  0.84821  0.25788  0.31485  1.0000
  H   H13       1.0  0.87343  0.28674  0.27900  1.0000
  C   C30       1.0  0.15075  0.72501  0.31244  1.0000
  N   N14       1.0  0.15963  0.74965  0.31294  1.0000
  H   H14       1.0  0.13441  0.72071  0.27730  1.0000
  C   C31       1.0  0.28149  0.15148  0.31830  1.0000
  N   N15       1.0  0.25692  0.16047  0.31946  1.0000
  H   H15       1.0  0.28554  0.13499  0.28364  1.0000
  C   C32       1.0  0.72404  0.85780  0.30804  1.0000
  N   N16       1.0  0.74871  0.84900  0.30786  1.0000
  H   H16       1.0  0.71951  0.87391  0.27198  1.0000
  C   C33       1.0  0.39584  0.05383  0.33322  1.0000
  C   C34       1.0  0.40739  0.07551  0.29104  1.0000
  N   N17       1.0  0.39680  0.09934  0.29963  1.0000
  C   C35       1.0  0.37483  0.10446  0.34613  1.0000
  H   H17       1.0  0.42382  0.07381  0.25380  1.0000
  C   C36       1.0  0.61065  0.95476  0.34932  1.0000
  C   C37       1.0  0.63617  0.94862  0.32375  1.0000
  N   N18       1.0  0.64405  0.92349  0.32397  1.0000
  C   C38       1.0  0.62929  0.90272  0.34815  1.0000
  H   H18       1.0  0.64867  0.96251  0.30239  1.0000
  C   C39       1.0  0.95400  0.39734  0.33261  1.0000
  C   C40       1.0  0.93230  0.40880  0.29033  1.0000
  N   N19       1.0  0.90851  0.39809  0.29870  1.0000
  C   C41       1.0  0.90349  0.37610  0.34517  1.0000
  H   H19       1.0  0.93395  0.42523  0.25307  1.0000
  C   C42       1.0  0.05289  0.61219  0.34981  1.0000
  C   C43       1.0  0.05918  0.63765  0.32390  1.0000
  N   N20       1.0  0.08436  0.64543  0.32446  1.0000
  C   C44       1.0  0.10502  0.63061  0.34934  1.0000
  H   H20       1.0  0.04537  0.65015  0.30197  1.0000
  C   C45       1.0  0.64544  0.08139  0.29822  1.0000
  N   N21       1.0  0.63408  0.05775  0.30524  1.0000
  H   H21       1.0  0.66169  0.08305  0.25999  1.0000
  C   C46       1.0  0.40013  0.90984  0.29946  1.0000
  N   N22       1.0  0.40818  0.93469  0.30150  1.0000
  H   H22       1.0  0.41226  0.89635  0.27321  1.0000
  C   C47       1.0  0.09796  0.40133  0.30006  1.0000
  N   N23       1.0  0.07314  0.40952  0.30180  1.0000
  H   H23       1.0  0.11155  0.41339  0.27401  1.0000
  C   C48       1.0  0.92591  0.64655  0.29748  1.0000
  N   N24       1.0  0.94964  0.63536  0.30455  1.0000
  H   H24       1.0  0.92411  0.66272  0.25892  1.0000
  C   C49       1.0  0.47614  0.00347  0.34098  1.0000
  C   C50       1.0  0.49119  0.98436  0.29817  1.0000
  N   N25       1.0  0.51723  0.98595  0.30187  1.0000
  C   C51       1.0  0.53027  0.00507  0.34486  1.0000
  H   H25       1.0  0.48306  0.96968  0.26241  1.0000
  C   C52       1.0  0.00432  0.47765  0.34016  1.0000
  C   C53       1.0  0.02345  0.49272  0.29753  1.0000
  N   N26       1.0  0.02182  0.51876  0.30123  1.0000
  C   C54       1.0  0.00266  0.53178  0.34407  1.0000
  H   H26       1.0  0.03817  0.48461  0.26189  1.0000
  C   C55       1.0  0.24581  0.38228  0.26811  1.0000
  N   N27       1.0  0.22109  0.37402  0.27014  1.0000
  H   H27       1.0  0.25888  0.37249  0.22980  1.0000
  C   C56       1.0  0.76368  0.62315  0.26025  1.0000
  N   N28       1.0  0.78825  0.63188  0.26150  1.0000
  H   H28       1.0  0.75070  0.63166  0.21803  1.0000
  C   C57       1.0  0.62370  0.24382  0.26055  1.0000
  N   N29       1.0  0.63212  0.21913  0.26169  1.0000
  H   H29       1.0  0.63238  0.25671  0.21844  1.0000
  C   C58       1.0  0.38320  0.76204  0.26664  1.0000
  N   N30       1.0  0.37465  0.78668  0.26804  1.0000
  H   H30       1.0  0.37395  0.74894  0.22684  1.0000
  C   C59       1.0  0.80646  0.38747  0.36104  1.0000
  C   C60       1.0  0.79966  0.40849  0.30563  1.0000
  N   N31       1.0  0.77456  0.41646  0.30325  1.0000
  C   C61       1.0  0.75513  0.40575  0.35286  1.0000
  H   H31       1.0  0.81269  0.41646  0.26238  1.0000
  C   C62       1.0  0.20240  0.62035  0.36002  1.0000
  C   C63       1.0  0.20903  0.59910  0.30551  1.0000
  N   N32       1.0  0.23404  0.59092  0.30375  1.0000
  C   C64       1.0  0.25352  0.60150  0.35346  1.0000
  H   H32       1.0  0.19597  0.59111  0.26240  1.0000
  C   C65       1.0  0.38721  0.20131  0.36348  1.0000
  C   C66       1.0  0.40838  0.20789  0.30839  1.0000
  N   N33       1.0  0.41673  0.23288  0.30652  1.0000
  C   C67       1.0  0.40630  0.25239  0.35650  1.0000
  H   H33       1.0  0.41618  0.19481  0.26494  1.0000
  C   C68       1.0  0.62025  0.80506  0.35798  1.0000
  C   C69       1.0  0.59836  0.79837  0.30670  1.0000
  N   N34       1.0  0.59042  0.77326  0.30518  1.0000
  C   C70       1.0  0.60195  0.75375  0.35210  1.0000
  H   H34       1.0  0.58961  0.81150  0.26572  1.0000
  C   C71       1.0  0.31408  0.52941  0.31730  1.0000
  C   C72       1.0  0.29812  0.51459  0.26027  1.0000
  N   N35       1.0  0.29871  0.48859  0.26619  1.0000
  C   C73       1.0  0.31470  0.47502  0.32106  1.0000
  H   H35       1.0  0.28499  0.52297  0.21827  1.0000
  C   C74       1.0  0.69399  0.47760  0.35138  1.0000
  C   C75       1.0  0.67667  0.49251  0.29958  1.0000
  N   N36       1.0  0.67839  0.51878  0.30200  1.0000
  C   C76       1.0  0.69512  0.53199  0.35579  1.0000
  H   H36       1.0  0.66448  0.48400  0.25460  1.0000
  C   C77       1.0  0.47856  0.31328  0.35271  1.0000
  C   C78       1.0  0.49332  0.33072  0.30081  1.0000
  N   N37       1.0  0.51961  0.32923  0.30320  1.0000
  C   C79       1.0  0.53295  0.31269  0.35726  1.0000
  H   H37       1.0  0.48471  0.34282  0.25579  1.0000
  C   C80       1.0  0.52999  0.69266  0.35234  1.0000
  C   C81       1.0  0.51506  0.67528  0.30078  1.0000
  N   N38       1.0  0.48880  0.67701  0.30322  1.0000
  C   C82       1.0  0.47561  0.69383  0.35674  1.0000
  H   H38       1.0  0.52356  0.66303  0.25599  1.0000
  C   C83       1.0  0.39085  0.37151  0.30978  1.0000
  N   N39       1.0  0.37087  0.38868  0.31033  1.0000
  H   H39       1.0  0.40779  0.37684  0.28032  1.0000
  C   C84       1.0  0.61791  0.63431  0.30990  1.0000
  N   N40       1.0  0.63807  0.61733  0.31034  1.0000
  H   H40       1.0  0.60069  0.62843  0.28389  1.0000
  C   C85       1.0  0.63557  0.38976  0.31078  1.0000
  N   N41       1.0  0.61851  0.36965  0.31131  1.0000
  H   H41       1.0  0.62967  0.40703  0.28530  1.0000
  C   C86       1.0  0.37293  0.61687  0.31009  1.0000
  N   N42       1.0  0.39000  0.63694  0.31093  1.0000
  H   H42       1.0  0.37847  0.59998  0.28086  1.0000
  C   C87       1.0  0.08963  0.05706  0.31981  1.0000
  C   C88       1.0  0.06373  0.06465  0.31026  1.0000
  C   C89       1.0  0.05620  0.09051  0.32235  1.0000
  C   C90       1.0  0.07493  0.10897  0.34498  1.0000
  C   C91       1.0  0.10107  0.10179  0.35425  1.0000
  C   C92       1.0  0.10812  0.07564  0.34344  1.0000
  H   H43       1.0  0.06958  0.12793  0.34941  1.0000
  H   H44       1.0  0.12700  0.07013  0.34977  1.0000
  H   H45       1.0  0.04999  0.05097  0.29663  1.0000
  C   C93       1.0  0.91844  0.95078  0.32019  1.0000
  C   C94       1.0  0.94432  0.94305  0.31170  1.0000
  C   C95       1.0  0.95158  0.91708  0.32273  1.0000
  C   C96       1.0  0.93259  0.89865  0.34328  1.0000
  C   C97       1.0  0.90644  0.90602  0.35109  1.0000
  C   C98       1.0  0.89969  0.93228  0.34164  1.0000
  H   H46       1.0  0.93774  0.87963  0.34649  1.0000
  H   H47       1.0  0.88082  0.93794  0.34688  1.0000
  H   H48       1.0  0.95818  0.95668  0.29920  1.0000
  C   C99       1.0  0.95076  0.08947  0.31890  1.0000
  C   C100      1.0  0.94309  0.06358  0.30983  1.0000
  C   C101      1.0  0.91719  0.05619  0.32168  1.0000
  C   C102      1.0  0.89877  0.07504  0.34361  1.0000
  C   C103      1.0  0.90606  0.10118  0.35212  1.0000
  C   C104      1.0  0.93225  0.10808  0.34175  1.0000
  H   H49       1.0  0.87978  0.06979  0.34755  1.0000
  H   H50       1.0  0.93785  0.12695  0.34765  1.0000
  H   H51       1.0  0.95674  0.04978  0.29680  1.0000
  C   C105      1.0  0.05703  0.91834  0.32062  1.0000
  C   C106      1.0  0.06471  0.94422  0.31151  1.0000
  C   C107      1.0  0.09063  0.95160  0.32307  1.0000
  C   C108      1.0  0.10907  0.93272  0.34454  1.0000
  C   C109      1.0  0.10179  0.90657  0.35295  1.0000
  C   C110      1.0  0.07557  0.89970  0.34293  1.0000
  H   H52       1.0  0.12807  0.93796  0.34829  1.0000
  H   H53       1.0  0.06998  0.88082  0.34870  1.0000
  H   H54       1.0  0.05107  0.95804  0.29857  1.0000
  C   C111      1.0  0.17763  0.17741  0.36379  1.0000
  C   C112      1.0  0.20405  0.17120  0.36391  1.0000
  C   C113      1.0  0.22315  0.19042  0.35941  1.0000
  C   C114      1.0  0.21510  0.21646  0.35408  1.0000
  C   C115      1.0  0.18865  0.22335  0.35393  1.0000
  C   C116      1.0  0.17019  0.20351  0.36037  1.0000
  H   H55       1.0  0.22874  0.23063  0.34983  1.0000
  H   H56       1.0  0.15097  0.20803  0.35749  1.0000
  H   H57       1.0  0.20949  0.15230  0.37019  1.0000
  C   C117      1.0  0.82844  0.83182  0.35174  1.0000
  C   C118      1.0  0.80208  0.83834  0.35144  1.0000
  C   C119      1.0  0.78282  0.81927  0.34734  1.0000
  C   C120      1.0  0.79058  0.79313  0.34209  1.0000
  C   C121      1.0  0.81693  0.78596  0.34184  1.0000
  C   C122      1.0  0.83557  0.80564  0.34802  1.0000
  H   H58       1.0  0.77678  0.77910  0.33857  1.0000
  H   H59       1.0  0.85474  0.80093  0.34555  1.0000
  H   H60       1.0  0.79681  0.85728  0.35795  1.0000
  C   C123      1.0  0.83120  0.17845  0.35846  1.0000
  C   C124      1.0  0.83756  0.20483  0.35892  1.0000
  C   C125      1.0  0.81841  0.22400  0.35452  1.0000
  C   C126      1.0  0.79233  0.21613  0.34868  1.0000
  C   C127      1.0  0.78533  0.18973  0.34794  1.0000
  C   C128      1.0  0.80507  0.17116  0.35431  1.0000
  H   H61       1.0  0.77824  0.22985  0.34471  1.0000
  H   H62       1.0  0.80047  0.15197  0.35120  1.0000
  H   H63       1.0  0.85648  0.21018  0.36561  1.0000
  C   C129      1.0  0.17672  0.82923  0.35740  1.0000
  C   C130      1.0  0.17037  0.80283  0.35685  1.0000
  C   C131      1.0  0.18952  0.78365  0.35251  1.0000
  C   C132      1.0  0.21561  0.79159  0.34759  1.0000
  C   C133      1.0  0.22265  0.81800  0.34785  1.0000
  C   C134      1.0  0.20287  0.83653  0.35420  1.0000
  H   H64       1.0  0.22973  0.77789  0.34369  1.0000
  H   H65       1.0  0.20749  0.85573  0.35197  1.0000
  H   H66       1.0  0.15145  0.79746  0.36301  1.0000
  C   C135      1.0  0.44864  0.00380  0.33963  1.0000
  C   C136      1.0  0.43414  0.98086  0.33826  1.0000
  C   C137      1.0  0.40683  0.98038  0.33558  1.0000
  C   C138      1.0  0.39406  0.00479  0.33574  1.0000
  C   C139      1.0  0.40779  0.02866  0.33554  1.0000
  C   C140      1.0  0.43503  0.02730  0.33975  1.0000
  H   H67       1.0  0.37439  0.00525  0.33231  1.0000
  H   H68       1.0  0.44549  0.04398  0.34296  1.0000
  H   H69       1.0  0.44403  0.96385  0.34266  1.0000
  C   C141      1.0  0.55776  0.00486  0.34569  1.0000
  C   C142      1.0  0.57209  0.02790  0.34580  1.0000
  C   C143      1.0  0.59934  0.02839  0.34943  1.0000
  C   C144      1.0  0.61232  0.00413  0.34803  1.0000
  C   C145      1.0  0.59883  0.98010  0.34754  1.0000
  C   C146      1.0  0.57151  0.98144  0.34598  1.0000
  H   H70       1.0  0.63199  0.00405  0.35101  1.0000
  H   H71       1.0  0.56098  0.96477  0.34531  1.0000
  H   H72       1.0  0.56223  0.04487  0.33986  1.0000
  C   C147      1.0  0.00401  0.45015  0.33879  1.0000
  C   C148      1.0  0.02695  0.43565  0.33754  1.0000
  C   C149      1.0  0.02740  0.40833  0.33519  1.0000
  C   C150      1.0  0.00300  0.39557  0.33537  1.0000
  C   C151      1.0  0.97914  0.40931  0.33486  1.0000
  C   C152      1.0  0.98050  0.43655  0.33884  1.0000
  H   H73       1.0  0.00252  0.37591  0.33202  1.0000
  H   H74       1.0  0.96382  0.44701  0.34187  1.0000
  H   H75       1.0  0.04396  0.44552  0.34199  1.0000
  C   C153      1.0  0.00282  0.55927  0.34500  1.0000
  C   C154      1.0  0.97977  0.57357  0.34517  1.0000
  C   C155      1.0  0.97924  0.60082  0.34905  1.0000
  C   C156      1.0  0.00349  0.61384  0.34790  1.0000
  C   C157      1.0  0.02753  0.60037  0.34749  1.0000
  C   C158      1.0  0.02622  0.57305  0.34557  1.0000
  H   H76       1.0  0.00354  0.63351  0.35103  1.0000
  H   H77       1.0  0.04291  0.56254  0.34487  1.0000
  H   H78       1.0  0.96281  0.56370  0.33898  1.0000
  C   C159      1.0  0.27918  0.41196  0.32827  1.0000
  C   C160      1.0  0.30010  0.39447  0.33357  1.0000
  C   C161      1.0  0.32626  0.40250  0.33903  1.0000
  C   C162      1.0  0.33098  0.42950  0.33561  1.0000
  C   C163      1.0  0.31068  0.44779  0.32875  1.0000
  C   C164      1.0  0.28501  0.43846  0.32733  1.0000
  H   H79       1.0  0.34958  0.43602  0.33691  1.0000
  H   H80       1.0  0.27003  0.45128  0.32310  1.0000
  H   H81       1.0  0.29597  0.37523  0.33300  1.0000
  C   C165      1.0  0.73027  0.59497  0.32895  1.0000
  C   C166      1.0  0.70917  0.61232  0.32786  1.0000
  C   C167      1.0  0.68310  0.60425  0.33684  1.0000
  C   C168      1.0  0.67860  0.57726  0.34285  1.0000
  C   C169      1.0  0.69912  0.55917  0.34644  1.0000
  C   C170      1.0  0.72469  0.56859  0.33972  1.0000
  H   H82       1.0  0.66010  0.57068  0.34946  1.0000
  H   H83       1.0  0.73974  0.55580  0.33860  1.0000
  H   H84       1.0  0.71310  0.63150  0.32061  1.0000
  C   C171      1.0  0.59580  0.27749  0.32916  1.0000
  C   C172      1.0  0.61324  0.29851  0.32796  1.0000
  C   C173      1.0  0.60528  0.32462  0.33729  1.0000
  C   C174      1.0  0.57830  0.32920  0.34377  1.0000
  C   C175      1.0  0.56013  0.30874  0.34742  1.0000
  C   C176      1.0  0.56946  0.28315  0.34018  1.0000
  H   H85       1.0  0.57178  0.34771  0.35067  1.0000
  H   H86       1.0  0.55661  0.26816  0.33903  1.0000
  H   H87       1.0  0.63239  0.29449  0.32043  1.0000
  C   C177      1.0  0.41247  0.72881  0.33126  1.0000
  C   C178      1.0  0.39517  0.70767  0.33166  1.0000
  C   C179      1.0  0.40338  0.68164  0.34035  1.0000
  C   C180      1.0  0.43039  0.67719  0.34513  1.0000
  C   C181      1.0  0.44842  0.69776  0.34772  1.0000
  C   C182      1.0  0.43891  0.72329  0.34072  1.0000
  H   H88       1.0  0.43702  0.65871  0.35179  1.0000
  H   H89       1.0  0.45168  0.73835  0.33887  1.0000
  H   H90       1.0  0.37593  0.71148  0.32575  1.0000
  C   C183      1.0  0.72896  0.41429  0.34573  1.0000
  C   C184      1.0  0.70788  0.39693  0.34416  1.0000
  C   C185      1.0  0.68170  0.40509  0.34061  1.0000
  C   C186      1.0  0.67727  0.43218  0.33982  1.0000
  C   C187      1.0  0.69775  0.45033  0.34373  1.0000
  C   C188      1.0  0.72335  0.44083  0.34441  1.0000
  H   H91       1.0  0.65878  0.43893  0.34154  1.0000
  H   H92       1.0  0.73844  0.45356  0.34691  1.0000
  H   H93       1.0  0.71193  0.37763  0.34360  1.0000
  C   C189      1.0  0.27963  0.59273  0.34548  1.0000
  C   C190      1.0  0.30095  0.60977  0.34875  1.0000
  C   C191      1.0  0.32701  0.60142  0.34210  1.0000
  C   C192      1.0  0.33110  0.57442  0.33282  1.0000
  C   C193      1.0  0.31038  0.55663  0.32700  1.0000
  C   C194      1.0  0.28492  0.56632  0.33355  1.0000
  H   H94       1.0  0.34949  0.56745  0.32919  1.0000
  H   H95       1.0  0.26974  0.55370  0.33358  1.0000
  H   H96       1.0  0.29719  0.62908  0.35339  1.0000
  C   C195      1.0  0.41508  0.27849  0.34938  1.0000
  C   C196      1.0  0.39783  0.29967  0.34811  1.0000
  C   C197      1.0  0.40617  0.32576  0.34390  1.0000
  C   C198      1.0  0.43325  0.33008  0.34201  1.0000
  C   C199      1.0  0.45129  0.30952  0.34583  1.0000
  C   C200      1.0  0.44166  0.28395  0.34728  1.0000
  H   H97       1.0  0.44006  0.34856  0.34349  1.0000
  H   H98       1.0  0.45432  0.26881  0.34968  1.0000
  H   H99       1.0  0.37850  0.29579  0.34798  1.0000
  C   C201      1.0  0.59332  0.72758  0.34579  1.0000
  C   C202      1.0  0.61064  0.70649  0.34358  1.0000
  C   C203      1.0  0.60245  0.68033  0.34049  1.0000
  C   C204      1.0  0.57537  0.67589  0.34025  1.0000
  C   C205      1.0  0.55725  0.69639  0.34454  1.0000
  C   C206      1.0  0.56678  0.72198  0.34518  1.0000
  H   H100      1.0  0.56863  0.65739  0.34218  1.0000
  H   H101      1.0  0.55406  0.73708  0.34786  1.0000
  H   H102      1.0  0.62994  0.71049  0.34201  1.0000
  C   C207      1.0  0.15831  0.32750  0.33383  1.0000
  C   C208      1.0  0.17984  0.34398  0.33067  1.0000
  C   C209      1.0  0.17789  0.37103  0.32647  1.0000
  C   C210      1.0  0.15272  0.38170  0.32998  1.0000
  C   C211      1.0  0.13000  0.36608  0.33386  1.0000
  C   C212      1.0  0.13358  0.33891  0.33669  1.0000
  H   H103      1.0  0.15115  0.40131  0.32848  1.0000
  H   H104      1.0  0.11788  0.32699  0.33703  1.0000
  H   H105      1.0  0.19785  0.33588  0.33339  1.0000
  C   C213      1.0  0.84842  0.68193  0.32567  1.0000
  C   C214      1.0  0.82761  0.66455  0.32209  1.0000
  C   C215      1.0  0.83069  0.63754  0.32222  1.0000
  C   C216      1.0  0.85621  0.62790  0.33024  1.0000
  C   C217      1.0  0.87812  0.64457  0.33271  1.0000
  C   C218      1.0  0.87356  0.67155  0.33099  1.0000
  H   H106      1.0  0.85890  0.60837  0.33014  1.0000
  H   H107      1.0  0.88880  0.68400  0.33423  1.0000
  H   H108      1.0  0.80928  0.67192  0.32219  1.0000
  C   C219      1.0  0.68143  0.15850  0.32729  1.0000
  C   C220      1.0  0.66426  0.17948  0.32320  1.0000
  C   C221      1.0  0.63724  0.17665  0.32255  1.0000
  C   C222      1.0  0.62733  0.15122  0.33035  1.0000
  C   C223      1.0  0.64380  0.12917  0.33337  1.0000
  C   C224      1.0  0.67082  0.13347  0.33243  1.0000
  H   H109      1.0  0.60778  0.14871  0.32973  1.0000
  H   H110      1.0  0.68313  0.11812  0.33613  1.0000
  H   H111      1.0  0.67180  0.19774  0.32355  1.0000
  C   C225      1.0  0.32686  0.84878  0.33116  1.0000
  C   C226      1.0  0.34359  0.82743  0.32814  1.0000
  C   C227      1.0  0.37062  0.82971  0.32534  1.0000
  C   C228      1.0  0.38102  0.85498  0.32960  1.0000
  C   C229      1.0  0.36514  0.87752  0.33291  1.0000
  C   C230      1.0  0.33801  0.87364  0.33468  1.0000
  H   H112      1.0  0.40061  0.85676  0.32913  1.0000
  H   H113      1.0  0.32594  0.88924  0.33484  1.0000
  H   H114      1.0  0.33571  0.80932  0.33012  1.0000
  C   C231      1.0  0.84808  0.32860  0.35482  1.0000
  C   C232      1.0  0.82712  0.34581  0.35500  1.0000
  C   C233      1.0  0.82992  0.37284  0.35495  1.0000
  C   C234      1.0  0.85543  0.38270  0.34909  1.0000
  C   C235      1.0  0.87752  0.36622  0.34881  1.0000
  C   C236      1.0  0.87314  0.33920  0.35132  1.0000
  H   H115      1.0  0.85795  0.40224  0.34911  1.0000
  H   H116      1.0  0.88847  0.32684  0.35017  1.0000
  H   H117      1.0  0.80888  0.33824  0.35312  1.0000
  C   C237      1.0  0.16015  0.67877  0.35177  1.0000
  C   C238      1.0  0.18137  0.66186  0.35223  1.0000
  C   C239      1.0  0.17890  0.63484  0.35381  1.0000
  C   C240      1.0  0.15357  0.62462  0.34993  1.0000
  C   C241      1.0  0.13111  0.64065  0.34860  1.0000
  C   C242      1.0  0.13521  0.66777  0.34889  1.0000
  H   H118      1.0  0.15169  0.60505  0.34942  1.0000
  H   H119      1.0  0.11970  0.67992  0.35080  1.0000
  H   H120      1.0  0.19955  0.66958  0.34983  1.0000
  C   C243      1.0  0.32783  0.16036  0.35691  1.0000
  C   C244      1.0  0.34528  0.18113  0.35742  1.0000
  C   C245      1.0  0.37228  0.17804  0.35708  1.0000
  C   C246      1.0  0.38186  0.15244  0.35064  1.0000
  C   C247      1.0  0.36517  0.13052  0.35023  1.0000
  C   C248      1.0  0.33820  0.13519  0.35305  1.0000
  H   H121      1.0  0.40139  0.14973  0.35061  1.0000
  H   H122      1.0  0.32570  0.11997  0.35184  1.0000
  H   H123      1.0  0.33792  0.19946  0.35598  1.0000
  C   C249      1.0  0.67800  0.84817  0.34903  1.0000
  C   C250      1.0  0.66138  0.82675  0.34894  1.0000
  C   C251      1.0  0.63434  0.82883  0.35155  1.0000
  C   C252      1.0  0.62379  0.85406  0.34860  1.0000
  C   C253      1.0  0.63955  0.87672  0.34713  1.0000
  C   C254      1.0  0.66672  0.87297  0.34695  1.0000
  H   H124      1.0  0.60420  0.85571  0.34880  1.0000
  H   H125      1.0  0.67871  0.88860  0.34897  1.0000
  H   H126      1.0  0.66939  0.80871  0.34557  1.0000
  C   C255      1.0  0.12039  0.12063  0.36381  1.0000
  C   C256      1.0  0.11736  0.14370  0.41287  1.0000
  N   N43       1.0  0.13657  0.16130  0.41101  1.0000
  C   C257      1.0  0.15886  0.15781  0.36452  1.0000
  H   H127      1.0  0.10115  0.14750  0.44943  1.0000
  C   C258      1.0  0.88680  0.88740  0.35779  1.0000
  C   C259      1.0  0.88922  0.86400  0.40526  1.0000
  N   N44       1.0  0.86962  0.84686  0.40149  1.0000
  C   C260      1.0  0.84754  0.85107  0.35455  1.0000
  H   H128      1.0  0.90523  0.85966  0.44219  1.0000
  C   C261      1.0  0.88734  0.12065  0.36061  1.0000
  C   C262      1.0  0.86414  0.11790  0.40913  1.0000
  N   N45       1.0  0.84678  0.13731  0.40662  1.0000
  C   C263      1.0  0.85062  0.15953  0.36005  1.0000
  H   H129      1.0  0.86010  0.10177  0.44578  1.0000
  C   C264      1.0  0.12053  0.88707  0.36093  1.0000
  C   C265      1.0  0.14379  0.88977  0.40906  1.0000
  N   N46       1.0  0.16115  0.87035  0.40609  1.0000
  C   C266      1.0  0.15728  0.84817  0.35935  1.0000
  H   H130      1.0  0.14789  0.90587  0.44583  1.0000
  C   C267      1.0  0.10831  0.99209  0.38367  1.0000
  N   N47       1.0  0.10648  0.01814  0.38053  1.0000
  H   H131      1.0  0.11452  0.98349  0.44154  1.0000
  C   C268      1.0  0.89956  0.01578  0.38272  1.0000
  N   N48       1.0  0.90152  0.98974  0.38021  1.0000
  H   H132      1.0  0.89323  0.02445  0.44029  1.0000
  C   C269      1.0  0.01569  0.10819  0.38260  1.0000
  N   N49       1.0  0.98965  0.10634  0.37947  1.0000
  H   H133      1.0  0.02428  0.11449  0.44037  1.0000
  C   C270      1.0  0.99202  0.89945  0.38364  1.0000
  N   N50       1.0  0.01807  0.90141  0.38096  1.0000
  H   H134      1.0  0.98337  0.89317  0.44134  1.0000
  C   C271      1.0  0.14961  0.28224  0.38544  1.0000
  N   N51       1.0  0.15882  0.25774  0.38997  1.0000
  H   H135      1.0  0.13423  0.28738  0.42427  1.0000
  C   C272      1.0  0.85639  0.72752  0.37470  1.0000
  N   N52       1.0  0.84701  0.75192  0.37804  1.0000
  H   H136      1.0  0.87222  0.72289  0.41214  1.0000
  C   C273      1.0  0.72675  0.15040  0.37870  1.0000
  N   N53       1.0  0.75116  0.15974  0.38319  1.0000
  H   H137      1.0  0.72187  0.13475  0.41662  1.0000
  C   C274      1.0  0.28136  0.85725  0.38090  1.0000
  N   N54       1.0  0.25689  0.84797  0.38457  1.0000
  H   H138      1.0  0.28627  0.87281  0.41926  1.0000
  C   C275      1.0  0.82600  0.25027  0.35613  1.0000
  C   C276      1.0  0.81194  0.26930  0.40232  1.0000
  N   N55       1.0  0.82075  0.29379  0.40088  1.0000
  C   C277      1.0  0.84265  0.30169  0.35844  1.0000
  H   H139      1.0  0.79546  0.26518  0.43701  1.0000
  C   C278      1.0  0.18190  0.75733  0.35380  1.0000
  C   C279      1.0  0.19602  0.73828  0.39965  1.0000
  N   N56       1.0  0.18727  0.71377  0.39798  1.0000
  C   C280      1.0  0.16538  0.70576  0.35571  1.0000
  H   H140      1.0  0.21252  0.74238  0.43422  1.0000
  C   C281      1.0  0.24948  0.18287  0.35992  1.0000
  C   C282      1.0  0.26876  0.19710  0.40419  1.0000
  N   N57       1.0  0.29322  0.18819  0.40213  1.0000
  C   C283      1.0  0.30094  0.16608  0.36059  1.0000
  H   H141      1.0  0.26483  0.21372  0.43826  1.0000
  C   C284      1.0  0.75656  0.82695  0.34972  1.0000
  C   C285      1.0  0.73777  0.81302  0.39756  1.0000
  N   N58       1.0  0.71323  0.82164  0.39635  1.0000
  C   C286      1.0  0.70502  0.84327  0.35295  1.0000
  H   H142      1.0  0.74207  0.79670  0.43287  1.0000
  C   C287      1.0  0.36273  0.08270  0.38579  1.0000
  N   N59       1.0  0.37366  0.05884  0.37894  1.0000
  H   H143      1.0  0.34638  0.08458  0.42335  1.0000
  C   C288      1.0  0.60401  0.90901  0.37566  1.0000
  N   N60       1.0  0.59623  0.93397  0.37462  1.0000
  H   H144      1.0  0.59130  0.89543  0.39772  1.0000
  C   C289      1.0  0.92528  0.36411  0.38508  1.0000
  N   N61       1.0  0.94908  0.37513  0.37833  1.0000
  H   H145      1.0  0.92346  0.34775  0.42262  1.0000
  C   C290      1.0  0.09856  0.60541  0.37734  1.0000
  N   N62       1.0  0.07357  0.59774  0.37589  1.0000
  H   H146      1.0  0.11202  0.59269  0.40006  1.0000
  C   C291      1.0  0.61197  0.05318  0.35195  1.0000
  C   C292      1.0  0.60103  0.07500  0.39517  1.0000
  N   N63       1.0  0.61196  0.09863  0.38606  1.0000
  C   C293      1.0  0.63381  0.10331  0.33842  1.0000
  H   H147      1.0  0.58468  0.07358  0.43300  1.0000
  C   C294      1.0  0.39444  0.95534  0.33218  1.0000
  C   C295      1.0  0.36932  0.94926  0.36218  1.0000
  N   N64       1.0  0.36120  0.92418  0.36130  1.0000
  C   C296      1.0  0.37537  0.90352  0.33215  1.0000
  H   H148      1.0  0.35743  0.96311  0.38772  1.0000
  C   C297      1.0  0.05240  0.39588  0.33222  1.0000
  C   C298      1.0  0.05831  0.37073  0.36238  1.0000
  N   N65       1.0  0.08334  0.36249  0.36176  1.0000
  C   C299      1.0  0.10410  0.37653  0.33279  1.0000
  H   H149      1.0  0.04438  0.35892  0.38779  1.0000
  C   C300      1.0  0.95439  0.61336  0.35165  1.0000
  C   C301      1.0  0.93267  0.60234  0.39525  1.0000
  N   N66       1.0  0.90895  0.61308  0.38602  1.0000
  C   C302      1.0  0.90408  0.63482  0.33797  1.0000
  H   H150      1.0  0.93423  0.58605  0.43333  1.0000
  C   C303      1.0  0.51523  0.02417  0.38772  1.0000
  N   N67       1.0  0.48920  0.02258  0.38397  1.0000
  H   H151      1.0  0.52338  0.03889  0.42331  1.0000
  C   C304      1.0  0.98355  0.51672  0.38679  1.0000
  N   N68       1.0  0.98518  0.49068  0.38303  1.0000
  H   H152      1.0  0.96881  0.52484  0.42230  1.0000
  C   C305      1.0  0.20166  0.38504  0.31850  1.0000
  C   C306      1.0  0.20843  0.40726  0.36797  1.0000
  N   N69       1.0  0.23353  0.41521  0.36849  1.0000
  C   C307      1.0  0.25297  0.40346  0.32188  1.0000
  H   H153      1.0  0.19537  0.41623  0.40865  1.0000
  C   C308      1.0  0.80752  0.62256  0.31482  1.0000
  C   C309      1.0  0.80068  0.60182  0.37144  1.0000
  N   N70       1.0  0.77570  0.59353  0.37278  1.0000
  C   C310      1.0  0.75643  0.60350  0.32059  1.0000
  H   H154      1.0  0.81353  0.59441  0.41656  1.0000
  C   C311      1.0  0.62251  0.19997  0.31486  1.0000
  C   C312      1.0  0.60185  0.20702  0.37146  1.0000
  N   N71       1.0  0.59388  0.23210  0.37285  1.0000
  C   C313      1.0  0.60412  0.25126  0.32082  1.0000
  H   H155      1.0  0.59427  0.19426  0.41652  1.0000
  C   C314      1.0  0.38498  0.80613  0.31810  1.0000
  C   C315      1.0  0.40664  0.79948  0.37064  1.0000
  N   N72       1.0  0.41479  0.77446  0.37183  1.0000
  C   C316      1.0  0.40384  0.75497  0.32312  1.0000
  H   H156      1.0  0.41497  0.81254  0.41297  1.0000
  C   C317      1.0  0.76228  0.38582  0.41211  1.0000
  N   N73       1.0  0.78700  0.37755  0.41218  1.0000
  H   H157      1.0  0.74920  0.37689  0.45289  1.0000
  C   C318      1.0  0.24646  0.62171  0.41178  1.0000
  N   N74       1.0  0.22184  0.63029  0.41109  1.0000
  H   H158      1.0  0.25955  0.63062  0.45256  1.0000
  C   C319      1.0  0.38623  0.24542  0.41548  1.0000
  N   N75       1.0  0.37757  0.22083  0.41496  1.0000
  H   H159      1.0  0.37746  0.25856  0.45643  1.0000
  C   C320      1.0  0.62279  0.76083  0.40755  1.0000
  N   N76       1.0  0.63100  0.78556  0.40672  1.0000
  H   H160      1.0  0.63234  0.74772  0.44647  1.0000
  C   C321      1.0  0.33209  0.48973  0.37330  1.0000
  N   N77       1.0  0.33062  0.51601  0.37116  1.0000
  H   H161      1.0  0.34413  0.48110  0.41848  1.0000
  C   C322      1.0  0.71100  0.51696  0.41239  1.0000
  N   N78       1.0  0.71017  0.49097  0.40619  1.0000
  H   H162      1.0  0.72428  0.52516  0.45428  1.0000
  C   C323      1.0  0.51805  0.29673  0.41403  1.0000
  N   N79       1.0  0.49205  0.29729  0.40779  1.0000
  H   H163      1.0  0.52636  0.28355  0.45604  1.0000
  C   C324      1.0  0.49064  0.70978  0.41306  1.0000
  N   N80       1.0  0.51662  0.70892  0.40688  1.0000
  H   H164      1.0  0.48245  0.72310  0.45479  1.0000
  C   C325      1.0  0.34692  0.38381  0.34457  1.0000
  C   C326      1.0  0.34383  0.35899  0.38267  1.0000
  N   N81       1.0  0.36357  0.34184  0.38039  1.0000
  C   C327      1.0  0.38733  0.34635  0.34473  1.0000
  H   H165      1.0  0.32705  0.35340  0.41258  1.0000
  C   C328      1.0  0.66234  0.62287  0.34031  1.0000
  C   C329      1.0  0.66558  0.64815  0.37423  1.0000
  N   N82       1.0  0.64561  0.66502  0.37243  1.0000
  C   C330      1.0  0.62150  0.65990  0.34084  1.0000
  H   H166      1.0  0.68259  0.65425  0.40123  1.0000
  C   C331      1.0  0.62401  0.34530  0.34062  1.0000
  C   C332      1.0  0.64938  0.34193  0.37366  1.0000
  N   N83       1.0  0.66632  0.36186  0.37184  1.0000
  C   C333      1.0  0.66122  0.38606  0.34097  1.0000
  H   H167      1.0  0.65549  0.32486  0.40013  1.0000
  C   C334      1.0  0.38484  0.66088  0.34455  1.0000
  C   C335      1.0  0.35994  0.66390  0.38192  1.0000
  N   N84       1.0  0.34295  0.64404  0.37949  1.0000
  C   C336      1.0  0.34765  0.62024  0.34439  1.0000
  H   H168      1.0  0.35420  0.68072  0.41128  1.0000
