data_image0
_chemical_formula_structural       C3OH2C3OH2C3HOHC3HOHC3HOHC3HOHC3OH2C3OH2C3OH2C3OH2C3HOHC3HOHC3HOHC3HOHC3OH2C3OH2C3OH2C3OH2C6H3C6H3C6H3C6H3C6H3C6H3C6H3C6H3C6H3C6H3C6H3C6H3C3HOHC3HOHC3OH2C3OH2C3OH2C3OH2C3HOHC3HOHC3HOHC3HOHC3OH2C3OH2C3OH2C3OH2C3HOHC3HOHC3HOHC3HOH
_chemical_formula_sum              "C180 O36 H108"
_cell_length_a       34.4861
_cell_length_b       34.328
_cell_length_c       14.8969
_cell_angle_alpha    90
_cell_angle_beta     90
_cell_angle_gamma    90.2678

_space_group_name_H-M_alt    "P 1"
_space_group_IT_number       1

loop_
  _space_group_symop_operation_xyz
  'x, y, z'

loop_
  _atom_site_type_symbol
  _atom_site_label
  _atom_site_symmetry_multiplicity
  _atom_site_fract_x
  _atom_site_fract_y
  _atom_site_fract_z
  _atom_site_occupancy
  C   C1        1.0  0.00074  0.53031  0.26668  1.0000
  C   C2        1.0  0.03033  0.50199  0.26682  1.0000
  C   C3        1.0  0.03078  0.47224  0.33294  1.0000
  O   O1        1.0  0.05646  0.50197  0.19817  1.0000
  H   H1        1.0  0.00057  0.55066  0.21644  1.0000
  H   H2        1.0  0.07364  0.52456  0.20753  1.0000
  C   C4        1.0  0.47077  0.00164  0.26833  1.0000
  C   C5        1.0  0.49953  0.03108  0.26694  1.0000
  C   C6        1.0  0.53076  0.03033  0.32900  1.0000
  O   O2        1.0  0.49837  0.05826  0.20026  1.0000
  H   H3        1.0  0.44939  0.00231  0.22068  1.0000
  H   H4        1.0  0.47603  0.07514  0.21273  1.0000
  C   C7        1.0  0.04311  0.31721  0.27678  1.0000
  C   C8        1.0  0.03433  0.27703  0.27415  1.0000
  C   C9        1.0  0.05059  0.25125  0.33822  1.0000
  H   H5        1.0  0.03150  0.33491  0.22854  1.0000
  O   O3        1.0  0.01033  0.26410  0.20785  1.0000
  H   H6        1.0  0.02714  0.25332  0.16077  1.0000
  C   C10       1.0  0.91791  0.69563  0.26512  1.0000
  C   C11       1.0  0.92655  0.73582  0.26434  1.0000
  C   C12       1.0  0.95213  0.75203  0.32906  1.0000
  H   H7        1.0  0.89918  0.68492  0.21774  1.0000
  O   O4        1.0  0.90922  0.75816  0.20050  1.0000
  H   H8        1.0  0.92877  0.76254  0.15348  1.0000
  C   C13       1.0  0.68566  0.04300  0.27219  1.0000
  C   C14       1.0  0.72550  0.03352  0.27164  1.0000
  C   C15       1.0  0.75112  0.05039  0.33537  1.0000
  H   H9        1.0  0.66826  0.03172  0.22288  1.0000
  O   O5        1.0  0.73936  0.01074  0.20406  1.0000
  H   H10       1.0  0.73008  0.98409  0.21590  1.0000
  C   C16       1.0  0.31689  0.95913  0.27155  1.0000
  C   C17       1.0  0.27703  0.96832  0.26994  1.0000
  C   C18       1.0  0.25135  0.95226  0.33469  1.0000
  H   H11       1.0  0.33452  0.97070  0.22300  1.0000
  O   O6        1.0  0.26428  0.99253  0.20394  1.0000
  H   H12       1.0  0.25301  0.97573  0.15717  1.0000
  C   C19       1.0  0.42805  0.76561  0.26610  1.0000
  C   C20       1.0  0.41786  0.80537  0.26371  1.0000
  C   C21       1.0  0.43347  0.83176  0.32760  1.0000
  O   O7        1.0  0.39501  0.81828  0.19532  1.0000
  H   H13       1.0  0.41703  0.74750  0.21773  1.0000
  H   H14       1.0  0.36885  0.80766  0.20584  1.0000
  C   C22       1.0  0.53404  0.22634  0.27410  1.0000
  C   C23       1.0  0.54254  0.18613  0.27187  1.0000
  C   C24       1.0  0.56837  0.16975  0.33549  1.0000
  O   O8        1.0  0.52830  0.16432  0.20278  1.0000
  H   H15       1.0  0.51663  0.23762  0.22500  1.0000
  H   H16       1.0  0.50035  0.16104  0.21377  1.0000
  C   C25       1.0  0.76618  0.57645  0.27296  1.0000
  C   C26       1.0  0.80609  0.58538  0.26836  1.0000
  C   C27       1.0  0.83254  0.56884  0.33053  1.0000
  O   O9        1.0  0.81788  0.61034  0.20261  1.0000
  H   H17       1.0  0.74794  0.58879  0.22690  1.0000
  H   H18       1.0  0.82930  0.59415  0.15509  1.0000
  C   C28       1.0  0.22655  0.46838  0.27311  1.0000
  C   C29       1.0  0.18626  0.46069  0.27284  1.0000
  C   C30       1.0  0.16976  0.43506  0.33718  1.0000
  O   O10       1.0  0.16437  0.47544  0.20480  1.0000
  H   H19       1.0  0.23784  0.48572  0.22360  1.0000
  H   H20       1.0  0.16184  0.50353  0.21624  1.0000
  C   C31       1.0  0.11236  0.10111  0.26444  1.0000
  C   C32       1.0  0.13597  0.06764  0.26340  1.0000
  C   C33       1.0  0.14281  0.04675  0.34382  1.0000
  H   H21       1.0  0.10520  0.11399  0.20473  1.0000
  O   O11       1.0  0.14749  0.05341  0.18244  1.0000
  H   H22       1.0  0.17474  0.06133  0.17529  1.0000
  C   C34       1.0  0.88412  0.89782  0.27862  1.0000
  C   C35       1.0  0.86125  0.93186  0.27684  1.0000
  C   C36       1.0  0.86051  0.95710  0.35211  1.0000
  H   H23       1.0  0.88646  0.88156  0.22128  1.0000
  O   O12       1.0  0.84244  0.94121  0.19947  1.0000
  H   H24       1.0  0.86083  0.95659  0.16332  1.0000
  C   C37       1.0  0.90080  0.11381  0.26645  1.0000
  C   C38       1.0  0.93502  0.13652  0.26528  1.0000
  C   C39       1.0  0.95694  0.14148  0.34494  1.0000
  H   H25       1.0  0.88722  0.10770  0.20692  1.0000
  O   O13       1.0  0.94880  0.14897  0.18456  1.0000
  H   H26       1.0  0.94107  0.17640  0.17922  1.0000
  C   C40       1.0  0.10357  0.88695  0.27324  1.0000
  C   C41       1.0  0.06964  0.86376  0.27232  1.0000
  C   C42       1.0  0.04577  0.86167  0.34960  1.0000
  H   H27       1.0  0.11852  0.89090  0.21453  1.0000
  O   O14       1.0  0.05778  0.84825  0.19282  1.0000
  H   H28       1.0  0.06913  0.82207  0.18998  1.0000
  C   C43       1.0  0.37028  0.56452  0.25715  1.0000
  C   C44       1.0  0.39301  0.59880  0.25762  1.0000
  C   C45       1.0  0.40759  0.61367  0.33974  1.0000
  O   O15       1.0  0.40442  0.61396  0.17737  1.0000
  H   H29       1.0  0.36266  0.55243  0.19679  1.0000
  H   H30       1.0  0.38732  0.63625  0.16595  1.0000
  C   C46       1.0  0.63621  0.43570  0.27060  1.0000
  C   C47       1.0  0.61290  0.40183  0.26801  1.0000
  C   C48       1.0  0.59446  0.38834  0.34717  1.0000
  O   O16       1.0  0.60477  0.38573  0.18663  1.0000
  H   H31       1.0  0.64647  0.44698  0.21151  1.0000
  H   H32       1.0  0.62233  0.36343  0.18023  1.0000
  C   C49       1.0  0.57158  0.64161  0.28449  1.0000
  C   C50       1.0  0.60549  0.61866  0.28391  1.0000
  C   C51       1.0  0.61480  0.59517  0.35908  1.0000
  O   O17       1.0  0.62713  0.61741  0.20751  1.0000
  H   H33       1.0  0.56389  0.65599  0.22701  1.0000
  H   H34       1.0  0.61610  0.59641  0.17038  1.0000
  C   C52       1.0  0.43901  0.37092  0.25588  1.0000
  C   C53       1.0  0.40497  0.39351  0.25374  1.0000
  C   C54       1.0  0.38763  0.40597  0.33498  1.0000
  O   O18       1.0  0.39223  0.40657  0.17270  1.0000
  H   H35       1.0  0.45282  0.36481  0.19671  1.0000
  H   H36       1.0  0.36931  0.39072  0.15778  1.0000
  C   C55       1.0  0.07882  0.37340  0.33959  1.0000
  C   C56       1.0  0.11822  0.38499  0.33780  1.0000
  C   C57       1.0  0.12951  0.42465  0.33615  1.0000
  C   C58       1.0  0.10000  0.45316  0.33484  1.0000
  C   C59       1.0  0.06016  0.44289  0.33452  1.0000
  C   C60       1.0  0.05019  0.40281  0.33731  1.0000
  H   H37       1.0  0.10768  0.48200  0.33652  1.0000
  H   H38       1.0  0.02152  0.39488  0.33778  1.0000
  H   H39       1.0  0.13924  0.36403  0.33598  1.0000
  C   C61       1.0  0.92410  0.62978  0.32955  1.0000
  C   C62       1.0  0.88457  0.61858  0.33046  1.0000
  C   C63       1.0  0.87287  0.57901  0.33055  1.0000
  C   C64       1.0  0.90212  0.55018  0.33218  1.0000
  C   C65       1.0  0.94204  0.56007  0.33158  1.0000
  C   C66       1.0  0.95239  0.60003  0.32935  1.0000
  H   H40       1.0  0.89418  0.52140  0.33102  1.0000
  H   H41       1.0  0.98113  0.60763  0.32807  1.0000
  H   H42       1.0  0.86379  0.63978  0.33308  1.0000
  C   C67       1.0  0.62969  0.07881  0.33422  1.0000
  C   C68       1.0  0.61837  0.11838  0.33434  1.0000
  C   C69       1.0  0.57893  0.12950  0.33333  1.0000
  C   C70       1.0  0.55041  0.09976  0.33196  1.0000
  C   C71       1.0  0.56035  0.05980  0.32979  1.0000
  C   C72       1.0  0.60022  0.04995  0.33116  1.0000
  H   H43       1.0  0.52178  0.10739  0.33521  1.0000
  H   H44       1.0  0.60797  0.02119  0.33064  1.0000
  H   H45       1.0  0.63933  0.13962  0.33359  1.0000
  C   C73       1.0  0.37257  0.92294  0.33335  1.0000
  C   C74       1.0  0.38373  0.88334  0.33085  1.0000
  C   C75       1.0  0.42311  0.87206  0.32849  1.0000
  C   C76       1.0  0.45180  0.90165  0.32953  1.0000
  C   C77       1.0  0.44197  0.94166  0.33145  1.0000
  C   C78       1.0  0.40215  0.95169  0.33235  1.0000
  H   H46       1.0  0.48041  0.89390  0.32640  1.0000
  H   H47       1.0  0.39455  0.98047  0.33558  1.0000
  H   H48       1.0  0.36268  0.86221  0.33101  1.0000
  C   C79       1.0  0.06540  0.14248  0.34204  1.0000
  C   C80       1.0  0.02654  0.12946  0.34375  1.0000
  C   C81       1.0  0.99548  0.15607  0.34196  1.0000
  C   C82       1.0  0.00368  0.19639  0.33866  1.0000
  C   C83       1.0  0.04243  0.21038  0.33774  1.0000
  C   C84       1.0  0.07304  0.18291  0.33906  1.0000
  H   H49       1.0  0.98115  0.21572  0.33974  1.0000
  H   H50       1.0  0.10125  0.19237  0.33810  1.0000
  H   H51       1.0  0.02078  0.10013  0.34609  1.0000
  C   C85       1.0  0.93718  0.86062  0.34690  1.0000
  C   C86       1.0  0.97612  0.87341  0.34957  1.0000
  C   C87       1.0  0.00724  0.84695  0.34472  1.0000
  C   C88       1.0  0.99892  0.80681  0.33614  1.0000
  C   C89       1.0  0.96014  0.79290  0.33302  1.0000
  C   C90       1.0  0.92955  0.82034  0.33780  1.0000
  H   H52       1.0  0.02144  0.78751  0.33287  1.0000
  H   H53       1.0  0.90135  0.81085  0.33825  1.0000
  H   H54       1.0  0.98197  0.90265  0.35485  1.0000
  C   C91       1.0  0.85942  0.06602  0.34258  1.0000
  C   C92       1.0  0.87218  0.02709  0.34644  1.0000
  C   C93       1.0  0.84571  0.99559  0.34541  1.0000
  C   C94       1.0  0.80564  0.00360  0.33935  1.0000
  C   C95       1.0  0.79181  0.04243  0.33578  1.0000
  C   C96       1.0  0.81925  0.07339  0.33708  1.0000
  H   H55       1.0  0.78629  0.98083  0.34119  1.0000
  H   H56       1.0  0.80994  0.10166  0.33486  1.0000
  H   H57       1.0  0.90133  0.02158  0.35023  1.0000
  C   C97       1.0  0.14291  0.93789  0.34471  1.0000
  C   C98       1.0  0.13049  0.97698  0.34556  1.0000
  C   C99       1.0  0.15727  0.00811  0.34134  1.0000
  C   C100      1.0  0.19728  0.99974  0.33604  1.0000
  C   C101      1.0  0.21075  0.96074  0.33540  1.0000
  C   C102      1.0  0.18300  0.93010  0.33905  1.0000
  H   H58       1.0  0.21677  0.02233  0.33543  1.0000
  H   H59       1.0  0.19203  0.90172  0.33859  1.0000
  H   H60       1.0  0.10139  0.98289  0.34919  1.0000
  C   C103      1.0  0.43781  0.64182  0.34029  1.0000
  C   C104      1.0  0.47645  0.62902  0.34798  1.0000
  C   C105      1.0  0.50774  0.65568  0.34961  1.0000
  C   C106      1.0  0.49981  0.69592  0.34241  1.0000
  C   C107      1.0  0.46120  0.70977  0.33592  1.0000
  C   C108      1.0  0.43048  0.68213  0.33419  1.0000
  H   H61       1.0  0.52246  0.71531  0.34291  1.0000
  H   H62       1.0  0.40232  0.69140  0.33083  1.0000
  H   H63       1.0  0.48189  0.59972  0.35199  1.0000
  C   C109      1.0  0.56437  0.36013  0.34314  1.0000
  C   C110      1.0  0.52549  0.37270  0.34212  1.0000
  C   C111      1.0  0.49457  0.34568  0.33886  1.0000
  C   C112      1.0  0.50293  0.30543  0.33750  1.0000
  C   C113      1.0  0.54174  0.29194  0.33957  1.0000
  C   C114      1.0  0.57220  0.31983  0.34125  1.0000
  H   H64       1.0  0.48046  0.28582  0.33700  1.0000
  H   H65       1.0  0.60046  0.31078  0.34134  1.0000
  H   H66       1.0  0.51962  0.40197  0.34346  1.0000
  C   C115      1.0  0.64302  0.56517  0.35302  1.0000
  C   C116      1.0  0.63031  0.52603  0.35444  1.0000
  C   C117      1.0  0.65673  0.49488  0.34915  1.0000
  C   C118      1.0  0.69673  0.50322  0.34215  1.0000
  C   C119      1.0  0.71058  0.54219  0.34147  1.0000
  C   C120      1.0  0.68319  0.57289  0.34552  1.0000
  H   H67       1.0  0.71590  0.48060  0.33799  1.0000
  H   H68       1.0  0.69259  0.60123  0.34640  1.0000
  H   H69       1.0  0.60118  0.52005  0.35861  1.0000
  C   C121      1.0  0.35976  0.43622  0.33459  1.0000
  C   C122      1.0  0.37285  0.47521  0.33459  1.0000
  C   C123      1.0  0.34640  0.50643  0.33466  1.0000
  C   C124      1.0  0.30622  0.49833  0.33485  1.0000
  C   C125      1.0  0.29220  0.45942  0.33560  1.0000
  C   C126      1.0  0.31948  0.42861  0.33509  1.0000
  H   H70       1.0  0.28707  0.52103  0.33684  1.0000
  H   H71       1.0  0.31000  0.40029  0.33441  1.0000
  H   H72       1.0  0.40207  0.48094  0.33502  1.0000
  C   C127      1.0  0.00123  0.47243  0.39887  1.0000
  C   C128      1.0  0.97214  0.50122  0.39977  1.0000
  C   C129      1.0  0.97127  0.53059  0.33277  1.0000
  H   H73       1.0  0.00116  0.45182  0.44856  1.0000
  O   O19       1.0  0.94540  0.49985  0.46697  1.0000
  H   H74       1.0  0.95403  0.51877  0.51242  1.0000
  C   C130      1.0  0.53155  0.99972  0.39261  1.0000
  C   C131      1.0  0.50241  0.97075  0.39505  1.0000
  C   C132      1.0  0.47152  0.97110  0.33206  1.0000
  H   H75       1.0  0.55317  0.99876  0.43964  1.0000
  O   O20       1.0  0.50506  0.94288  0.45981  1.0000
  H   H76       1.0  0.48712  0.95062  0.50784  1.0000
  C   C133      1.0  0.07561  0.26710  0.40415  1.0000
  C   C134      1.0  0.08502  0.30716  0.40577  1.0000
  C   C135      1.0  0.06870  0.33293  0.34176  1.0000
  O   O21       1.0  0.10776  0.32088  0.47378  1.0000
  H   H77       1.0  0.08708  0.24946  0.45269  1.0000
  H   H78       1.0  0.13403  0.31072  0.46364  1.0000
  C   C136      1.0  0.96918  0.72652  0.39222  1.0000
  C   C137      1.0  0.96110  0.68615  0.39200  1.0000
  C   C138      1.0  0.93471  0.67015  0.32878  1.0000
  O   O22       1.0  0.97618  0.66378  0.45892  1.0000
  H   H79       1.0  0.98698  0.73742  0.44126  1.0000
  H   H80       1.0  0.00408  0.66129  0.44658  1.0000
  C   C139      1.0  0.73526  0.07561  0.40078  1.0000
  C   C140      1.0  0.69536  0.08437  0.40255  1.0000
  C   C141      1.0  0.66990  0.06861  0.33692  1.0000
  O   O23       1.0  0.68262  0.10853  0.46870  1.0000
  H   H81       1.0  0.75279  0.08754  0.44909  1.0000
  H   H82       1.0  0.67057  0.09174  0.51444  1.0000
  C   C142      1.0  0.26705  0.92697  0.40016  1.0000
  C   C143      1.0  0.30674  0.91710  0.40070  1.0000
  C   C144      1.0  0.33241  0.93327  0.33610  1.0000
  O   O24       1.0  0.32030  0.89414  0.46837  1.0000
  H   H83       1.0  0.24955  0.91563  0.44925  1.0000
  H   H84       1.0  0.30965  0.86785  0.45847  1.0000
  C   C145      1.0  0.45887  0.81691  0.39372  1.0000
  C   C146      1.0  0.46825  0.77698  0.39743  1.0000
  C   C147      1.0  0.45303  0.75059  0.33292  1.0000
  H   H85       1.0  0.46985  0.83506  0.44209  1.0000
  O   O25       1.0  0.49162  0.76494  0.46558  1.0000
  H   H86       1.0  0.47440  0.75414  0.51203  1.0000
  C   C148      1.0  0.58410  0.19454  0.40221  1.0000
  C   C149      1.0  0.57496  0.23449  0.40555  1.0000
  C   C150      1.0  0.55011  0.25119  0.34024  1.0000
  H   H87       1.0  0.60223  0.18345  0.45018  1.0000
  O   O26       1.0  0.59102  0.25605  0.47282  1.0000
  H   H88       1.0  0.57068  0.25925  0.51848  1.0000
  C   C151      1.0  0.81766  0.54249  0.39510  1.0000
  C   C152      1.0  0.77774  0.53351  0.39962  1.0000
  C   C153      1.0  0.75127  0.55039  0.33802  1.0000
  H   H89       1.0  0.83580  0.53053  0.44189  1.0000
  O   O27       1.0  0.76576  0.50889  0.46584  1.0000
  H   H90       1.0  0.75563  0.52541  0.51433  1.0000
  C   C154      1.0  0.19464  0.41869  0.40257  1.0000
  C   C155      1.0  0.23472  0.42693  0.40382  1.0000
  C   C156      1.0  0.25145  0.45157  0.33776  1.0000
  H   H91       1.0  0.18355  0.40061  0.45093  1.0000
  O   O28       1.0  0.25638  0.41022  0.46970  1.0000
  H   H92       1.0  0.26035  0.43039  0.51573  1.0000
  C   C157      1.0  0.12696  0.06094  0.42492  1.0000
  C   C158      1.0  0.10383  0.09466  0.42621  1.0000
  C   C159      1.0  0.09559  0.11457  0.34517  1.0000
  O   O29       1.0  0.08655  0.10471  0.50501  1.0000
  H   H93       1.0  0.13009  0.04531  0.48302  1.0000
  H   H94       1.0  0.10074  0.12764  0.52741  1.0000
  C   C160      1.0  0.88184  0.94670  0.42946  1.0000
  C   C161      1.0  0.90477  0.91292  0.43119  1.0000
  C   C162      1.0  0.90716  0.88874  0.35422  1.0000
  O   O30       1.0  0.92719  0.90677  0.50510  1.0000
  H   H95       1.0  0.88278  0.96514  0.48350  1.0000
  H   H96       1.0  0.91572  0.88436  0.53666  1.0000
  C   C163      1.0  0.94297  0.12504  0.42570  1.0000
  C   C164      1.0  0.90849  0.10290  0.42720  1.0000
  C   C165      1.0  0.88755  0.09629  0.34669  1.0000
  O   O31       1.0  0.89863  0.08485  0.50541  1.0000
  H   H97       1.0  0.95913  0.12710  0.48322  1.0000
  H   H98       1.0  0.87600  0.09885  0.52895  1.0000
  C   C166      1.0  0.05787  0.88110  0.42851  1.0000
  C   C167      1.0  0.09200  0.90374  0.42989  1.0000
  C   C168      1.0  0.11464  0.90780  0.35101  1.0000
  O   O32       1.0  0.09993  0.92454  0.50562  1.0000
  H   H99       1.0  0.04047  0.88094  0.48424  1.0000
  H   H100      1.0  0.12225  0.91181  0.53411  1.0000
  C   C169      1.0  0.39760  0.59466  0.42069  1.0000
  C   C170      1.0  0.37433  0.56083  0.42038  1.0000
  C   C171      1.0  0.36114  0.54501  0.33798  1.0000
  H   H101      1.0  0.40925  0.60401  0.48020  1.0000
  O   O33       1.0  0.36884  0.54177  0.49956  1.0000
  H   H102      1.0  0.34199  0.54712  0.51781  1.0000
  C   C172      1.0  0.60128  0.40816  0.42878  1.0000
  C   C173      1.0  0.62501  0.44162  0.43168  1.0000
  C   C174      1.0  0.64195  0.45627  0.35173  1.0000
  H   H103      1.0  0.58712  0.39962  0.48599  1.0000
  O   O34       1.0  0.62746  0.46141  0.51075  1.0000
  H   H104      1.0  0.65384  0.45711  0.53364  1.0000
  C   C175      1.0  0.59035  0.59646  0.43520  1.0000
  C   C176      1.0  0.55646  0.61913  0.43568  1.0000
  C   C177      1.0  0.54603  0.64099  0.35871  1.0000
  H   H105      1.0  0.59582  0.57883  0.48917  1.0000
  O   O35       1.0  0.53256  0.61602  0.50817  1.0000
  H   H106      1.0  0.53453  0.64091  0.54052  1.0000
  C   C178      1.0  0.40415  0.39424  0.41740  1.0000
  C   C179      1.0  0.43789  0.37122  0.41953  1.0000
  C   C180      1.0  0.45605  0.35998  0.33830  1.0000
  H   H107      1.0  0.39314  0.40454  0.47662  1.0000
  O   O36       1.0  0.45466  0.36422  0.50065  1.0000
  H   H108      1.0  0.44884  0.33687  0.51515  1.0000
