data_image0
_chemical_formula_structural       C3NC3NC5NC5NC20H18C4H4C3HCH3NC3HCH3NC8H8C3H2NC3H2N
_chemical_formula_sum              "C62 N8 H42"
_cell_length_a       25.8711
_cell_length_b       25.8709
_cell_length_c       14.7296
_cell_angle_alpha    90
_cell_angle_beta     90
_cell_angle_gamma    90.0372

_space_group_name_H-M_alt    "P 1"
_space_group_IT_number       1

loop_
  _space_group_symop_operation_xyz
  'x, y, z'

loop_
  _atom_site_type_symbol
  _atom_site_label
  _atom_site_symmetry_multiplicity
  _atom_site_fract_x
  _atom_site_fract_y
  _atom_site_fract_z
  _atom_site_occupancy
  C   C1        1.0  0.91442  0.87264  0.33697  1.0000
  C   C2        1.0  0.87578  0.90955  0.33763  1.0000
  C   C3        1.0  0.89865  0.95849  0.34053  1.0000
  N   N1        1.0  0.95040  0.94901  0.34336  1.0000
  C   C4        1.0  0.96222  0.89774  0.34056  1.0000
  C   C5        1.0  0.01124  0.87225  0.33953  1.0000
  C   C6        1.0  0.05956  0.89895  0.34044  1.0000
  N   N2        1.0  0.06872  0.95061  0.34173  1.0000
  C   C7        1.0  0.11992  0.96213  0.34080  1.0000
  C   C8        1.0  0.14529  0.91452  0.33889  1.0000
  C   C9        1.0  0.10839  0.87588  0.33962  1.0000
  C   C10       1.0  0.14425  0.01163  0.34009  1.0000
  C   C11       1.0  0.11639  0.05938  0.34126  1.0000
  N   N3        1.0  0.06463  0.06878  0.34308  1.0000
  C   C12       1.0  0.05281  0.12006  0.34157  1.0000
  C   C13       1.0  0.10059  0.14524  0.34006  1.0000
  C   C14       1.0  0.13923  0.10838  0.34072  1.0000
  C   C15       1.0  0.00381  0.14553  0.33997  1.0000
  C   C16       1.0  0.95550  0.11889  0.34059  1.0000
  N   N4        1.0  0.94632  0.06725  0.34302  1.0000
  C   C17       1.0  0.89514  0.05577  0.34104  1.0000
  C   C18       1.0  0.86982  0.10340  0.33750  1.0000
  C   C19       1.0  0.90675  0.14203  0.33787  1.0000
  C   C20       1.0  0.87084  0.00626  0.33987  1.0000
  C   C21       1.0  0.81533  0.00456  0.33016  1.0000
  C   C22       1.0  0.70442  0.00097  0.30654  1.0000
  C   C23       1.0  0.73895  0.99084  0.23375  1.0000
  C   C24       1.0  0.79304  0.99277  0.24505  1.0000
  C   C25       1.0  0.00292  0.20103  0.33015  1.0000
  C   C26       1.0  0.99980  0.31193  0.30644  1.0000
  C   C27       1.0  0.99026  0.27741  0.23337  1.0000
  C   C28       1.0  0.99195  0.22334  0.24472  1.0000
  C   C29       1.0  0.19993  0.01357  0.33368  1.0000
  C   C30       1.0  0.22417  0.02861  0.25172  1.0000
  C   C31       1.0  0.27838  0.03361  0.24587  1.0000
  C   C32       1.0  0.31082  0.02274  0.32102  1.0000
  C   C33       1.0  0.01235  0.81654  0.33294  1.0000
  C   C34       1.0  0.02720  0.79216  0.25102  1.0000
  C   C35       1.0  0.02102  0.70561  0.32059  1.0000
  C   C36       1.0  0.03191  0.73793  0.24528  1.0000
  H   H1        1.0  0.04420  0.72221  0.18524  1.0000
  H   H2        1.0  0.03619  0.81400  0.19525  1.0000
  H   H3        1.0  0.90787  0.83374  0.33355  1.0000
  H   H4        1.0  0.83719  0.90121  0.33525  1.0000
  H   H5        1.0  0.97603  0.97585  0.34596  1.0000
  H   H6        1.0  0.03898  0.04191  0.34315  1.0000
  H   H7        1.0  0.11661  0.83726  0.33884  1.0000
  H   H8        1.0  0.18425  0.90817  0.33722  1.0000
  H   H9        1.0  0.20225  0.03744  0.19599  1.0000
  H   H10       1.0  0.29402  0.04592  0.18574  1.0000
  H   H11       1.0  0.17781  0.11684  0.34001  1.0000
  H   H12       1.0  0.10715  0.18418  0.33831  1.0000
  H   H13       1.0  0.83089  0.10975  0.33424  1.0000
  H   H14       1.0  0.89866  0.18066  0.33534  1.0000
  H   H15       1.0  0.98473  0.20017  0.18981  1.0000
  H   H16       1.0  0.98177  0.29140  0.17007  1.0000
  H   H17       1.0  0.81621  0.98524  0.19029  1.0000
  H   H18       1.0  0.72498  0.98181  0.17067  1.0000
  C   C37       1.0  0.99672  0.36556  0.29112  1.0000
  C   C38       1.0  0.36401  0.03201  0.31428  1.0000
  C   C39       1.0  0.03029  0.65241  0.31412  1.0000
  C   C40       1.0  0.65078  0.99779  0.29126  1.0000
  H   H19       1.0  0.98435  0.37679  0.23038  1.0000
  H   H20       1.0  0.37514  0.06282  0.27881  1.0000
  H   H21       1.0  0.06114  0.64129  0.27879  1.0000
  H   H22       1.0  0.63952  0.98500  0.23081  1.0000
  C   C41       1.0  0.00666  0.45369  0.34351  1.0000
  C   C42       1.0  0.00341  0.48208  0.26136  1.0000
  C   C43       1.0  0.00184  0.53701  0.25938  1.0000
  H   H23       1.0  0.00202  0.46236  0.20135  1.0000
  C   C44       1.0  0.99555  0.56388  0.17074  1.0000
  H   H24       1.0  0.98939  0.53708  0.11452  1.0000
  H   H25       1.0  0.03011  0.58639  0.15538  1.0000
  H   H26       1.0  0.96227  0.58974  0.17349  1.0000
  N   N5        1.0  0.00775  0.40151  0.34899  1.0000
  C   C45       1.0  0.56270  0.00819  0.34350  1.0000
  C   C46       1.0  0.53427  0.00483  0.26140  1.0000
  C   C47       1.0  0.47935  0.00334  0.25947  1.0000
  H   H27       1.0  0.55398  0.00333  0.20138  1.0000
  C   C48       1.0  0.45242  0.99694  0.17091  1.0000
  H   H28       1.0  0.47918  0.99068  0.11468  1.0000
  H   H29       1.0  0.42997  0.03149  0.15544  1.0000
  H   H30       1.0  0.42649  0.96368  0.17385  1.0000
  N   N6        1.0  0.61487  0.00927  0.34892  1.0000
  C   C49       1.0  0.78129  0.01501  0.40321  1.0000
  C   C50       1.0  0.72697  0.01332  0.39161  1.0000
  C   C51       1.0  0.01276  0.23504  0.40351  1.0000
  C   C52       1.0  0.01132  0.28937  0.39186  1.0000
  C   C53       1.0  0.28664  0.00647  0.40245  1.0000
  C   C54       1.0  0.23222  0.00222  0.40875  1.0000
  C   C55       1.0  0.00079  0.78435  0.40807  1.0000
  C   C56       1.0  0.00478  0.72990  0.40192  1.0000
  H   H31       1.0  0.99757  0.70818  0.45859  1.0000
  H   H32       1.0  0.99043  0.80055  0.46877  1.0000
  H   H33       1.0  0.21612  0.99162  0.46941  1.0000
  H   H34       1.0  0.30845  0.99919  0.45899  1.0000
  H   H35       1.0  0.02088  0.22032  0.46639  1.0000
  H   H36       1.0  0.01840  0.31241  0.44692  1.0000
  H   H37       1.0  0.70392  0.02090  0.44645  1.0000
  H   H38       1.0  0.79599  0.02385  0.46581  1.0000
  C   C57       1.0  0.00486  0.56525  0.34235  1.0000
  C   C58       1.0  0.00761  0.53701  0.42438  1.0000
  C   C59       1.0  0.00906  0.48245  0.42484  1.0000
  H   H39       1.0  0.00867  0.55622  0.48512  1.0000
  H   H40       1.0  0.01116  0.46364  0.48587  1.0000
  N   N7        1.0  0.00072  0.61710  0.34792  1.0000
  C   C60       1.0  0.45114  0.00655  0.34247  1.0000
  C   C61       1.0  0.47941  0.00941  0.42445  1.0000
  C   C62       1.0  0.53397  0.01079  0.42486  1.0000
  H   H41       1.0  0.46023  0.01061  0.48520  1.0000
  H   H42       1.0  0.55281  0.01300  0.48584  1.0000
  N   N8        1.0  0.39929  0.00247  0.34813  1.0000
