data_image0
_chemical_formula_structural       C13NC3H3ONHCNC3H3ONHCNC3H3ONHCNC3H3ONHCNC3H3ONHCNC3H3ONHNC2HNHNC2HNHNC2HNHNC2HNHNC2HNHNC2HNHCNC3H3ONHCNC3H3ONHCNC3H3ONHCNC3H3ONHCNC3H3ONHCNC3H3ONHC5H3C2O3C5H3C2O3C5H3C2O3C5H3C2O3C5H3C2O3C5H3C2O3C6H3C3O3C6H3C3O3C6H3C3O3C6H3C3O3C6H3C3O3C6H3C3O3NC2HNHNC2HNHNC2HNHNC2HNHNC2HNHNC2HNHCNC3H3ONHCNC3H3ONHCNC3H3ONHCNC3H3ONHCNC3H3ONHCNC3H3ONHNC2HNHNC2HNHNC2HNHNC2HNHNC2HNHNC2HNH
_chemical_formula_sum              "C216 N72 H144 O54"
_cell_length_a       58.4282
_cell_length_b       58.4282
_cell_length_c       15.0163
_cell_angle_alpha    90
_cell_angle_beta     90
_cell_angle_gamma    120

_space_group_name_H-M_alt    "P 1"
_space_group_IT_number       1

loop_
  _space_group_symop_operation_xyz
  'x, y, z'

loop_
  _atom_site_type_symbol
  _atom_site_label
  _atom_site_symmetry_multiplicity
  _atom_site_fract_x
  _atom_site_fract_y
  _atom_site_fract_z
  _atom_site_occupancy
  C   C1        1.0  0.10204  0.43989  0.25012  1.0000
  C   C2        1.0  0.07591  0.41898  0.23701  1.0000
  C   C3        1.0  0.57830  0.68265  0.25464  1.0000
  C   C4        1.0  0.59942  0.67773  0.24218  1.0000
  C   C5        1.0  0.33603  0.91527  0.24825  1.0000
  C   C6        1.0  0.34165  0.94151  0.23349  1.0000
  C   C7        1.0  0.90827  0.58379  0.25518  1.0000
  C   C8        1.0  0.93428  0.60492  0.24210  1.0000
  C   C9        1.0  0.43302  0.34279  0.25675  1.0000
  C   C10       1.0  0.41185  0.34765  0.24479  1.0000
  C   C11       1.0  0.67463  0.10727  0.26231  1.0000
  C   C12       1.0  0.67063  0.08146  0.25480  1.0000
  C   C13       1.0  0.19710  0.43522  0.29822  1.0000
  N   N1        1.0  0.24005  0.44384  0.25782  1.0000
  C   C14       1.0  0.21678  0.44183  0.23217  1.0000
  C   C15       1.0  0.21420  0.44862  0.14602  1.0000
  C   C16       1.0  0.22366  0.47637  0.12856  1.0000
  H   H1        1.0  0.21563  0.48446  0.17694  1.0000
  H   H2        1.0  0.21738  0.47879  0.06243  1.0000
  H   H3        1.0  0.24523  0.48776  0.13163  1.0000
  O   O1        1.0  0.21884  0.43700  0.08725  1.0000
  N   N2        1.0  0.17431  0.43570  0.28324  1.0000
  H   H4        1.0  0.16522  0.42835  0.22700  1.0000
  C   C17       1.0  0.58248  0.78243  0.28979  1.0000
  N   N3        1.0  0.57470  0.81702  0.24505  1.0000
  C   C18       1.0  0.57627  0.79532  0.22191  1.0000
  C   C19       1.0  0.56939  0.78535  0.13643  1.0000
  C   C20       1.0  0.54159  0.76713  0.11959  1.0000
  H   H5        1.0  0.53341  0.75135  0.16924  1.0000
  H   H6        1.0  0.53906  0.75794  0.05426  1.0000
  H   H7        1.0  0.53035  0.77748  0.12108  1.0000
  O   O2        1.0  0.58107  0.80115  0.07651  1.0000
  N   N4        1.0  0.58178  0.75894  0.27734  1.0000
  H   H8        1.0  0.58913  0.75675  0.22178  1.0000
  C   C21       1.0  0.23588  0.82123  0.30162  1.0000
  N   N5        1.0  0.20205  0.77799  0.26188  1.0000
  C   C22       1.0  0.22317  0.80132  0.23602  1.0000
  C   C23       1.0  0.23277  0.80379  0.15023  1.0000
  C   C24       1.0  0.25137  0.79463  0.13433  1.0000
  H   H9        1.0  0.26739  0.80299  0.18309  1.0000
  H   H10       1.0  0.26019  0.80082  0.06831  1.0000
  H   H11       1.0  0.24145  0.77309  0.13812  1.0000
  O   O3        1.0  0.21658  0.79876  0.09086  1.0000
  N   N6        1.0  0.25906  0.84411  0.28658  1.0000
  H   H12       1.0  0.26085  0.85291  0.22967  1.0000
  C   C25       1.0  0.81327  0.58858  0.29932  1.0000
  N   N7        1.0  0.77079  0.58120  0.25830  1.0000
  C   C26       1.0  0.79385  0.58270  0.23288  1.0000
  C   C27       1.0  0.79639  0.57597  0.14655  1.0000
  C   C28       1.0  0.78594  0.54822  0.12684  1.0000
  H   H13       1.0  0.79311  0.53921  0.17489  1.0000
  H   H14       1.0  0.79234  0.54596  0.06071  1.0000
  H   H15       1.0  0.76436  0.53761  0.12850  1.0000
  O   O4        1.0  0.79299  0.58884  0.08911  1.0000
  N   N8        1.0  0.83584  0.58769  0.28443  1.0000
  H   H16       1.0  0.84513  0.59506  0.22853  1.0000
  C   C29       1.0  0.42863  0.24311  0.29918  1.0000
  N   N9        1.0  0.43635  0.20818  0.25917  1.0000
  C   C30       1.0  0.43471  0.22963  0.23319  1.0000
  C   C31       1.0  0.44159  0.23888  0.14692  1.0000
  C   C32       1.0  0.46938  0.25609  0.12761  1.0000
  H   H17       1.0  0.47836  0.27226  0.17567  1.0000
  H   H18       1.0  0.47177  0.26475  0.06143  1.0000
  H   H19       1.0  0.47991  0.24504  0.12964  1.0000
  O   O5        1.0  0.42876  0.22261  0.08944  1.0000
  N   N10       1.0  0.42957  0.26659  0.28402  1.0000
  H   H20       1.0  0.42206  0.26843  0.22830  1.0000
  C   C33       1.0  0.77398  0.20378  0.29062  1.0000
  N   N11       1.0  0.80908  0.24643  0.25149  1.0000
  C   C34       1.0  0.78754  0.22347  0.22506  1.0000
  C   C35       1.0  0.77824  0.22132  0.13895  1.0000
  C   C36       1.0  0.76104  0.23197  0.12062  1.0000
  H   H21       1.0  0.74487  0.22465  0.16874  1.0000
  H   H22       1.0  0.75236  0.22591  0.05436  1.0000
  H   H23       1.0  0.77209  0.25355  0.12341  1.0000
  O   O6        1.0  0.79450  0.22496  0.08119  1.0000
  N   N12       1.0  0.75041  0.18136  0.27553  1.0000
  H   H24       1.0  0.74862  0.17163  0.22078  1.0000
  N   N13       1.0  0.15234  0.56995  0.26020  1.0000
  C   C37       1.0  0.15247  0.59319  0.26029  1.0000
  C   C38       1.0  0.14980  0.60358  0.34187  1.0000
  H   H25       1.0  0.15308  0.60208  0.20104  1.0000
  N   N14       1.0  0.14776  0.62595  0.34480  1.0000
  H   H26       1.0  0.15421  0.63752  0.29288  1.0000
  N   N15       1.0  0.44816  0.60256  0.26165  1.0000
  C   C39       1.0  0.42497  0.57938  0.26089  1.0000
  C   C40       1.0  0.41446  0.56604  0.34198  1.0000
  H   H27       1.0  0.41620  0.57129  0.20133  1.0000
  N   N16       1.0  0.39212  0.54159  0.34393  1.0000
  H   H28       1.0  0.38071  0.53659  0.29161  1.0000
  N   N17       1.0  0.41379  0.86275  0.26366  1.0000
  C   C41       1.0  0.43660  0.86204  0.26382  1.0000
  C   C42       1.0  0.44967  0.86457  0.34534  1.0000
  H   H29       1.0  0.44467  0.86112  0.20452  1.0000
  N   N18       1.0  0.47409  0.86657  0.34759  1.0000
  H   H30       1.0  0.47973  0.86165  0.29323  1.0000
  N   N19       1.0  0.85852  0.45380  0.26524  1.0000
  C   C43       1.0  0.85843  0.43058  0.26485  1.0000
  C   C44       1.0  0.86102  0.42003  0.34620  1.0000
  H   H31       1.0  0.85781  0.42179  0.20539  1.0000
  N   N20       1.0  0.86297  0.39760  0.34842  1.0000
  H   H32       1.0  0.85677  0.38631  0.29581  1.0000
  N   N21       1.0  0.56300  0.42329  0.26357  1.0000
  C   C45       1.0  0.58613  0.44651  0.26307  1.0000
  C   C46       1.0  0.59669  0.45966  0.34441  1.0000
  H   H33       1.0  0.59488  0.45472  0.20361  1.0000
  N   N22       1.0  0.61901  0.48410  0.34664  1.0000
  H   H34       1.0  0.63039  0.48921  0.29424  1.0000
  N   N23       1.0  0.59302  0.15580  0.26527  1.0000
  C   C47       1.0  0.57000  0.15611  0.26485  1.0000
  C   C48       1.0  0.55740  0.15463  0.34648  1.0000
  H   H35       1.0  0.56154  0.15617  0.20538  1.0000
  N   N24       1.0  0.53318  0.15299  0.34901  1.0000
  H   H36       1.0  0.52803  0.15910  0.29627  1.0000
  C   C49       1.0  0.97963  0.37762  0.32966  1.0000
  N   N25       1.0  0.01863  0.39213  0.24318  1.0000
  C   C50       1.0  0.99238  0.38387  0.24550  1.0000
  C   C51       1.0  0.97928  0.38175  0.16636  1.0000
  C   C52       1.0  0.96724  0.35650  0.12097  1.0000
  H   H37       1.0  0.95489  0.34044  0.16659  1.0000
  H   H38       1.0  0.98240  0.35285  0.09319  1.0000
  H   H39       1.0  0.95466  0.35628  0.06679  1.0000
  O   O7        1.0  0.98983  0.40134  0.11859  1.0000
  N   N26       1.0  0.95424  0.37250  0.34068  1.0000
  H   H40       1.0  0.94803  0.38089  0.29838  1.0000
  C   C53       1.0  0.63894  0.62091  0.33291  1.0000
  N   N27       1.0  0.62467  0.64584  0.24786  1.0000
  C   C54       1.0  0.63272  0.62769  0.24920  1.0000
  C   C55       1.0  0.63474  0.61686  0.16954  1.0000
  C   C56       1.0  0.66002  0.62998  0.12437  1.0000
  H   H41       1.0  0.67599  0.63335  0.16990  1.0000
  H   H42       1.0  0.66392  0.64896  0.09740  1.0000
  H   H43       1.0  0.66012  0.61772  0.06962  1.0000
  O   O8        1.0  0.61519  0.60818  0.12165  1.0000
  N   N28       1.0  0.64395  0.60053  0.34291  1.0000
  H   H44       1.0  0.63533  0.58595  0.30064  1.0000
  C   C57       1.0  0.39654  0.03754  0.32789  1.0000
  N   N29       1.0  0.37223  0.99879  0.24018  1.0000
  C   C58       1.0  0.39044  0.02496  0.24342  1.0000
  C   C59       1.0  0.40208  0.03811  0.16504  1.0000
  C   C60       1.0  0.39045  0.05179  0.11996  1.0000
  H   H45       1.0  0.38747  0.06449  0.16625  1.0000
  H   H46       1.0  0.37142  0.03762  0.09075  1.0000
  H   H47       1.0  0.40352  0.06431  0.06694  1.0000
  O   O9        1.0  0.41019  0.02703  0.11565  1.0000
  N   N30       1.0  0.41694  0.06280  0.34027  1.0000
  H   H48       1.0  0.43168  0.06907  0.29852  1.0000
  C   C61       1.0  0.03077  0.64564  0.33151  1.0000
  N   N31       1.0  0.99151  0.63121  0.24675  1.0000
  C   C62       1.0  0.01777  0.63951  0.24782  1.0000
  C   C63       1.0  0.03059  0.64168  0.16804  1.0000
  C   C64       1.0  0.04316  0.66738  0.12518  1.0000
  H   H49       1.0  0.02832  0.67181  0.09937  1.0000
  H   H50       1.0  0.05548  0.66773  0.06986  1.0000
  H   H51       1.0  0.05590  0.68291  0.17186  1.0000
  O   O10       1.0  0.01959  0.62280  0.11744  1.0000
  N   N32       1.0  0.05619  0.65076  0.34137  1.0000
  H   H52       1.0  0.06223  0.64228  0.29883  1.0000
  C   C65       1.0  0.37174  0.40415  0.33204  1.0000
  N   N33       1.0  0.38556  0.37861  0.24851  1.0000
  C   C66       1.0  0.37719  0.39652  0.24862  1.0000
  C   C67       1.0  0.37426  0.40634  0.16815  1.0000
  C   C68       1.0  0.34824  0.39255  0.12760  1.0000
  H   H53       1.0  0.34386  0.37312  0.10362  1.0000
  H   H54       1.0  0.34729  0.40390  0.07134  1.0000
  H   H55       1.0  0.33301  0.39002  0.17522  1.0000
  O   O11       1.0  0.39276  0.41392  0.11605  1.0000
  N   N34       1.0  0.36663  0.42450  0.34054  1.0000
  H   H56       1.0  0.37487  0.43871  0.29675  1.0000
  C   C69       1.0  0.62198  0.98381  0.34128  1.0000
  N   N35       1.0  0.64498  0.02407  0.25925  1.0000
  C   C70       1.0  0.63053  0.99723  0.25845  1.0000
  C   C71       1.0  0.62331  0.98457  0.17692  1.0000
  C   C72       1.0  0.64327  0.98174  0.12881  1.0000
  H   H57       1.0  0.65873  0.00087  0.10401  1.0000
  H   H58       1.0  0.63434  0.96843  0.07224  1.0000
  H   H59       1.0  0.65229  0.97333  0.17173  1.0000
  O   O12       1.0  0.60935  0.98997  0.13097  1.0000
  N   N36       1.0  0.60550  0.95688  0.34759  1.0000
  H   H60       1.0  0.60441  0.94654  0.29527  1.0000
  C   C73       1.0  0.14744  0.45628  0.30190  1.0000
  C   C74       1.0  0.15216  0.48245  0.29556  1.0000
  C   C75       1.0  0.13239  0.48781  0.26546  1.0000
  C   C76       1.0  0.10749  0.46623  0.24184  1.0000
  C   C77       1.0  0.12213  0.43508  0.28008  1.0000
  H   H61       1.0  0.09257  0.46963  0.22331  1.0000
  H   H62       1.0  0.11812  0.41599  0.28752  1.0000
  H   H63       1.0  0.17054  0.49790  0.31052  1.0000
  C   C78       1.0  0.16776  0.45149  0.33063  1.0000
  C   C79       1.0  0.13689  0.51409  0.26123  1.0000
  O   O13       1.0  0.06478  0.41922  0.15814  1.0000
  O   O14       1.0  0.18368  0.46689  0.39726  1.0000
  O   O15       1.0  0.12405  0.51939  0.19641  1.0000
  C   C80       1.0  0.56140  0.71167  0.30132  1.0000
  C   C81       1.0  0.53535  0.68990  0.29666  1.0000
  C   C82       1.0  0.53032  0.66463  0.26952  1.0000
  C   C83       1.0  0.55209  0.66145  0.24772  1.0000
  C   C84       1.0  0.58281  0.70770  0.28136  1.0000
  H   H64       1.0  0.54894  0.64308  0.23097  1.0000
  H   H65       1.0  0.60183  0.72303  0.28747  1.0000
  H   H66       1.0  0.51974  0.69272  0.31006  1.0000
  C   C85       1.0  0.56589  0.73698  0.32629  1.0000
  C   C86       1.0  0.50416  0.64265  0.26531  1.0000
  O   O16       1.0  0.60007  0.66750  0.16193  1.0000
  O   O17       1.0  0.55047  0.73805  0.39175  1.0000
  O   O18       1.0  0.49919  0.62428  0.20167  1.0000
  C   C87       1.0  0.30658  0.87037  0.30366  1.0000
  C   C88       1.0  0.32770  0.86515  0.29812  1.0000
  C   C89       1.0  0.35289  0.88441  0.26678  1.0000
  C   C90       1.0  0.35659  0.90930  0.24097  1.0000
  C   C91       1.0  0.31107  0.89567  0.27954  1.0000
  H   H67       1.0  0.37500  0.92388  0.22165  1.0000
  H   H68       1.0  0.29622  0.90004  0.28634  1.0000
  H   H69       1.0  0.32448  0.84676  0.31457  1.0000
  C   C92       1.0  0.28139  0.85053  0.33378  1.0000
  C   C93       1.0  0.37435  0.87941  0.26345  1.0000
  O   O19       1.0  0.35420  0.95255  0.15600  1.0000
  O   O20       1.0  0.28079  0.83486  0.40142  1.0000
  O   O21       1.0  0.39245  0.89159  0.19803  1.0000
  C   C94       1.0  0.86261  0.56700  0.30468  1.0000
  C   C95       1.0  0.85826  0.54093  0.29974  1.0000
  C   C96       1.0  0.87835  0.53584  0.27133  1.0000
  C   C97       1.0  0.90321  0.55757  0.24821  1.0000
  C   C98       1.0  0.88788  0.58836  0.28346  1.0000
  H   H70       1.0  0.91834  0.55438  0.23068  1.0000
  H   H71       1.0  0.89164  0.60739  0.28995  1.0000
  H   H72       1.0  0.83991  0.52536  0.31419  1.0000
  C   C99       1.0  0.84198  0.57155  0.33167  1.0000
  C   C100      1.0  0.87419  0.50968  0.26758  1.0000
  O   O22       1.0  0.94512  0.60500  0.16231  1.0000
  O   O23       1.0  0.82580  0.55610  0.39771  1.0000
  O   O24       1.0  0.88733  0.50454  0.20345  1.0000
  C   C101      1.0  0.45003  0.31399  0.30458  1.0000
  C   C102      1.0  0.47606  0.33574  0.29891  1.0000
  C   C103      1.0  0.48102  0.36091  0.27094  1.0000
  C   C104      1.0  0.45919  0.36400  0.24898  1.0000
  C   C105      1.0  0.42857  0.31785  0.28450  1.0000
  H   H73       1.0  0.46228  0.38232  0.23184  1.0000
  H   H74       1.0  0.40957  0.30256  0.29158  1.0000
  H   H75       1.0  0.49170  0.33299  0.31257  1.0000
  C   C106      1.0  0.44558  0.28885  0.33144  1.0000
  C   C107      1.0  0.50715  0.38294  0.26664  1.0000
  O   O25       1.0  0.41087  0.35746  0.16406  1.0000
  O   O26       1.0  0.46122  0.28822  0.39701  1.0000
  O   O27       1.0  0.51206  0.40128  0.20293  1.0000
  C   C108      1.0  0.70301  0.15412  0.29904  1.0000
  C   C109      1.0  0.68061  0.15739  0.29547  1.0000
  C   C110      1.0  0.65529  0.13612  0.27400  1.0000
  C   C111      1.0  0.65270  0.11115  0.25661  1.0000
  C   C112      1.0  0.69972  0.12880  0.28323  1.0000
  H   H76       1.0  0.63438  0.09524  0.24400  1.0000
  H   H77       1.0  0.71551  0.12583  0.28929  1.0000
  H   H78       1.0  0.68293  0.17575  0.30605  1.0000
  C   C113      1.0  0.72812  0.17570  0.32174  1.0000
  C   C114      1.0  0.63272  0.13937  0.27142  1.0000
  O   O28       1.0  0.66380  0.07050  0.17275  1.0000
  O   O29       1.0  0.72888  0.19249  0.38554  1.0000
  O   O30       1.0  0.61349  0.12441  0.21212  1.0000
  C   C115      1.0  0.45825  0.15268  0.36552  1.0000
  C   C116      1.0  0.48403  0.15664  0.37668  1.0000
  C   C117      1.0  0.48829  0.13586  0.40340  1.0000
  C   C118      1.0  0.46606  0.11054  0.41719  1.0000
  C   C119      1.0  0.44014  0.10595  0.40519  1.0000
  C   C120      1.0  0.43642  0.12717  0.38068  1.0000
  H   H79       1.0  0.46876  0.09495  0.43238  1.0000
  H   H80       1.0  0.41769  0.12352  0.36726  1.0000
  H   H81       1.0  0.50001  0.17509  0.36680  1.0000
  C   C121      1.0  0.45443  0.17353  0.33460  1.0000
  C   C122      1.0  0.41853  0.07979  0.40521  1.0000
  C   C123      1.0  0.51428  0.13988  0.41225  1.0000
  O   O31       1.0  0.39695  0.07482  0.45349  1.0000
  O   O32       1.0  0.47265  0.19119  0.27739  1.0000
  O   O33       1.0  0.51844  0.12662  0.47846  1.0000
  C   C124      1.0  0.69323  0.55945  0.36306  1.0000
  C   C125      1.0  0.67146  0.53361  0.37365  1.0000
  C   C126      1.0  0.64638  0.52918  0.40044  1.0000
  C   C127      1.0  0.64319  0.55132  0.41506  1.0000
  C   C128      1.0  0.66447  0.57732  0.40380  1.0000
  C   C129      1.0  0.68947  0.58119  0.37917  1.0000
  H   H82       1.0  0.62489  0.54852  0.43066  1.0000
  H   H83       1.0  0.70453  0.59997  0.36650  1.0000
  H   H84       1.0  0.67404  0.51771  0.36333  1.0000
  C   C130      1.0  0.71794  0.56339  0.33204  1.0000
  C   C131      1.0  0.65987  0.59891  0.40571  1.0000
  C   C132      1.0  0.62449  0.50310  0.40921  1.0000
  O   O34       1.0  0.67661  0.62040  0.45409  1.0000
  O   O35       1.0  0.71742  0.54534  0.27411  1.0000
  O   O36       1.0  0.60692  0.49888  0.47494  1.0000
  C   C133      1.0  0.86429  0.32349  0.36184  1.0000
  C   C134      1.0  0.86010  0.34514  0.37384  1.0000
  C   C135      1.0  0.88065  0.37016  0.40168  1.0000
  C   C136      1.0  0.90601  0.37340  0.41609  1.0000
  C   C137      1.0  0.91082  0.35222  0.40383  1.0000
  C   C138      1.0  0.88982  0.32731  0.37785  1.0000
  H   H85       1.0  0.92146  0.39167  0.43232  1.0000
  H   H86       1.0  0.89368  0.31239  0.36406  1.0000
  H   H87       1.0  0.84162  0.34255  0.36351  1.0000
  C   C139      1.0  0.84366  0.29890  0.32935  1.0000
  C   C140      1.0  0.93704  0.35695  0.40486  1.0000
  C   C141      1.0  0.87638  0.39198  0.41101  1.0000
  O   O37       1.0  0.94207  0.34049  0.45381  1.0000
  O   O38       1.0  0.82604  0.29962  0.27233  1.0000
  O   O39       1.0  0.88972  0.40949  0.47694  1.0000
  C   C142      1.0  0.55144  0.87197  0.34951  1.0000
  C   C143      1.0  0.52509  0.86587  0.36471  1.0000
  C   C144      1.0  0.51924  0.88470  0.40072  1.0000
  C   C145      1.0  0.54044  0.91019  0.42072  1.0000
  C   C146      1.0  0.56695  0.91731  0.40293  1.0000
  C   C147      1.0  0.57212  0.89783  0.36840  1.0000
  H   H88       1.0  0.53635  0.92435  0.44296  1.0000
  H   H89       1.0  0.59124  0.90271  0.35530  1.0000
  H   H90       1.0  0.50991  0.84716  0.35184  1.0000
  C   C148      1.0  0.55684  0.85255  0.31449  1.0000
  C   C149      1.0  0.58752  0.94400  0.41374  1.0000
  C   C150      1.0  0.49266  0.87877  0.41259  1.0000
  O   O40       1.0  0.58511  0.95773  0.48232  1.0000
  O   O41       1.0  0.53932  0.83513  0.25507  1.0000
  O   O42       1.0  0.48764  0.88991  0.48356  1.0000
  C   C151      1.0  0.31783  0.46608  0.36123  1.0000
  C   C152      1.0  0.33967  0.49193  0.37091  1.0000
  C   C153      1.0  0.36481  0.49638  0.39708  1.0000
  C   C154      1.0  0.36799  0.47423  0.41173  1.0000
  C   C155      1.0  0.34664  0.44823  0.40149  1.0000
  C   C156      1.0  0.32161  0.44435  0.37741  1.0000
  H   H91       1.0  0.38630  0.47701  0.42713  1.0000
  H   H92       1.0  0.30647  0.42554  0.36559  1.0000
  H   H93       1.0  0.33708  0.50782  0.36065  1.0000
  C   C157      1.0  0.29301  0.46207  0.33107  1.0000
  C   C158      1.0  0.35116  0.42661  0.40396  1.0000
  C   C159      1.0  0.38673  0.52243  0.40579  1.0000
  O   O43       1.0  0.33494  0.40555  0.45500  1.0000
  O   O44       1.0  0.29333  0.48003  0.27318  1.0000
  O   O45       1.0  0.40435  0.52660  0.47131  1.0000
  C   C160      1.0  0.14670  0.70023  0.36492  1.0000
  C   C161      1.0  0.15072  0.67839  0.37435  1.0000
  C   C162      1.0  0.12994  0.65316  0.39936  1.0000
  C   C163      1.0  0.10455  0.64990  0.41315  1.0000
  C   C164      1.0  0.09988  0.67124  0.40298  1.0000
  C   C165      1.0  0.12111  0.69636  0.38012  1.0000
  H   H94       1.0  0.08900  0.63152  0.42766  1.0000
  H   H95       1.0  0.11745  0.71150  0.36826  1.0000
  H   H96       1.0  0.16923  0.68101  0.36458  1.0000
  C   C166      1.0  0.16757  0.72512  0.33553  1.0000
  C   C167      1.0  0.07371  0.66667  0.40426  1.0000
  C   C168      1.0  0.13408  0.63124  0.40732  1.0000
  O   O46       1.0  0.06875  0.68315  0.45330  1.0000
  O   O47       1.0  0.18538  0.72491  0.27815  1.0000
  O   O48       1.0  0.12050  0.61340  0.47215  1.0000
  N   N37       1.0  0.20213  0.42984  0.38178  1.0000
  C   C169      1.0  0.22495  0.43073  0.40522  1.0000
  C   C170      1.0  0.24534  0.43894  0.34170  1.0000
  H   H97       1.0  0.22765  0.42706  0.46976  1.0000
  N   N38       1.0  0.26960  0.44253  0.36416  1.0000
  H   H98       1.0  0.27022  0.43230  0.41452  1.0000
  N   N39       1.0  0.58798  0.79343  0.37248  1.0000
  C   C171      1.0  0.58753  0.81575  0.39341  1.0000
  C   C172      1.0  0.57973  0.82782  0.32805  1.0000
  H   H99       1.0  0.59121  0.82251  0.45751  1.0000
  N   N40       1.0  0.57632  0.84874  0.34867  1.0000
  H   H100      1.0  0.58607  0.85937  0.40007  1.0000
  N   N41       1.0  0.22530  0.81631  0.38492  1.0000
  C   C173      1.0  0.20352  0.79338  0.40854  1.0000
  C   C174      1.0  0.19170  0.77280  0.34552  1.0000
  H   H101      1.0  0.19697  0.79078  0.47283  1.0000
  N   N42       1.0  0.17116  0.74847  0.36813  1.0000
  H   H102      1.0  0.16017  0.74777  0.41814  1.0000
  N   N43       1.0  0.80830  0.59394  0.38298  1.0000
  C   C175      1.0  0.78573  0.59359  0.40626  1.0000
  C   C176      1.0  0.76554  0.58604  0.34231  1.0000
  H   H103      1.0  0.78304  0.59721  0.47086  1.0000
  N   N44       1.0  0.74145  0.58291  0.36458  1.0000
  H   H104      1.0  0.74099  0.59317  0.41510  1.0000
  N   N45       1.0  0.42319  0.23285  0.38294  1.0000
  C   C177      1.0  0.42363  0.21072  0.40670  1.0000
  C   C178      1.0  0.43142  0.19815  0.34327  1.0000
  H   H105      1.0  0.41995  0.20445  0.47134  1.0000
  N   N46       1.0  0.43471  0.17735  0.36616  1.0000
  H   H106      1.0  0.42426  0.16649  0.41617  1.0000
  N   N47       1.0  0.78424  0.20834  0.37433  1.0000
  C   C179      1.0  0.80648  0.23076  0.39847  1.0000
  C   C180      1.0  0.81912  0.25126  0.33558  1.0000
  H   H107      1.0  0.81268  0.23318  0.46317  1.0000
  N   N48       1.0  0.84000  0.27526  0.35916  1.0000
  H   H108      1.0  0.85072  0.27547  0.40927  1.0000
  C   C181      1.0  0.15071  0.55601  0.33497  1.0000
  N   N49       1.0  0.14892  0.59008  0.41681  1.0000
  C   C182      1.0  0.14984  0.56726  0.41788  1.0000
  C   C183      1.0  0.14793  0.55518  0.49883  1.0000
  C   C184      1.0  0.12183  0.53806  0.53527  1.0000
  H   H109      1.0  0.10897  0.52378  0.48546  1.0000
  H   H110      1.0  0.11291  0.54963  0.55750  1.0000
  H   H111      1.0  0.12305  0.52699  0.59195  1.0000
  O   O49       1.0  0.16474  0.56893  0.55369  1.0000
  N   N50       1.0  0.14961  0.53202  0.32759  1.0000
  H   H112      1.0  0.15555  0.52615  0.37879  1.0000
  C   C185      1.0  0.46194  0.61465  0.33689  1.0000
  N   N51       1.0  0.42782  0.57846  0.41739  1.0000
  C   C186      1.0  0.45060  0.60223  0.41934  1.0000
  C   C187      1.0  0.46256  0.61225  0.50070  1.0000
  C   C188      1.0  0.48008  0.60338  0.53454  1.0000
  H   H113      1.0  0.46883  0.58266  0.55467  1.0000
  H   H114      1.0  0.49098  0.61522  0.59220  1.0000
  H   H115      1.0  0.49451  0.60558  0.48407  1.0000
  O   O50       1.0  0.44859  0.61448  0.55674  1.0000
  N   N52       1.0  0.48587  0.63762  0.33019  1.0000
  H   H116      1.0  0.49142  0.64954  0.38109  1.0000
  C   C189      1.0  0.40177  0.86491  0.33830  1.0000
  N   N53       1.0  0.43728  0.86598  0.42012  1.0000
  C   C190      1.0  0.41384  0.86568  0.42123  1.0000
  C   C191      1.0  0.40399  0.86820  0.50216  1.0000
  C   C192      1.0  0.41377  0.89480  0.53551  1.0000
  H   H117      1.0  0.43441  0.90359  0.55608  1.0000
  H   H118      1.0  0.40207  0.89444  0.59278  1.0000
  H   H119      1.0  0.41225  0.90733  0.48459  1.0000
  O   O51       1.0  0.40103  0.85183  0.55861  1.0000
  N   N54       1.0  0.37929  0.86673  0.33067  1.0000
  H   H120      1.0  0.36753  0.86119  0.38201  1.0000
  C   C193      1.0  0.86008  0.46760  0.34029  1.0000
  N   N55       1.0  0.86182  0.43338  0.42144  1.0000
  C   C194      1.0  0.86093  0.45623  0.42298  1.0000
  C   C195      1.0  0.86265  0.46816  0.50423  1.0000
  C   C196      1.0  0.88894  0.48581  0.53856  1.0000
  H   H121      1.0  0.89850  0.47468  0.55914  1.0000
  H   H122      1.0  0.88782  0.49667  0.59601  1.0000
  H   H123      1.0  0.90121  0.50027  0.48821  1.0000
  O   O52       1.0  0.84638  0.45414  0.56004  1.0000
  N   N56       1.0  0.86116  0.49157  0.33318  1.0000
  H   H124      1.0  0.85490  0.49724  0.38408  1.0000
  C   C197      1.0  0.54930  0.41100  0.33871  1.0000
  N   N57       1.0  0.58343  0.44705  0.41972  1.0000
  C   C198      1.0  0.56068  0.42324  0.42136  1.0000
  C   C199      1.0  0.54884  0.41297  0.50269  1.0000
  C   C200      1.0  0.53103  0.42139  0.53715  1.0000
  H   H125      1.0  0.54202  0.44210  0.55769  1.0000
  H   H126      1.0  0.52027  0.40937  0.59466  1.0000
  H   H127      1.0  0.51649  0.41906  0.48691  1.0000
  O   O53       1.0  0.56297  0.41087  0.55839  1.0000
  N   N58       1.0  0.52539  0.38802  0.33175  1.0000
  H   H128      1.0  0.51986  0.37606  0.38255  1.0000
  C   C201      1.0  0.60558  0.15499  0.34059  1.0000
  N   N59       1.0  0.57028  0.15453  0.42185  1.0000
  C   C202      1.0  0.59391  0.15523  0.42331  1.0000
  C   C203      1.0  0.60451  0.15420  0.50465  1.0000
  C   C204      1.0  0.59573  0.12842  0.54334  1.0000
  H   H129      1.0  0.57525  0.11955  0.56574  1.0000
  H   H130      1.0  0.60811  0.13018  0.60037  1.0000
  H   H131      1.0  0.59720  0.11524  0.49501  1.0000
  O   O54       1.0  0.60773  0.17168  0.55679  1.0000
  N   N60       1.0  0.62840  0.15382  0.33365  1.0000
  H   H132      1.0  0.64101  0.16138  0.38242  1.0000
  N   N61       1.0  0.99455  0.37973  0.40220  1.0000
  C   C205      1.0  0.02060  0.38739  0.39819  1.0000
  C   C206      1.0  0.03378  0.39464  0.31530  1.0000
  H   H133      1.0  0.03060  0.38923  0.45599  1.0000
  N   N62       1.0  0.06082  0.40615  0.30958  1.0000
  H   H134      1.0  0.07020  0.40850  0.36573  1.0000
  N   N63       1.0  0.63692  0.63355  0.40607  1.0000
  C   C207      1.0  0.62945  0.65210  0.40304  1.0000
  C   C208      1.0  0.62230  0.65838  0.32055  1.0000
  H   H135      1.0  0.62763  0.66010  0.46124  1.0000
  N   N64       1.0  0.61105  0.67415  0.31569  1.0000
  H   H136      1.0  0.60810  0.68050  0.37235  1.0000
  N   N65       1.0  0.38313  0.02257  0.39963  1.0000
  C   C209      1.0  0.36448  0.99664  0.39460  1.0000
  C   C210      1.0  0.35898  0.98359  0.31154  1.0000
  H   H137      1.0  0.35593  0.98656  0.45196  1.0000
  N   N66       1.0  0.34326  0.95660  0.30528  1.0000
  H   H138      1.0  0.33549  0.94723  0.36091  1.0000
  N   N67       1.0  0.01609  0.64338  0.40488  1.0000
  C   C211      1.0  0.99003  0.63573  0.40208  1.0000
  C   C212      1.0  0.97659  0.62860  0.31963  1.0000
  H   H139      1.0  0.98019  0.63371  0.46040  1.0000
  N   N68       1.0  0.94954  0.61711  0.31498  1.0000
  H   H140      1.0  0.94029  0.61442  0.37162  1.0000
  N   N69       1.0  0.37469  0.39249  0.40625  1.0000
  C   C213      1.0  0.38242  0.37413  0.40449  1.0000
  C   C214      1.0  0.38886  0.36704  0.32220  1.0000
  H   H141      1.0  0.38494  0.36688  0.46330  1.0000
  N   N70       1.0  0.40037  0.35150  0.31815  1.0000
  H   H142      1.0  0.40364  0.34554  0.37508  1.0000
  N   N71       1.0  0.63015  0.99907  0.41601  1.0000
  C   C215      1.0  0.64524  0.02578  0.41578  1.0000
  C   C216      1.0  0.65281  0.03935  0.33369  1.0000
  H   H143      1.0  0.64989  0.03572  0.47499  1.0000
  N   N72       1.0  0.66552  0.06648  0.32981  1.0000
  H   H144      1.0  0.66922  0.07578  0.38673  1.0000
