data_image0
_chemical_formula_structural       C2NHC2H2CH2CNHC2HCHCHC2HCHCHC2H2C3HNH2CHC2H2C3HNH2CHC2H2C3HNH2CHC2H2C3HNH2CHC2H2C3HNH2CHC2H2C3HNH2CHC7H3NH2CHC7H3NH2CHC3H3C7H3NH2CHC7H3NH2CHC4HNHCHC7H3NH2CHC7H3NH2CHC7H3NH2CHC7H3NH2CHC7H3NH2CHC7H3NH2CHC6H3N3C6H3N3C6H3N3C6H3N3C6H3N3C6H3N3C6H3N3C6H3N3C6H3N3C6H3N3C6H3N3C6H3N3C7H3NH2CHC7H3NH2CHC7H3NH2CHC7H3NH2CHC7H3NH2CHC7H3NH2CHC2H2C3HNH2CHC2H2C3HNH2CHC3HNHCHC2H2C3HNH2CHC2H2C3HNH2CHC2H3C2H2C3HNH2CHC2H2C3HNH2CHC2H2C3HNH2CHC2H2C3HNH2CHC2H2C3HNH2CHC2H2C3HNH2CH
_chemical_formula_sum              "C324 N72 H252"
_cell_length_a       74.8525
_cell_length_b       74.8525
_cell_length_c       14.9676
_cell_angle_alpha    90
_cell_angle_beta     90
_cell_angle_gamma    120

_space_group_name_H-M_alt    "P 1"
_space_group_IT_number       1

loop_
  _space_group_symop_operation_xyz
  'x, y, z'

loop_
  _atom_site_type_symbol
  _atom_site_label
  _atom_site_symmetry_multiplicity
  _atom_site_fract_x
  _atom_site_fract_y
  _atom_site_fract_z
  _atom_site_occupancy
  C   C1        1.0  0.02130  0.81057  0.23436  1.0000
  C   C2        1.0  0.01195  0.80653  0.32049  1.0000
  N   N1        1.0  0.01049  0.80775  0.15745  1.0000
  H   H1        1.0  0.01724  0.81080  0.09938  1.0000
  C   C3        1.0  0.00851  0.19476  0.33259  1.0000
  C   C4        1.0  0.02221  0.21580  0.31367  1.0000
  H   H2        1.0  0.01668  0.22511  0.29203  1.0000
  H   H3        1.0  0.00309  0.19033  0.15777  1.0000
  C   C5        1.0  0.02430  0.81033  0.39747  1.0000
  H   H4        1.0  0.01783  0.80747  0.45987  1.0000
  H   H5        1.0  0.00942  0.83889  0.37305  1.0000
  C   C6        1.0  0.01657  0.18216  0.36290  1.0000
  N   N2        1.0  0.00438  0.16170  0.38114  1.0000
  H   H6        1.0  0.01024  0.15335  0.40113  1.0000
  C   C7        1.0  0.05517  0.82208  0.30548  1.0000
  C   C8        1.0  0.04281  0.81810  0.22851  1.0000
  H   H7        1.0  0.04966  0.82103  0.16681  1.0000
  C   C9        1.0  0.04362  0.22440  0.32382  1.0000
  H   H8        1.0  0.05298  0.23970  0.30934  1.0000
  C   C10       1.0  0.04566  0.81811  0.39017  1.0000
  H   H9        1.0  0.05414  0.82060  0.44721  1.0000
  C   C11       1.0  0.05206  0.21225  0.35371  1.0000
  C   C12       1.0  0.03821  0.19121  0.37315  1.0000
  H   H10       1.0  0.04400  0.18210  0.39450  1.0000
  C   C13       1.0  0.07608  0.82929  0.29699  1.0000
  H   H11       1.0  0.08075  0.82222  0.25455  1.0000
  C   C14       1.0  0.07323  0.22019  0.36425  1.0000
  H   H12       1.0  0.07798  0.21170  0.39662  1.0000
  C   C15       1.0  0.18465  0.36688  0.27866  1.0000
  C   C16       1.0  0.17665  0.34547  0.28510  1.0000
  H   H13       1.0  0.18800  0.37355  0.21662  1.0000
  H   H14       1.0  0.17452  0.33715  0.22784  1.0000
  C   C17       1.0  0.21452  0.44438  0.32717  1.0000
  C   C18       1.0  0.19359  0.43085  0.30461  1.0000
  C   C19       1.0  0.18418  0.40914  0.31318  1.0000
  H   H15       1.0  0.18483  0.43694  0.28219  1.0000
  N   N3        1.0  0.16385  0.39728  0.29199  1.0000
  H   H16       1.0  0.15652  0.38239  0.29875  1.0000
  H   H17       1.0  0.15581  0.40343  0.27109  1.0000
  C   C20       1.0  0.22285  0.46563  0.31773  1.0000
  H   H18       1.0  0.21483  0.47069  0.28369  1.0000
  C   C21       1.0  0.62935  0.81183  0.27858  1.0000
  C   C22       1.0  0.65075  0.82524  0.28497  1.0000
  H   H19       1.0  0.62267  0.80849  0.21656  1.0000
  H   H20       1.0  0.65906  0.83141  0.22769  1.0000
  C   C23       1.0  0.55185  0.76421  0.32723  1.0000
  C   C24       1.0  0.56537  0.75681  0.30468  1.0000
  C   C25       1.0  0.58708  0.76911  0.31322  1.0000
  H   H21       1.0  0.55928  0.74194  0.28224  1.0000
  N   N4        1.0  0.59894  0.76062  0.29201  1.0000
  H   H22       1.0  0.61384  0.76820  0.29869  1.0000
  H   H23       1.0  0.59279  0.74645  0.27107  1.0000
  C   C26       1.0  0.53060  0.75129  0.31779  1.0000
  H   H24       1.0  0.52554  0.73821  0.28378  1.0000
  C   C27       1.0  0.18439  0.81157  0.27865  1.0000
  C   C28       1.0  0.17099  0.81958  0.28510  1.0000
  H   H25       1.0  0.18771  0.80822  0.21662  1.0000
  H   H26       1.0  0.16480  0.82170  0.22783  1.0000
  C   C29       1.0  0.23202  0.78170  0.32715  1.0000
  C   C30       1.0  0.23942  0.80262  0.30459  1.0000
  C   C31       1.0  0.22712  0.81203  0.31316  1.0000
  H   H27       1.0  0.25428  0.81139  0.28216  1.0000
  N   N5        1.0  0.23560  0.83237  0.29197  1.0000
  H   H28       1.0  0.22803  0.83970  0.29873  1.0000
  H   H29       1.0  0.24978  0.84040  0.27107  1.0000
  C   C32       1.0  0.24494  0.77336  0.31770  1.0000
  H   H30       1.0  0.25802  0.78139  0.28366  1.0000
  C   C33       1.0  0.81429  0.62665  0.27858  1.0000
  C   C34       1.0  0.82228  0.64805  0.28497  1.0000
  H   H31       1.0  0.81095  0.61997  0.21655  1.0000
  H   H32       1.0  0.82442  0.65636  0.22768  1.0000
  C   C35       1.0  0.78441  0.54915  0.32723  1.0000
  C   C36       1.0  0.80534  0.56267  0.30467  1.0000
  C   C37       1.0  0.81475  0.58439  0.31320  1.0000
  H   H33       1.0  0.81411  0.55658  0.28224  1.0000
  N   N6        1.0  0.83508  0.59624  0.29200  1.0000
  H   H34       1.0  0.84241  0.61114  0.29868  1.0000
  H   H35       1.0  0.84311  0.59010  0.27105  1.0000
  C   C38       1.0  0.77608  0.52790  0.31779  1.0000
  H   H36       1.0  0.78411  0.52284  0.28377  1.0000
  C   C39       1.0  0.36959  0.18170  0.27858  1.0000
  C   C40       1.0  0.34818  0.16829  0.28498  1.0000
  H   H37       1.0  0.37626  0.18503  0.21656  1.0000
  H   H38       1.0  0.33987  0.16210  0.22770  1.0000
  C   C41       1.0  0.44708  0.22934  0.32721  1.0000
  C   C42       1.0  0.43355  0.23673  0.30463  1.0000
  C   C43       1.0  0.41184  0.22443  0.31318  1.0000
  H   H39       1.0  0.43965  0.25159  0.28222  1.0000
  N   N7        1.0  0.39998  0.23291  0.29198  1.0000
  H   H40       1.0  0.38509  0.22534  0.29873  1.0000
  H   H41       1.0  0.40613  0.24709  0.27109  1.0000
  C   C44       1.0  0.46833  0.24226  0.31777  1.0000
  H   H42       1.0  0.47339  0.25533  0.28375  1.0000
  C   C45       1.0  0.81453  0.18194  0.27859  1.0000
  C   C46       1.0  0.82794  0.17395  0.28498  1.0000
  H   H43       1.0  0.81119  0.18528  0.21656  1.0000
  H   H44       1.0  0.83412  0.17182  0.22770  1.0000
  C   C47       1.0  0.76690  0.21181  0.32724  1.0000
  C   C48       1.0  0.75950  0.19089  0.30469  1.0000
  C   C49       1.0  0.77181  0.18148  0.31322  1.0000
  H   H45       1.0  0.74464  0.18212  0.28224  1.0000
  N   N8        1.0  0.76332  0.16114  0.29201  1.0000
  H   H46       1.0  0.77090  0.15382  0.29868  1.0000
  H   H47       1.0  0.74915  0.15311  0.27106  1.0000
  C   C50       1.0  0.75398  0.22015  0.31780  1.0000
  H   H48       1.0  0.74090  0.21212  0.28379  1.0000
  C   C51       1.0  0.17415  0.22715  0.30549  1.0000
  C   C52       1.0  0.17814  0.21878  0.22851  1.0000
  C   C53       1.0  0.18567  0.20480  0.23436  1.0000
  C   C54       1.0  0.18970  0.19948  0.32049  1.0000
  C   C55       1.0  0.19748  0.18574  0.33262  1.0000
  C   C56       1.0  0.21853  0.19309  0.31371  1.0000
  C   C57       1.0  0.22712  0.18026  0.32387  1.0000
  H   H49       1.0  0.22784  0.20792  0.29207  1.0000
  H   H50       1.0  0.24242  0.18621  0.30941  1.0000
  H   H51       1.0  0.17520  0.22269  0.16681  1.0000
  N   N9        1.0  0.18848  0.19679  0.15745  1.0000
  H   H52       1.0  0.18543  0.20049  0.09938  1.0000
  H   H53       1.0  0.19309  0.18676  0.15777  1.0000
  C   C58       1.0  0.16695  0.24086  0.29700  1.0000
  H   H54       1.0  0.17402  0.25260  0.25456  1.0000
  C   C59       1.0  0.76910  0.94107  0.30547  1.0000
  C   C60       1.0  0.77747  0.95343  0.22850  1.0000
  C   C61       1.0  0.79145  0.97494  0.23435  1.0000
  C   C62       1.0  0.79677  0.98429  0.32049  1.0000
  C   C63       1.0  0.81050  0.00581  0.33263  1.0000
  C   C64       1.0  0.80315  0.01950  0.31371  1.0000
  C   C65       1.0  0.81597  0.04092  0.32389  1.0000
  H   H55       1.0  0.78832  0.01398  0.29207  1.0000
  H   H56       1.0  0.81003  0.05028  0.30942  1.0000
  H   H57       1.0  0.77355  0.94659  0.16679  1.0000
  N   N10       1.0  0.79944  0.98576  0.15745  1.0000
  H   H58       1.0  0.79578  0.97900  0.09938  1.0000
  H   H59       1.0  0.80952  0.00039  0.15780  1.0000
  C   C66       1.0  0.75540  0.92015  0.29696  1.0000
  H   H60       1.0  0.74365  0.91550  0.25456  1.0000
  C   C67       1.0  0.99043  0.79875  0.33262  1.0000
  C   C68       1.0  0.97673  0.77770  0.31371  1.0000
  C   C69       1.0  0.95532  0.76911  0.32388  1.0000
  H   H61       1.0  0.98226  0.76839  0.29207  1.0000
  H   H62       1.0  0.94596  0.75381  0.30942  1.0000
  H   H63       1.0  0.99584  0.80314  0.15777  1.0000
  C   C70       1.0  0.82481  0.76640  0.30547  1.0000
  C   C71       1.0  0.82081  0.77477  0.22850  1.0000
  C   C72       1.0  0.81327  0.78875  0.23435  1.0000
  C   C73       1.0  0.80925  0.79407  0.32049  1.0000
  C   C74       1.0  0.80146  0.80780  0.33263  1.0000
  C   C75       1.0  0.78041  0.80045  0.31371  1.0000
  C   C76       1.0  0.77182  0.81327  0.32389  1.0000
  H   H64       1.0  0.77111  0.78562  0.29206  1.0000
  H   H65       1.0  0.75652  0.80732  0.30942  1.0000
  H   H66       1.0  0.82373  0.77085  0.16680  1.0000
  N   N11       1.0  0.81045  0.79674  0.15745  1.0000
  H   H67       1.0  0.81354  0.79308  0.09938  1.0000
  H   H68       1.0  0.80589  0.80681  0.15780  1.0000
  C   C77       1.0  0.83202  0.75270  0.29697  1.0000
  H   H69       1.0  0.82493  0.74096  0.25456  1.0000
  C   C78       1.0  0.22983  0.05246  0.30549  1.0000
  C   C79       1.0  0.22145  0.04010  0.22851  1.0000
  C   C80       1.0  0.20747  0.01860  0.23436  1.0000
  C   C81       1.0  0.20215  0.00924  0.32049  1.0000
  C   C82       1.0  0.18842  0.98772  0.33261  1.0000
  C   C83       1.0  0.19577  0.97403  0.31371  1.0000
  C   C84       1.0  0.18295  0.95261  0.32385  1.0000
  H   H70       1.0  0.21060  0.97955  0.29207  1.0000
  H   H71       1.0  0.18889  0.94325  0.30938  1.0000
  H   H72       1.0  0.22536  0.04695  0.16682  1.0000
  N   N12       1.0  0.19947  0.00778  0.15745  1.0000
  H   H73       1.0  0.20317  0.01453  0.09938  1.0000
  H   H74       1.0  0.18944  0.99313  0.15777  1.0000
  C   C85       1.0  0.24353  0.07337  0.29700  1.0000
  H   H75       1.0  0.25527  0.07804  0.25454  1.0000
  C   C86       1.0  0.94377  0.17143  0.30549  1.0000
  C   C87       1.0  0.95613  0.17542  0.22851  1.0000
  C   C88       1.0  0.97764  0.18295  0.23435  1.0000
  C   C89       1.0  0.98699  0.18697  0.32048  1.0000
  H   H76       1.0  0.94929  0.17250  0.16681  1.0000
  N   N13       1.0  0.98845  0.18577  0.15743  1.0000
  H   H77       1.0  0.98169  0.18268  0.09938  1.0000
  C   C90       1.0  0.92286  0.16423  0.29700  1.0000
  H   H78       1.0  0.91820  0.17131  0.25461  1.0000
  C   C91       1.0  0.23023  0.65855  0.29908  1.0000
  C   C92       1.0  0.22364  0.64554  0.22322  1.0000
  C   C93       1.0  0.21905  0.62476  0.22743  1.0000
  C   C94       1.0  0.22112  0.61680  0.31083  1.0000
  C   C95       1.0  0.22108  0.59779  0.31733  1.0000
  C   C96       1.0  0.23814  0.59723  0.28023  1.0000
  C   C97       1.0  0.23981  0.57943  0.28646  1.0000
  H   H79       1.0  0.24969  0.60989  0.24864  1.0000
  H   H80       1.0  0.25243  0.57974  0.25835  1.0000
  H   H81       1.0  0.22310  0.65158  0.16249  1.0000
  N   N14       1.0  0.21328  0.61330  0.15117  1.0000
  H   H82       1.0  0.21190  0.61900  0.09483  1.0000
  H   H83       1.0  0.20939  0.59883  0.15114  1.0000
  C   C98       1.0  0.23865  0.67968  0.28816  1.0000
  H   H84       1.0  0.24623  0.68593  0.23141  1.0000
  C   C99       1.0  0.33767  0.56573  0.29922  1.0000
  C   C100      1.0  0.35067  0.57218  0.22330  1.0000
  C   C101      1.0  0.37144  0.58837  0.22743  1.0000
  C   C102      1.0  0.37940  0.59842  0.31083  1.0000
  C   C103      1.0  0.39842  0.61736  0.31723  1.0000
  C   C104      1.0  0.39899  0.63500  0.28016  1.0000
  C   C105      1.0  0.41679  0.65446  0.28641  1.0000
  H   H85       1.0  0.38632  0.63389  0.24861  1.0000
  H   H86       1.0  0.41648  0.66678  0.25832  1.0000
  H   H87       1.0  0.34462  0.56559  0.16257  1.0000
  N   N15       1.0  0.38288  0.59407  0.15113  1.0000
  H   H88       1.0  0.37721  0.58692  0.09491  1.0000
  H   H89       1.0  0.39738  0.60460  0.15117  1.0000
  C   C106      1.0  0.31654  0.55301  0.28826  1.0000
  H   H90       1.0  0.31030  0.55433  0.23148  1.0000
  C   C107      1.0  0.43049  0.76601  0.29911  1.0000
  C   C108      1.0  0.42407  0.77260  0.22325  1.0000
  C   C109      1.0  0.40788  0.77719  0.22745  1.0000
  C   C110      1.0  0.39785  0.77511  0.31085  1.0000
  C   C111      1.0  0.37889  0.77516  0.31734  1.0000
  C   C112      1.0  0.36125  0.75809  0.28022  1.0000
  C   C113      1.0  0.34179  0.75642  0.28645  1.0000
  H   H91       1.0  0.36238  0.74655  0.24862  1.0000
  H   H92       1.0  0.32948  0.74380  0.25833  1.0000
  H   H93       1.0  0.43066  0.77315  0.16252  1.0000
  N   N16       1.0  0.40220  0.78296  0.15120  1.0000
  H   H94       1.0  0.40928  0.78435  0.09486  1.0000
  H   H95       1.0  0.39161  0.78685  0.15116  1.0000
  C   C114      1.0  0.44321  0.75759  0.28820  1.0000
  H   H96       1.0  0.44187  0.75001  0.23146  1.0000
  C   C115      1.0  0.76872  0.33497  0.29922  1.0000
  C   C116      1.0  0.77527  0.34797  0.22330  1.0000
  C   C117      1.0  0.77985  0.36875  0.22744  1.0000
  C   C118      1.0  0.77777  0.37671  0.31083  1.0000
  C   C119      1.0  0.77784  0.39572  0.31724  1.0000
  C   C120      1.0  0.76077  0.39630  0.28017  1.0000
  C   C121      1.0  0.75910  0.41409  0.28642  1.0000
  H   H97       1.0  0.74921  0.38363  0.24862  1.0000
  H   H98       1.0  0.74648  0.41379  0.25833  1.0000
  H   H99       1.0  0.77582  0.34193  0.16257  1.0000
  N   N17       1.0  0.78559  0.38018  0.15113  1.0000
  H   H100      1.0  0.78707  0.37451  0.09492  1.0000
  H   H101      1.0  0.78955  0.39468  0.15118  1.0000
  C   C122      1.0  0.76032  0.31384  0.28826  1.0000
  H   H102      1.0  0.75275  0.30760  0.23148  1.0000
  C   C123      1.0  0.66126  0.42779  0.29909  1.0000
  C   C124      1.0  0.64824  0.42137  0.22324  1.0000
  C   C125      1.0  0.62746  0.40518  0.22745  1.0000
  C   C126      1.0  0.61950  0.39514  0.31083  1.0000
  C   C127      1.0  0.60050  0.37619  0.31734  1.0000
  C   C128      1.0  0.59993  0.35855  0.28023  1.0000
  C   C129      1.0  0.58214  0.33909  0.28645  1.0000
  H   H103      1.0  0.61260  0.35967  0.24863  1.0000
  H   H104      1.0  0.58244  0.32678  0.25834  1.0000
  H   H105      1.0  0.65428  0.42795  0.16251  1.0000
  N   N18       1.0  0.61601  0.39950  0.15119  1.0000
  H   H106      1.0  0.62170  0.40657  0.09485  1.0000
  H   H107      1.0  0.60153  0.38891  0.15115  1.0000
  C   C130      1.0  0.68239  0.44050  0.28818  1.0000
  H   H108      1.0  0.68863  0.43916  0.23145  1.0000
  C   C131      1.0  0.56843  0.22753  0.29921  1.0000
  C   C132      1.0  0.57488  0.22098  0.22328  1.0000
  C   C133      1.0  0.59108  0.21640  0.22742  1.0000
  C   C134      1.0  0.60112  0.21848  0.31081  1.0000
  C   C135      1.0  0.62006  0.21841  0.31722  1.0000
  C   C136      1.0  0.63770  0.23547  0.28015  1.0000
  C   C137      1.0  0.65716  0.23714  0.28641  1.0000
  H   H109      1.0  0.63659  0.24703  0.24860  1.0000
  H   H110      1.0  0.66948  0.24976  0.25832  1.0000
  H   H111      1.0  0.56829  0.22044  0.16255  1.0000
  N   N19       1.0  0.59677  0.21066  0.15111  1.0000
  H   H112      1.0  0.58962  0.20919  0.09490  1.0000
  H   H113      1.0  0.60730  0.20669  0.15115  1.0000
  C   C138      1.0  0.55571  0.23594  0.28824  1.0000
  H   H114      1.0  0.55703  0.24350  0.23147  1.0000
  C   C139      1.0  0.10745  0.24768  0.33600  1.0000
  C   C140      1.0  0.11819  0.26945  0.33273  1.0000
  C   C141      1.0  0.13995  0.28090  0.33503  1.0000
  C   C142      1.0  0.15107  0.27020  0.33595  1.0000
  C   C143      1.0  0.14071  0.24840  0.33615  1.0000
  C   C144      1.0  0.11896  0.23736  0.33768  1.0000
  H   H115      1.0  0.16685  0.27836  0.33618  1.0000
  H   H116      1.0  0.11142  0.22157  0.33718  1.0000
  H   H117      1.0  0.11003  0.27709  0.33099  1.0000
  N   N20       1.0  0.08690  0.23792  0.33382  1.0000
  N   N21       1.0  0.14910  0.30140  0.33379  1.0000
  N   N22       1.0  0.15045  0.23763  0.33756  1.0000
  C   C145      1.0  0.74854  0.85382  0.33606  1.0000
  C   C146      1.0  0.72677  0.84280  0.33265  1.0000
  C   C147      1.0  0.71533  0.85311  0.33499  1.0000
  C   C148      1.0  0.72603  0.87494  0.33591  1.0000
  C   C149      1.0  0.74784  0.88637  0.33613  1.0000
  C   C150      1.0  0.75887  0.87565  0.33766  1.0000
  H   H118      1.0  0.71789  0.88257  0.33613  1.0000
  H   H119      1.0  0.77466  0.88389  0.33725  1.0000
  H   H120      1.0  0.71912  0.82700  0.33100  1.0000
  N   N23       1.0  0.75829  0.84303  0.33385  1.0000
  N   N24       1.0  0.69483  0.84178  0.33368  1.0000
  N   N25       1.0  0.75862  0.90688  0.33753  1.0000
  C   C151      1.0  0.14240  0.88878  0.33601  1.0000
  C   C152      1.0  0.15343  0.87804  0.33274  1.0000
  C   C153      1.0  0.14313  0.85628  0.33503  1.0000
  C   C154      1.0  0.12131  0.84516  0.33595  1.0000
  C   C155      1.0  0.10987  0.85552  0.33615  1.0000
  C   C156      1.0  0.12058  0.87728  0.33769  1.0000
  H   H121      1.0  0.11368  0.82938  0.33617  1.0000
  H   H122      1.0  0.11232  0.88481  0.33720  1.0000
  H   H123      1.0  0.16924  0.88621  0.33100  1.0000
  N   N26       1.0  0.15320  0.90933  0.33384  1.0000
  N   N27       1.0  0.15447  0.84713  0.33379  1.0000
  N   N28       1.0  0.08935  0.84578  0.33756  1.0000
  C   C157      1.0  0.89148  0.74584  0.33607  1.0000
  C   C158      1.0  0.88074  0.72408  0.33267  1.0000
  C   C159      1.0  0.85898  0.71263  0.33500  1.0000
  C   C160      1.0  0.84787  0.72334  0.33591  1.0000
  C   C161      1.0  0.85824  0.74514  0.33614  1.0000
  C   C162      1.0  0.88000  0.75618  0.33767  1.0000
  H   H124      1.0  0.83209  0.71519  0.33613  1.0000
  H   H125      1.0  0.88754  0.77196  0.33726  1.0000
  H   H126      1.0  0.88889  0.71642  0.33102  1.0000
  N   N29       1.0  0.91204  0.75559  0.33387  1.0000
  N   N30       1.0  0.84981  0.69213  0.33369  1.0000
  N   N31       1.0  0.84851  0.75592  0.33754  1.0000
  C   C163      1.0  0.25039  0.13970  0.33604  1.0000
  C   C164      1.0  0.27216  0.15073  0.33273  1.0000
  C   C165      1.0  0.28360  0.14042  0.33501  1.0000
  C   C166      1.0  0.27290  0.11859  0.33594  1.0000
  C   C167      1.0  0.25109  0.10716  0.33618  1.0000
  C   C168      1.0  0.24006  0.11788  0.33774  1.0000
  H   H127      1.0  0.28105  0.11096  0.33615  1.0000
  H   H128      1.0  0.22427  0.10963  0.33726  1.0000
  H   H129      1.0  0.27981  0.16653  0.33097  1.0000
  N   N32       1.0  0.24064  0.15050  0.33386  1.0000
  N   N33       1.0  0.30411  0.15175  0.33370  1.0000
  N   N34       1.0  0.24032  0.08664  0.33759  1.0000
  C   C169      1.0  0.85653  0.10475  0.33610  1.0000
  C   C170      1.0  0.84551  0.11549  0.33273  1.0000
  C   C171      1.0  0.85582  0.13725  0.33502  1.0000
  C   C172      1.0  0.87764  0.14837  0.33594  1.0000
  C   C173      1.0  0.88907  0.13800  0.33617  1.0000
  C   C174      1.0  0.87836  0.11624  0.33769  1.0000
  H   H130      1.0  0.88527  0.16415  0.33615  1.0000
  H   H131      1.0  0.88660  0.10870  0.33727  1.0000
  H   H132      1.0  0.82970  0.10734  0.33103  1.0000
  N   N35       1.0  0.84573  0.08420  0.33388  1.0000
  N   N36       1.0  0.84449  0.14642  0.33372  1.0000
  N   N37       1.0  0.90959  0.14773  0.33756  1.0000
  C   C175      1.0  0.25207  0.53320  0.34360  1.0000
  C   C176      1.0  0.24055  0.51142  0.34508  1.0000
  C   C177      1.0  0.25055  0.49957  0.34859  1.0000
  C   C178      1.0  0.27233  0.50991  0.35256  1.0000
  C   C179      1.0  0.28405  0.53163  0.34884  1.0000
  C   C180      1.0  0.27375  0.54306  0.34535  1.0000
  H   H133      1.0  0.27979  0.50159  0.35569  1.0000
  H   H134      1.0  0.28226  0.55887  0.34398  1.0000
  H   H135      1.0  0.22481  0.50419  0.34391  1.0000
  N   N38       1.0  0.24424  0.54558  0.33792  1.0000
  N   N39       1.0  0.24045  0.47901  0.35040  1.0000
  N   N40       1.0  0.30454  0.54169  0.35149  1.0000
  C   C181      1.0  0.46303  0.71295  0.34350  1.0000
  C   C182      1.0  0.48480  0.72320  0.34507  1.0000
  C   C183      1.0  0.49665  0.74504  0.34864  1.0000
  C   C184      1.0  0.48632  0.75650  0.35256  1.0000
  C   C185      1.0  0.46460  0.74650  0.34877  1.0000
  C   C186      1.0  0.45317  0.72476  0.34526  1.0000
  H   H136      1.0  0.49464  0.77228  0.35566  1.0000
  H   H137      1.0  0.43736  0.71747  0.34388  1.0000
  H   H138      1.0  0.49203  0.71469  0.34394  1.0000
  N   N41       1.0  0.45064  0.69273  0.33789  1.0000
  N   N42       1.0  0.51722  0.75552  0.35044  1.0000
  N   N43       1.0  0.45454  0.75693  0.35140  1.0000
  C   C187      1.0  0.28329  0.74415  0.34357  1.0000
  C   C188      1.0  0.27304  0.75567  0.34506  1.0000
  C   C189      1.0  0.25119  0.74567  0.34856  1.0000
  C   C190      1.0  0.23974  0.72388  0.35249  1.0000
  C   C191      1.0  0.24975  0.71217  0.34875  1.0000
  C   C192      1.0  0.27148  0.72248  0.34528  1.0000
  H   H139      1.0  0.22396  0.71642  0.35561  1.0000
  H   H140      1.0  0.27878  0.71396  0.34391  1.0000
  H   H141      1.0  0.28155  0.77141  0.34392  1.0000
  N   N44       1.0  0.30351  0.75198  0.33790  1.0000
  N   N45       1.0  0.24072  0.75576  0.35038  1.0000
  N   N46       1.0  0.23932  0.69168  0.35137  1.0000
  C   C193      1.0  0.74685  0.46033  0.34349  1.0000
  C   C194      1.0  0.75838  0.48211  0.34506  1.0000
  C   C195      1.0  0.74838  0.49395  0.34863  1.0000
  C   C196      1.0  0.72659  0.48362  0.35255  1.0000
  C   C197      1.0  0.71488  0.46190  0.34876  1.0000
  C   C198      1.0  0.72518  0.45047  0.34525  1.0000
  H   H142      1.0  0.71914  0.49194  0.35565  1.0000
  H   H143      1.0  0.71667  0.43466  0.34386  1.0000
  H   H144      1.0  0.77412  0.48933  0.34394  1.0000
  N   N47       1.0  0.75468  0.44794  0.33788  1.0000
  N   N48       1.0  0.75848  0.51452  0.35044  1.0000
  N   N49       1.0  0.69438  0.45184  0.35139  1.0000
  C   C199      1.0  0.53590  0.28060  0.34360  1.0000
  C   C200      1.0  0.51413  0.27035  0.34508  1.0000
  C   C201      1.0  0.50228  0.24850  0.34860  1.0000
  C   C202      1.0  0.51261  0.23705  0.35255  1.0000
  C   C203      1.0  0.53433  0.24705  0.34883  1.0000
  C   C204      1.0  0.54576  0.26878  0.34533  1.0000
  H   H145      1.0  0.50429  0.22127  0.35568  1.0000
  H   H146      1.0  0.56157  0.27608  0.34397  1.0000
  H   H147      1.0  0.50690  0.27886  0.34392  1.0000
  N   N50       1.0  0.54829  0.30081  0.33792  1.0000
  N   N51       1.0  0.48171  0.23803  0.35041  1.0000
  N   N52       1.0  0.54439  0.23662  0.35148  1.0000
  C   C205      1.0  0.71565  0.24938  0.34352  1.0000
  C   C206      1.0  0.72589  0.23785  0.34507  1.0000
  C   C207      1.0  0.74774  0.24785  0.34866  1.0000
  C   C208      1.0  0.75920  0.26964  0.35262  1.0000
  C   C209      1.0  0.74920  0.28135  0.34885  1.0000
  C   C210      1.0  0.72746  0.27105  0.34531  1.0000
  H   H148      1.0  0.77497  0.27709  0.35573  1.0000
  H   H149      1.0  0.72017  0.27957  0.34393  1.0000
  H   H150      1.0  0.71738  0.22211  0.34393  1.0000
  N   N53       1.0  0.69543  0.24155  0.33789  1.0000
  N   N54       1.0  0.75821  0.23775  0.35046  1.0000
  N   N55       1.0  0.75963  0.30185  0.35149  1.0000
  C   C211      1.0  0.17210  0.33570  0.36932  1.0000
  C   C212      1.0  0.17570  0.34787  0.44667  1.0000
  C   C213      1.0  0.18345  0.36942  0.44166  1.0000
  C   C214      1.0  0.18811  0.37904  0.35602  1.0000
  C   C215      1.0  0.19630  0.40066  0.34494  1.0000
  C   C216      1.0  0.21725  0.41403  0.36690  1.0000
  C   C217      1.0  0.22619  0.43553  0.35839  1.0000
  H   H151      1.0  0.22621  0.40821  0.38965  1.0000
  H   H152      1.0  0.24141  0.44463  0.37500  1.0000
  H   H153      1.0  0.17240  0.34086  0.50805  1.0000
  N   N56       1.0  0.18590  0.38003  0.51888  1.0000
  H   H154      1.0  0.18243  0.37310  0.57657  1.0000
  H   H155      1.0  0.19062  0.39470  0.51909  1.0000
  C   C218      1.0  0.16501  0.31480  0.37736  1.0000
  H   H156      1.0  0.17183  0.31019  0.42145  1.0000
  C   C219      1.0  0.66053  0.83049  0.36917  1.0000
  C   C220      1.0  0.64837  0.82194  0.44655  1.0000
  C   C221      1.0  0.62682  0.80812  0.44160  1.0000
  C   C222      1.0  0.61719  0.80314  0.35598  1.0000
  C   C223      1.0  0.59557  0.78971  0.34495  1.0000
  C   C224      1.0  0.58220  0.79728  0.36693  1.0000
  C   C225      1.0  0.56070  0.78473  0.35844  1.0000
  H   H157      1.0  0.58803  0.81207  0.38967  1.0000
  H   H158      1.0  0.55160  0.79084  0.37506  1.0000
  H   H159      1.0  0.65539  0.82567  0.50793  1.0000
  N   N57       1.0  0.61622  0.79998  0.51886  1.0000
  H   H160      1.0  0.62316  0.80341  0.57651  1.0000
  H   H161      1.0  0.60156  0.78999  0.51908  1.0000
  C   C226      1.0  0.68143  0.84432  0.37714  1.0000
  H   H162      1.0  0.68604  0.85573  0.42133  1.0000
  C   C227      1.0  0.16577  0.82412  0.36932  1.0000
  C   C228      1.0  0.17433  0.82052  0.44666  1.0000
  C   C229      1.0  0.18814  0.81278  0.44165  1.0000
  C   C230      1.0  0.19309  0.80811  0.35602  1.0000
  C   C231      1.0  0.20652  0.79992  0.34493  1.0000
  C   C232      1.0  0.19895  0.77897  0.36689  1.0000
  C   C233      1.0  0.21149  0.77002  0.35838  1.0000
  H   H163      1.0  0.18416  0.77001  0.38965  1.0000
  H   H164      1.0  0.20539  0.75481  0.37500  1.0000
  H   H165      1.0  0.17063  0.82383  0.50805  1.0000
  N   N58       1.0  0.19630  0.81033  0.51887  1.0000
  H   H166      1.0  0.19284  0.81380  0.57657  1.0000
  H   H167      1.0  0.20624  0.80560  0.51908  1.0000
  C   C234      1.0  0.15195  0.83122  0.37736  1.0000
  H   H168      1.0  0.14053  0.82440  0.42146  1.0000
  C   C235      1.0  0.82681  0.65783  0.36917  1.0000
  C   C236      1.0  0.82320  0.64567  0.44655  1.0000
  C   C237      1.0  0.81547  0.62412  0.44160  1.0000
  C   C238      1.0  0.81082  0.61449  0.35598  1.0000
  C   C239      1.0  0.80263  0.59287  0.34495  1.0000
  C   C240      1.0  0.78169  0.57950  0.36693  1.0000
  C   C241      1.0  0.77274  0.55800  0.35844  1.0000
  H   H169      1.0  0.77272  0.58533  0.38967  1.0000
  H   H170      1.0  0.75753  0.54890  0.37506  1.0000
  H   H171      1.0  0.82649  0.65269  0.50793  1.0000
  N   N59       1.0  0.81300  0.61352  0.51885  1.0000
  H   H172      1.0  0.81652  0.62046  0.57651  1.0000
  H   H173      1.0  0.80834  0.59886  0.51907  1.0000
  C   C242      1.0  0.83388  0.67873  0.37713  1.0000
  H   H174      1.0  0.82708  0.68334  0.42132  1.0000
  C   C243      1.0  0.33840  0.16305  0.36919  1.0000
  C   C244      1.0  0.35056  0.17161  0.44656  1.0000
  C   C245      1.0  0.37211  0.18543  0.44160  1.0000
  C   C246      1.0  0.38174  0.19040  0.35598  1.0000
  C   C247      1.0  0.40336  0.20383  0.34494  1.0000
  C   C248      1.0  0.41673  0.19626  0.36691  1.0000
  C   C249      1.0  0.43823  0.20881  0.35842  1.0000
  H   H175      1.0  0.41091  0.18147  0.38966  1.0000
  H   H176      1.0  0.44733  0.20270  0.37504  1.0000
  H   H177      1.0  0.34354  0.16789  0.50793  1.0000
  N   N60       1.0  0.38271  0.19358  0.51884  1.0000
  H   H178      1.0  0.37578  0.19011  0.57652  1.0000
  H   H179      1.0  0.39738  0.20353  0.51909  1.0000
  C   C250      1.0  0.31750  0.14921  0.37715  1.0000
  H   H180      1.0  0.31289  0.13780  0.42135  1.0000
  C   C251      1.0  0.83319  0.16942  0.36919  1.0000
  C   C252      1.0  0.82464  0.17303  0.44657  1.0000
  C   C253      1.0  0.81082  0.18076  0.44161  1.0000
  C   C254      1.0  0.80584  0.18541  0.35599  1.0000
  C   C255      1.0  0.79241  0.19360  0.34495  1.0000
  C   C256      1.0  0.79998  0.21454  0.36693  1.0000
  C   C257      1.0  0.78743  0.22349  0.35845  1.0000
  H   H181      1.0  0.81477  0.22351  0.38968  1.0000
  H   H182      1.0  0.79354  0.23870  0.37508  1.0000
  H   H183      1.0  0.82837  0.16974  0.50794  1.0000
  N   N61       1.0  0.80268  0.18322  0.51886  1.0000
  H   H184      1.0  0.80611  0.17971  0.57652  1.0000
  H   H185      1.0  0.79268  0.18788  0.51908  1.0000
  C   C258      1.0  0.84703  0.16236  0.37716  1.0000
  H   H186      1.0  0.85844  0.16916  0.42134  1.0000
  C   C259      1.0  0.18590  0.20803  0.39748  1.0000
  C   C260      1.0  0.17812  0.22160  0.39018  1.0000
  H   H187      1.0  0.18877  0.20442  0.45987  1.0000
  H   H188      1.0  0.17563  0.22760  0.44722  1.0000
  C   C261      1.0  0.21497  0.15968  0.35378  1.0000
  C   C262      1.0  0.19394  0.15250  0.37323  1.0000
  C   C263      1.0  0.18488  0.16509  0.36294  1.0000
  H   H189      1.0  0.18482  0.13760  0.39455  1.0000
  N   N62       1.0  0.16443  0.15682  0.38116  1.0000
  H   H190      1.0  0.15735  0.16459  0.37305  1.0000
  H   H191      1.0  0.15607  0.14260  0.40110  1.0000
  C   C264      1.0  0.22291  0.14645  0.36434  1.0000
  H   H192      1.0  0.21443  0.13322  0.39673  1.0000
  C   C265      1.0  0.78822  0.97193  0.39747  1.0000
  C   C266      1.0  0.77465  0.95058  0.39016  1.0000
  H   H193      1.0  0.79184  0.97840  0.45987  1.0000
  H   H194      1.0  0.76867  0.94209  0.44720  1.0000
  C   C267      1.0  0.83656  0.04936  0.35381  1.0000
  C   C268      1.0  0.84374  0.03551  0.37324  1.0000
  C   C269      1.0  0.83116  0.01387  0.36295  1.0000
  H   H195      1.0  0.85864  0.04130  0.39459  1.0000
  N   N63       1.0  0.83943  0.00168  0.38118  1.0000
  H   H196      1.0  0.83166  0.98682  0.37313  1.0000
  H   H197      1.0  0.85365  0.00754  0.40119  1.0000
  C   C270      1.0  0.84978  0.07052  0.36439  1.0000
  H   H198      1.0  0.86300  0.07527  0.39685  1.0000
  C   C271      1.0  0.94688  0.78126  0.35379  1.0000
  C   C272      1.0  0.96074  0.80229  0.37325  1.0000
  C   C273      1.0  0.98238  0.81134  0.36295  1.0000
  H   H199      1.0  0.95495  0.81140  0.39458  1.0000
  N   N64       1.0  0.99457  0.83180  0.38118  1.0000
  H   H200      1.0  0.98870  0.84016  0.40112  1.0000
  C   C274      1.0  0.92572  0.77332  0.36437  1.0000
  H   H201      1.0  0.92097  0.78179  0.39681  1.0000
  C   C275      1.0  0.81306  0.78553  0.39747  1.0000
  C   C276      1.0  0.82085  0.77196  0.39016  1.0000
  H   H202      1.0  0.81021  0.78914  0.45987  1.0000
  H   H203      1.0  0.82335  0.76598  0.44721  1.0000
  C   C277      1.0  0.78396  0.83385  0.35380  1.0000
  C   C278      1.0  0.80500  0.84104  0.37324  1.0000
  C   C279      1.0  0.81405  0.82846  0.36295  1.0000
  H   H204      1.0  0.81410  0.85594  0.39459  1.0000
  N   N65       1.0  0.83451  0.83673  0.38118  1.0000
  H   H205      1.0  0.84160  0.82896  0.37314  1.0000
  H   H206      1.0  0.84286  0.85094  0.40119  1.0000
  C   C280      1.0  0.77602  0.84707  0.36439  1.0000
  H   H207      1.0  0.78449  0.86030  0.39685  1.0000
  C   C281      1.0  0.21071  0.02159  0.39748  1.0000
  C   C282      1.0  0.22428  0.04295  0.39018  1.0000
  H   H208      1.0  0.20710  0.01512  0.45987  1.0000
  H   H209      1.0  0.23027  0.05143  0.44722  1.0000
  C   C283      1.0  0.16236  0.94417  0.35375  1.0000
  C   C284      1.0  0.15518  0.95803  0.37320  1.0000
  C   C285      1.0  0.16776  0.97967  0.36292  1.0000
  H   H210      1.0  0.14028  0.95223  0.39451  1.0000
  N   N66       1.0  0.15949  0.99185  0.38115  1.0000
  H   H211      1.0  0.16726  0.00671  0.37305  1.0000
  H   H212      1.0  0.14527  0.98599  0.40108  1.0000
  C   C286      1.0  0.14914  0.92301  0.36429  1.0000
  H   H213      1.0  0.13590  0.91825  0.39665  1.0000
  C   C287      1.0  0.97464  0.18317  0.39747  1.0000
  C   C288      1.0  0.95329  0.17539  0.39017  1.0000
  H   H214      1.0  0.98111  0.18602  0.45986  1.0000
  H   H215      1.0  0.94481  0.17289  0.44722  1.0000
  H   H216      1.0  0.98952  0.15462  0.37312  1.0000
  C   C289      1.0  0.22693  0.62951  0.38750  1.0000
  C   C290      1.0  0.23135  0.65007  0.38185  1.0000
  H   H217      1.0  0.22929  0.62433  0.44724  1.0000
  H   H218      1.0  0.23694  0.65917  0.43749  1.0000
  C   C291      1.0  0.22459  0.56162  0.33100  1.0000
  C   C292      1.0  0.20746  0.56220  0.36760  1.0000
  C   C293      1.0  0.20541  0.58003  0.36187  1.0000
  H   H219      1.0  0.19628  0.54943  0.40002  1.0000
  N   N67       1.0  0.18848  0.57948  0.39823  1.0000
  H   H220      1.0  0.18619  0.59113  0.39414  1.0000
  H   H221      1.0  0.17783  0.56715  0.42775  1.0000
  C   C294      1.0  0.22637  0.54404  0.33919  1.0000
  H   H222      1.0  0.21385  0.53032  0.34789  1.0000
  C   C295      1.0  0.36672  0.59148  0.38757  1.0000
  C   C296      1.0  0.34616  0.57536  0.38193  1.0000
  H   H223      1.0  0.37191  0.59901  0.44732  1.0000
  H   H224      1.0  0.33707  0.57178  0.43765  1.0000
  C   C297      1.0  0.43460  0.65705  0.33095  1.0000
  C   C298      1.0  0.43401  0.63933  0.36756  1.0000
  C   C299      1.0  0.41618  0.61946  0.36182  1.0000
  H   H225      1.0  0.44678  0.64092  0.39997  1.0000
  N   N68       1.0  0.41673  0.60308  0.39819  1.0000
  H   H226      1.0  0.40507  0.58914  0.39413  1.0000
  H   H227      1.0  0.42905  0.60475  0.42779  1.0000
  C   C300      1.0  0.45219  0.67641  0.33917  1.0000
  H   H228      1.0  0.46591  0.67760  0.34773  1.0000
  C   C301      1.0  0.40475  0.76931  0.38752  1.0000
  C   C302      1.0  0.42088  0.76488  0.38187  1.0000
  H   H229      1.0  0.39721  0.76694  0.44725  1.0000
  H   H230      1.0  0.42440  0.75930  0.43751  1.0000
  C   C303      1.0  0.33919  0.77163  0.33100  1.0000
  C   C304      1.0  0.35691  0.78877  0.36762  1.0000
  C   C305      1.0  0.37678  0.79081  0.36190  1.0000
  H   H231      1.0  0.35531  0.79994  0.40006  1.0000
  N   N69       1.0  0.39316  0.80774  0.39829  1.0000
  H   H232      1.0  0.40710  0.81004  0.39419  1.0000
  H   H233      1.0  0.39148  0.81840  0.42781  1.0000
  C   C306      1.0  0.31983  0.76985  0.33919  1.0000
  H   H234      1.0  0.31864  0.78238  0.34791  1.0000
  C   C307      1.0  0.77202  0.36402  0.38758  1.0000
  C   C308      1.0  0.76758  0.34347  0.38193  1.0000
  H   H235      1.0  0.76968  0.36921  0.44733  1.0000
  H   H236      1.0  0.76207  0.33437  0.43765  1.0000
  C   C309      1.0  0.77432  0.43190  0.33095  1.0000
  C   C310      1.0  0.79146  0.43131  0.36756  1.0000
  C   C311      1.0  0.79350  0.41348  0.36182  1.0000
  H   H237      1.0  0.80264  0.44409  0.39997  1.0000
  N   N70       1.0  0.81042  0.41403  0.39819  1.0000
  H   H238      1.0  0.81271  0.40237  0.39413  1.0000
  H   H239      1.0  0.82107  0.42635  0.42779  1.0000
  C   C312      1.0  0.77255  0.44949  0.33917  1.0000
  H   H240      1.0  0.78508  0.46321  0.34772  1.0000
  C   C313      1.0  0.63222  0.40205  0.38751  1.0000
  C   C314      1.0  0.65277  0.41818  0.38186  1.0000
  H   H241      1.0  0.62704  0.39451  0.44725  1.0000
  H   H242      1.0  0.66188  0.42170  0.43750  1.0000
  C   C315      1.0  0.56432  0.33649  0.33100  1.0000
  C   C316      1.0  0.56491  0.35422  0.36762  1.0000
  C   C317      1.0  0.58274  0.37409  0.36189  1.0000
  H   H243      1.0  0.55214  0.35262  0.40005  1.0000
  N   N71       1.0  0.58219  0.39046  0.39827  1.0000
  H   H244      1.0  0.59384  0.40441  0.39417  1.0000
  H   H245      1.0  0.56986  0.38879  0.42779  1.0000
  C   C318      1.0  0.54674  0.31713  0.33920  1.0000
  H   H246      1.0  0.53302  0.31594  0.34790  1.0000
  C   C319      1.0  0.59418  0.22423  0.38756  1.0000
  C   C320      1.0  0.57806  0.22867  0.38192  1.0000
  H   H247      1.0  0.60171  0.22657  0.44731  1.0000
  H   H248      1.0  0.57449  0.23418  0.43764  1.0000
  C   C321      1.0  0.65975  0.22192  0.33094  1.0000
  C   C322      1.0  0.64203  0.20479  0.36755  1.0000
  C   C323      1.0  0.62216  0.20275  0.36180  1.0000
  H   H249      1.0  0.64362  0.19360  0.39995  1.0000
  N   N72       1.0  0.60578  0.18582  0.39816  1.0000
  H   H250      1.0  0.59184  0.18354  0.39410  1.0000
  H   H251      1.0  0.60745  0.17517  0.42777  1.0000
  C   C324      1.0  0.67911  0.22369  0.33915  1.0000
  H   H252      1.0  0.68029  0.21115  0.34771  1.0000
