data_image0
_chemical_formula_structural       C2NOCHC2NOCHC2NOCHC4H2C4H2C4H2C4H2C4H2C4H2CNCNCNC18H12CNCNCNC18H12CNCNCNC18H12CNCNCNC18H12CNCNCNC18H12CNCNCNC18H12C4H2C4H2C4H2C2NOCHC2NOCHC2NOCHC2NOCHC2NOCHC2NOCH
_chemical_formula_sum              "C189 N27 O9 H99"
_cell_length_a       60.3605
_cell_length_b       60.3605
_cell_length_c       14.9985
_cell_angle_alpha    90
_cell_angle_beta     90
_cell_angle_gamma    120

_space_group_name_H-M_alt    "P 1"
_space_group_IT_number       1

loop_
  _space_group_symop_operation_xyz
  'x, y, z'

loop_
  _atom_site_type_symbol
  _atom_site_label
  _atom_site_symmetry_multiplicity
  _atom_site_fract_x
  _atom_site_fract_y
  _atom_site_fract_z
  _atom_site_occupancy
  C   C1        1.0  0.98669  0.49334  0.25392  1.0000
  C   C2        1.0  0.01332  0.50669  0.25455  1.0000
  N   N1        1.0  0.02100  0.51053  0.16992  1.0000
  O   O1        1.0  0.97721  0.48859  0.16936  1.0000
  C   C3        1.0  0.99946  0.49974  0.12120  1.0000
  H   H1        1.0  0.99965  0.49984  0.05312  1.0000
  C   C4        1.0  0.50677  0.49336  0.25391  1.0000
  C   C5        1.0  0.49343  0.50665  0.25455  1.0000
  N   N2        1.0  0.48959  0.51048  0.16993  1.0000
  O   O2        1.0  0.51153  0.48863  0.16934  1.0000
  C   C6        1.0  0.50038  0.49974  0.12120  1.0000
  H   H2        1.0  0.50029  0.49983  0.05312  1.0000
  C   C7        1.0  0.50676  0.01344  0.25392  1.0000
  C   C8        1.0  0.49347  0.98682  0.25455  1.0000
  N   N3        1.0  0.48963  0.97913  0.16993  1.0000
  O   O3        1.0  0.51149  0.02293  0.16934  1.0000
  C   C9        1.0  0.50038  0.00068  0.12120  1.0000
  H   H3        1.0  0.50029  0.00048  0.05312  1.0000
  C   C10       1.0  0.28350  0.51958  0.33109  1.0000
  C   C11       1.0  0.23609  0.51955  0.33111  1.0000
  C   C12       1.0  0.24798  0.51932  0.25008  1.0000
  C   C13       1.0  0.27141  0.51942  0.25000  1.0000
  H   H4        1.0  0.28109  0.52268  0.19097  1.0000
  H   H5        1.0  0.24149  0.52244  0.19096  1.0000
  C   C14       1.0  0.48050  0.76395  0.33141  1.0000
  C   C15       1.0  0.48057  0.71653  0.33159  1.0000
  C   C16       1.0  0.48087  0.72868  0.25048  1.0000
  C   C17       1.0  0.48061  0.75194  0.25042  1.0000
  H   H6        1.0  0.47740  0.75834  0.19126  1.0000
  H   H7        1.0  0.47769  0.71905  0.19139  1.0000
  C   C18       1.0  0.23617  0.71660  0.33116  1.0000
  C   C19       1.0  0.28356  0.76405  0.33112  1.0000
  C   C20       1.0  0.27144  0.75214  0.25011  1.0000
  C   C21       1.0  0.24811  0.72871  0.25008  1.0000
  H   H8        1.0  0.24170  0.71903  0.19105  1.0000
  H   H9        1.0  0.28105  0.75863  0.19098  1.0000
  C   C22       1.0  0.71659  0.48045  0.33143  1.0000
  C   C23       1.0  0.76408  0.48053  0.33161  1.0000
  C   C24       1.0  0.75222  0.48082  0.25050  1.0000
  C   C25       1.0  0.72871  0.48056  0.25044  1.0000
  H   H10       1.0  0.71909  0.47734  0.19128  1.0000
  H   H11       1.0  0.75867  0.47763  0.19141  1.0000
  C   C26       1.0  0.51963  0.23616  0.33109  1.0000
  C   C27       1.0  0.51959  0.28354  0.33113  1.0000
  C   C28       1.0  0.51938  0.27143  0.25010  1.0000
  C   C29       1.0  0.51948  0.24810  0.25002  1.0000
  H   H12       1.0  0.52274  0.24168  0.19099  1.0000
  H   H13       1.0  0.52250  0.28104  0.19098  1.0000
  C   C30       1.0  0.76395  0.28351  0.33152  1.0000
  C   C31       1.0  0.71654  0.23606  0.33159  1.0000
  C   C32       1.0  0.72870  0.24793  0.25050  1.0000
  C   C33       1.0  0.75196  0.27144  0.25046  1.0000
  H   H14       1.0  0.75837  0.28107  0.19133  1.0000
  H   H15       1.0  0.71906  0.24149  0.19140  1.0000
  C   C34       1.0  0.17582  0.60781  0.33480  1.0000
  N   N4        1.0  0.14982  0.59428  0.33438  1.0000
  C   C35       1.0  0.13628  0.56819  0.33411  1.0000
  N   N5        1.0  0.14982  0.55564  0.33423  1.0000
  C   C36       1.0  0.17581  0.56809  0.33464  1.0000
  N   N6        1.0  0.18795  0.59401  0.33487  1.0000
  C   C37       1.0  0.10897  0.55454  0.33379  1.0000
  C   C38       1.0  0.09489  0.56759  0.33375  1.0000
  C   C39       1.0  0.06798  0.55418  0.33391  1.0000
  C   C40       1.0  0.05433  0.52721  0.33407  1.0000
  C   C41       1.0  0.06799  0.51390  0.33389  1.0000
  C   C42       1.0  0.09490  0.52740  0.33373  1.0000
  C   C43       1.0  0.19034  0.63511  0.33467  1.0000
  C   C44       1.0  0.17862  0.65045  0.33413  1.0000
  C   C45       1.0  0.19337  0.67741  0.33326  1.0000
  C   C46       1.0  0.22032  0.68972  0.33281  1.0000
  C   C47       1.0  0.23219  0.67466  0.33375  1.0000
  C   C48       1.0  0.21746  0.64789  0.33470  1.0000
  C   C49       1.0  0.19032  0.55530  0.33441  1.0000
  C   C50       1.0  0.21744  0.56962  0.33447  1.0000
  C   C51       1.0  0.23215  0.55756  0.33362  1.0000
  C   C52       1.0  0.22027  0.53064  0.33276  1.0000
  C   C53       1.0  0.19332  0.51602  0.33298  1.0000
  C   C54       1.0  0.17858  0.52824  0.33380  1.0000
  H   H16       1.0  0.18437  0.68796  0.33259  1.0000
  H   H17       1.0  0.15912  0.64213  0.33409  1.0000
  H   H18       1.0  0.25173  0.68308  0.33358  1.0000
  H   H19       1.0  0.22705  0.63792  0.33513  1.0000
  H   H20       1.0  0.22704  0.58919  0.33487  1.0000
  H   H21       1.0  0.25169  0.56868  0.33345  1.0000
  H   H22       1.0  0.15908  0.51707  0.33370  1.0000
  H   H23       1.0  0.18430  0.49646  0.33229  1.0000
  H   H24       1.0  0.10406  0.51701  0.33375  1.0000
  H   H25       1.0  0.05846  0.49432  0.33401  1.0000
  H   H26       1.0  0.05845  0.56423  0.33404  1.0000
  H   H27       1.0  0.10406  0.58715  0.33377  1.0000
  C   C55       1.0  0.39229  0.56800  0.33472  1.0000
  N   N7        1.0  0.40582  0.55554  0.33434  1.0000
  C   C56       1.0  0.43192  0.56808  0.33401  1.0000
  N   N8        1.0  0.44447  0.59417  0.33403  1.0000
  C   C57       1.0  0.43202  0.60772  0.33438  1.0000
  N   N9        1.0  0.40609  0.59393  0.33468  1.0000
  C   C58       1.0  0.44557  0.55443  0.33375  1.0000
  C   C59       1.0  0.43252  0.52730  0.33374  1.0000
  C   C60       1.0  0.44594  0.51381  0.33392  1.0000
  C   C61       1.0  0.47290  0.52712  0.33409  1.0000
  C   C62       1.0  0.48621  0.55409  0.33388  1.0000
  C   C63       1.0  0.47271  0.56750  0.33370  1.0000
  C   C64       1.0  0.36500  0.55524  0.33466  1.0000
  C   C65       1.0  0.34966  0.52817  0.33411  1.0000
  C   C66       1.0  0.32269  0.51597  0.33326  1.0000
  C   C67       1.0  0.31039  0.53061  0.33283  1.0000
  C   C68       1.0  0.32545  0.55753  0.33378  1.0000
  C   C69       1.0  0.35222  0.56957  0.33472  1.0000
  C   C70       1.0  0.44481  0.63501  0.33413  1.0000
  C   C71       1.0  0.43050  0.64781  0.33422  1.0000
  C   C72       1.0  0.44256  0.67458  0.33354  1.0000
  C   C73       1.0  0.46948  0.68963  0.33275  1.0000
  C   C74       1.0  0.48410  0.67730  0.33288  1.0000
  C   C75       1.0  0.47188  0.65033  0.33356  1.0000
  H   H28       1.0  0.31214  0.49642  0.33258  1.0000
  H   H29       1.0  0.35797  0.51698  0.33406  1.0000
  H   H30       1.0  0.31704  0.56867  0.33360  1.0000
  H   H31       1.0  0.36220  0.58914  0.33513  1.0000
  H   H32       1.0  0.41093  0.63785  0.33461  1.0000
  H   H33       1.0  0.43144  0.68301  0.33348  1.0000
  H   H34       1.0  0.48305  0.64201  0.33346  1.0000
  H   H35       1.0  0.50366  0.68783  0.33231  1.0000
  H   H36       1.0  0.48310  0.58705  0.33370  1.0000
  H   H37       1.0  0.50580  0.56415  0.33401  1.0000
  H   H38       1.0  0.43588  0.49422  0.33407  1.0000
  H   H39       1.0  0.41296  0.51690  0.33376  1.0000
  C   C76       1.0  0.43209  0.82432  0.33462  1.0000
  N   N10       1.0  0.44455  0.85032  0.33425  1.0000
  C   C77       1.0  0.43201  0.86386  0.33405  1.0000
  N   N11       1.0  0.40592  0.85033  0.33419  1.0000
  C   C78       1.0  0.39237  0.82433  0.33457  1.0000
  N   N12       1.0  0.40616  0.81220  0.33472  1.0000
  C   C79       1.0  0.44567  0.89117  0.33377  1.0000
  C   C80       1.0  0.47280  0.90524  0.33374  1.0000
  C   C81       1.0  0.48629  0.93215  0.33391  1.0000
  C   C82       1.0  0.47298  0.94581  0.33409  1.0000
  C   C83       1.0  0.44602  0.93215  0.33391  1.0000
  C   C84       1.0  0.43260  0.90524  0.33373  1.0000
  C   C85       1.0  0.44486  0.80980  0.33446  1.0000
  C   C86       1.0  0.47192  0.82152  0.33400  1.0000
  C   C87       1.0  0.48412  0.80675  0.33321  1.0000
  C   C88       1.0  0.46948  0.77980  0.33271  1.0000
  C   C89       1.0  0.44256  0.76795  0.33357  1.0000
  C   C90       1.0  0.43052  0.78268  0.33443  1.0000
  C   C91       1.0  0.36508  0.80982  0.33438  1.0000
  C   C92       1.0  0.35228  0.78271  0.33443  1.0000
  C   C93       1.0  0.32551  0.76799  0.33360  1.0000
  C   C94       1.0  0.31046  0.77987  0.33276  1.0000
  C   C95       1.0  0.32279  0.80682  0.33299  1.0000
  C   C96       1.0  0.34976  0.82156  0.33379  1.0000
  H   H40       1.0  0.50368  0.81575  0.33269  1.0000
  H   H41       1.0  0.48311  0.84101  0.33403  1.0000
  H   H42       1.0  0.43142  0.74840  0.33343  1.0000
  H   H43       1.0  0.41095  0.77309  0.33482  1.0000
  H   H44       1.0  0.36225  0.77310  0.33483  1.0000
  H   H45       1.0  0.31709  0.74845  0.33343  1.0000
  H   H46       1.0  0.35808  0.84106  0.33369  1.0000
  H   H47       1.0  0.31225  0.81584  0.33231  1.0000
  H   H48       1.0  0.41305  0.89608  0.33374  1.0000
  H   H49       1.0  0.43596  0.94168  0.33403  1.0000
  H   H50       1.0  0.50588  0.94169  0.33404  1.0000
  H   H51       1.0  0.48319  0.89608  0.33375  1.0000
  C   C97       1.0  0.82438  0.39230  0.33442  1.0000
  N   N13       1.0  0.85037  0.40583  0.33403  1.0000
  C   C98       1.0  0.86392  0.43192  0.33376  1.0000
  N   N14       1.0  0.85038  0.44448  0.33386  1.0000
  C   C99       1.0  0.82439  0.43203  0.33423  1.0000
  N   N15       1.0  0.81226  0.40611  0.33447  1.0000
  C   C100      1.0  0.89123  0.44558  0.33350  1.0000
  C   C101      1.0  0.90530  0.43252  0.33349  1.0000
  C   C102      1.0  0.93222  0.44594  0.33370  1.0000
  C   C103      1.0  0.94586  0.47290  0.33391  1.0000
  C   C104      1.0  0.93221  0.48621  0.33367  1.0000
  C   C105      1.0  0.90530  0.47271  0.33346  1.0000
  C   C106      1.0  0.80984  0.36501  0.33435  1.0000
  C   C107      1.0  0.82155  0.34965  0.33393  1.0000
  C   C108      1.0  0.80677  0.32269  0.33321  1.0000
  C   C109      1.0  0.77982  0.31040  0.33274  1.0000
  C   C110      1.0  0.76798  0.32547  0.33359  1.0000
  C   C111      1.0  0.78273  0.35224  0.33439  1.0000
  C   C112      1.0  0.80988  0.44481  0.33407  1.0000
  C   C113      1.0  0.78276  0.43048  0.33421  1.0000
  C   C114      1.0  0.76804  0.44253  0.33357  1.0000
  C   C115      1.0  0.77991  0.46946  0.33277  1.0000
  C   C116      1.0  0.80686  0.48409  0.33289  1.0000
  C   C117      1.0  0.82161  0.47187  0.33352  1.0000
  H   H52       1.0  0.81577  0.31213  0.33271  1.0000
  H   H53       1.0  0.84105  0.35796  0.33393  1.0000
  H   H54       1.0  0.74844  0.31707  0.33349  1.0000
  H   H55       1.0  0.77314  0.36223  0.33476  1.0000
  H   H56       1.0  0.77316  0.41092  0.33459  1.0000
  H   H57       1.0  0.74850  0.43141  0.33352  1.0000
  H   H58       1.0  0.84111  0.48305  0.33340  1.0000
  H   H59       1.0  0.81587  0.50364  0.33232  1.0000
  H   H60       1.0  0.89613  0.48311  0.33345  1.0000
  H   H61       1.0  0.94173  0.50580  0.33379  1.0000
  H   H62       1.0  0.94175  0.43588  0.33383  1.0000
  H   H63       1.0  0.89614  0.41297  0.33349  1.0000
  C   C118      1.0  0.60781  0.43207  0.33457  1.0000
  N   N16       1.0  0.59428  0.44454  0.33413  1.0000
  C   C119      1.0  0.56818  0.43199  0.33389  1.0000
  N   N17       1.0  0.55563  0.40590  0.33408  1.0000
  C   C120      1.0  0.56808  0.39236  0.33453  1.0000
  N   N18       1.0  0.59401  0.40615  0.33471  1.0000
  C   C121      1.0  0.55453  0.44565  0.33357  1.0000
  C   C122      1.0  0.56759  0.47278  0.33351  1.0000
  C   C123      1.0  0.55418  0.48628  0.33369  1.0000
  C   C124      1.0  0.52721  0.47296  0.33389  1.0000
  C   C125      1.0  0.51390  0.44600  0.33368  1.0000
  C   C126      1.0  0.52740  0.43258  0.33350  1.0000
  C   C127      1.0  0.63510  0.44484  0.33445  1.0000
  C   C128      1.0  0.65045  0.47190  0.33399  1.0000
  C   C129      1.0  0.67741  0.48409  0.33322  1.0000
  C   C130      1.0  0.68971  0.46944  0.33273  1.0000
  C   C131      1.0  0.67464  0.44252  0.33359  1.0000
  C   C132      1.0  0.64787  0.43049  0.33444  1.0000
  C   C133      1.0  0.55530  0.36506  0.33437  1.0000
  C   C134      1.0  0.56963  0.35227  0.33446  1.0000
  C   C135      1.0  0.55759  0.32550  0.33365  1.0000
  C   C136      1.0  0.53066  0.31045  0.33279  1.0000
  C   C137      1.0  0.51603  0.32276  0.33299  1.0000
  C   C138      1.0  0.52824  0.34973  0.33377  1.0000
  H   H64       1.0  0.68797  0.50365  0.33269  1.0000
  H   H65       1.0  0.64215  0.48309  0.33401  1.0000
  H   H66       1.0  0.68304  0.43138  0.33345  1.0000
  H   H67       1.0  0.63789  0.41093  0.33482  1.0000
  H   H68       1.0  0.58920  0.36225  0.33487  1.0000
  H   H69       1.0  0.56871  0.31709  0.33349  1.0000
  H   H70       1.0  0.51706  0.35805  0.33365  1.0000
  H   H71       1.0  0.49648  0.31222  0.33229  1.0000
  H   H72       1.0  0.51700  0.41303  0.33351  1.0000
  H   H73       1.0  0.49431  0.43594  0.33379  1.0000
  H   H74       1.0  0.56423  0.50586  0.33381  1.0000
  H   H75       1.0  0.58715  0.48317  0.33353  1.0000
  C   C139      1.0  0.56802  0.17577  0.33467  1.0000
  N   N19       1.0  0.55555  0.14977  0.33422  1.0000
  C   C140      1.0  0.56810  0.13622  0.33385  1.0000
  N   N20       1.0  0.59419  0.14976  0.33391  1.0000
  C   C141      1.0  0.60774  0.17575  0.33433  1.0000
  N   N21       1.0  0.59394  0.18789  0.33466  1.0000
  C   C142      1.0  0.55445  0.10891  0.33354  1.0000
  C   C143      1.0  0.52732  0.09484  0.33351  1.0000
  C   C144      1.0  0.51382  0.06792  0.33370  1.0000
  C   C145      1.0  0.52714  0.05428  0.33389  1.0000
  C   C146      1.0  0.55411  0.06793  0.33365  1.0000
  C   C147      1.0  0.56752  0.09485  0.33347  1.0000
  C   C148      1.0  0.55526  0.19030  0.33465  1.0000
  C   C149      1.0  0.52820  0.17858  0.33411  1.0000
  C   C150      1.0  0.51600  0.19335  0.33326  1.0000
  C   C151      1.0  0.53065  0.22030  0.33285  1.0000
  C   C152      1.0  0.55757  0.23216  0.33380  1.0000
  C   C153      1.0  0.56960  0.21741  0.33473  1.0000
  C   C154      1.0  0.63503  0.19026  0.33411  1.0000
  C   C155      1.0  0.64782  0.21738  0.33420  1.0000
  C   C156      1.0  0.67459  0.23210  0.33353  1.0000
  C   C157      1.0  0.68965  0.22024  0.33274  1.0000
  C   C158      1.0  0.67733  0.19328  0.33289  1.0000
  C   C159      1.0  0.65036  0.17853  0.33354  1.0000
  H   H76       1.0  0.49645  0.18436  0.33258  1.0000
  H   H77       1.0  0.51701  0.15909  0.33403  1.0000
  H   H78       1.0  0.56871  0.25170  0.33363  1.0000
  H   H79       1.0  0.58917  0.22700  0.33513  1.0000
  H   H80       1.0  0.63785  0.22698  0.33459  1.0000
  H   H81       1.0  0.68301  0.25165  0.33347  1.0000
  H   H82       1.0  0.64204  0.15903  0.33345  1.0000
  H   H83       1.0  0.68787  0.18427  0.33232  1.0000
  H   H84       1.0  0.58707  0.10401  0.33347  1.0000
  H   H85       1.0  0.56417  0.05841  0.33377  1.0000
  H   H86       1.0  0.49424  0.05839  0.33383  1.0000
  H   H87       1.0  0.51692  0.10400  0.33353  1.0000
  C   C160      1.0  0.97282  0.48639  0.33456  1.0000
  C   C161      1.0  0.02737  0.51372  0.33475  1.0000
  C   C162      1.0  0.01358  0.50681  0.41587  1.0000
  C   C163      1.0  0.98657  0.49328  0.41581  1.0000
  H   H88       1.0  0.97705  0.48851  0.47543  1.0000
  H   H89       1.0  0.02308  0.51157  0.47555  1.0000
  C   C164      1.0  0.51373  0.48643  0.33455  1.0000
  C   C165      1.0  0.48639  0.51365  0.33475  1.0000
  C   C166      1.0  0.49331  0.50677  0.41588  1.0000
  C   C167      1.0  0.50683  0.49330  0.41579  1.0000
  H   H90       1.0  0.51161  0.48854  0.47542  1.0000
  H   H91       1.0  0.48855  0.51151  0.47556  1.0000
  C   C168      1.0  0.51368  0.02732  0.33455  1.0000
  C   C169      1.0  0.48646  0.97277  0.33475  1.0000
  C   C170      1.0  0.49334  0.98656  0.41588  1.0000
  C   C171      1.0  0.50681  0.01357  0.41579  1.0000
  H   H92       1.0  0.51157  0.02310  0.47542  1.0000
  H   H93       1.0  0.48859  0.97706  0.47556  1.0000
  C   C172      1.0  0.27060  0.51779  0.41165  1.0000
  C   C173      1.0  0.24777  0.51831  0.41101  1.0000
  N   N22       1.0  0.24283  0.52155  0.49507  1.0000
  O   O4        1.0  0.28040  0.52113  0.49565  1.0000
  C   C174      1.0  0.26154  0.52179  0.54407  1.0000
  H   H94       1.0  0.26336  0.52573  0.61075  1.0000
  C   C175      1.0  0.48229  0.75283  0.41193  1.0000
  C   C176      1.0  0.48163  0.72942  0.41135  1.0000
  N   N23       1.0  0.47861  0.72133  0.49547  1.0000
  O   O5        1.0  0.47914  0.75942  0.49598  1.0000
  C   C177      1.0  0.47814  0.73971  0.54425  1.0000
  H   H95       1.0  0.47517  0.73810  0.61153  1.0000
  C   C178      1.0  0.24730  0.72954  0.41167  1.0000
  C   C179      1.0  0.27064  0.75237  0.41103  1.0000
  N   N24       1.0  0.27881  0.75732  0.49508  1.0000
  O   O6        1.0  0.24084  0.71974  0.49568  1.0000
  C   C180      1.0  0.26035  0.73861  0.54409  1.0000
  H   H96       1.0  0.26247  0.73679  0.61077  1.0000
  C   C181      1.0  0.72950  0.48224  0.41195  1.0000
  C   C182      1.0  0.75225  0.48159  0.41137  1.0000
  N   N25       1.0  0.75732  0.47858  0.49549  1.0000
  O   O7        1.0  0.71976  0.47910  0.49599  1.0000
  C   C183      1.0  0.73846  0.47810  0.54426  1.0000
  H   H97       1.0  0.73712  0.47514  0.61155  1.0000
  C   C184      1.0  0.51783  0.24727  0.41167  1.0000
  C   C185      1.0  0.51835  0.27062  0.41103  1.0000
  N   N26       1.0  0.52158  0.27879  0.49509  1.0000
  O   O8        1.0  0.52117  0.24081  0.49567  1.0000
  C   C186      1.0  0.52183  0.26033  0.54409  1.0000
  H   H98       1.0  0.52576  0.26244  0.61077  1.0000
  C   C187      1.0  0.75285  0.27061  0.41204  1.0000
  C   C188      1.0  0.72943  0.24786  0.41139  1.0000
  N   N27       1.0  0.72134  0.24279  0.49550  1.0000
  O   O9        1.0  0.75943  0.28034  0.49609  1.0000
  C   C189      1.0  0.73972  0.26163  0.54431  1.0000
  H   H99       1.0  0.73810  0.26297  0.61161  1.0000
