data_image0
_chemical_formula_structural       C3NC3NC5NC5NC20H18C4H4C3HNO2NC3HNO2NC8H8C3HNO2NC3HNO2N
_chemical_formula_sum              "C60 N12 H34 O8"
_cell_length_a       25.8222
_cell_length_b       25.822
_cell_length_c       14.6854
_cell_angle_alpha    90
_cell_angle_beta     90
_cell_angle_gamma    90.0371

_space_group_name_H-M_alt    "P 1"
_space_group_IT_number       1

loop_
  _space_group_symop_operation_xyz
  'x, y, z'

loop_
  _atom_site_type_symbol
  _atom_site_label
  _atom_site_symmetry_multiplicity
  _atom_site_fract_x
  _atom_site_fract_y
  _atom_site_fract_z
  _atom_site_occupancy
  C   C1        1.0  0.91571  0.87406  0.34092  1.0000
  C   C2        1.0  0.87706  0.91103  0.34121  1.0000
  C   C3        1.0  0.90005  0.96005  0.34251  1.0000
  N   N1        1.0  0.95186  0.95061  0.34518  1.0000
  C   C4        1.0  0.96359  0.89925  0.34357  1.0000
  C   C5        1.0  0.01266  0.87375  0.34273  1.0000
  C   C6        1.0  0.06110  0.90029  0.34355  1.0000
  N   N2        1.0  0.07028  0.95199  0.34561  1.0000
  C   C7        1.0  0.12155  0.96336  0.34393  1.0000
  C   C8        1.0  0.14693  0.91564  0.34088  1.0000
  C   C9        1.0  0.10991  0.87700  0.34151  1.0000
  C   C10       1.0  0.14585  0.01293  0.34300  1.0000
  C   C11       1.0  0.11813  0.06083  0.34340  1.0000
  N   N3        1.0  0.06633  0.07031  0.34561  1.0000
  C   C12       1.0  0.05464  0.12166  0.34258  1.0000
  C   C13       1.0  0.10254  0.14680  0.33960  1.0000
  C   C14       1.0  0.14117  0.10981  0.34091  1.0000
  C   C15       1.0  0.00558  0.14716  0.34080  1.0000
  C   C16       1.0  0.95712  0.12060  0.34161  1.0000
  N   N4        1.0  0.94792  0.06889  0.34343  1.0000
  C   C17       1.0  0.89664  0.05751  0.34192  1.0000
  C   C18       1.0  0.87127  0.10522  0.33902  1.0000
  C   C19       1.0  0.90829  0.14386  0.33983  1.0000
  C   C20       1.0  0.87231  0.00795  0.34103  1.0000
  C   C21       1.0  0.81671  0.00616  0.33317  1.0000
  C   C22       1.0  0.70578  0.99885  0.31643  1.0000
  C   C23       1.0  0.73900  0.98737  0.24227  1.0000
  C   C24       1.0  0.79326  0.99133  0.25015  1.0000
  C   C25       1.0  0.00466  0.20277  0.33276  1.0000
  C   C26       1.0  0.99792  0.31371  0.31618  1.0000
  C   C27       1.0  0.98675  0.28060  0.24171  1.0000
  C   C28       1.0  0.99044  0.22632  0.24952  1.0000
  C   C29       1.0  0.20136  0.01462  0.33385  1.0000
  C   C30       1.0  0.22390  0.02768  0.24925  1.0000
  C   C31       1.0  0.27808  0.02992  0.23871  1.0000
  C   C32       1.0  0.31227  0.01869  0.31176  1.0000
  C   C33       1.0  0.01356  0.81822  0.33349  1.0000
  C   C34       1.0  0.02631  0.79562  0.24880  1.0000
  C   C35       1.0  0.01722  0.70729  0.31148  1.0000
  C   C36       1.0  0.02831  0.74145  0.23830  1.0000
  H   H1        1.0  0.03819  0.72714  0.17560  1.0000
  H   H2        1.0  0.03472  0.81862  0.19395  1.0000
  H   H3        1.0  0.90908  0.83506  0.33869  1.0000
  H   H4        1.0  0.83840  0.90263  0.33968  1.0000
  H   H5        1.0  0.97759  0.97749  0.34644  1.0000
  H   H6        1.0  0.04060  0.04344  0.34744  1.0000
  H   H7        1.0  0.11801  0.83829  0.33959  1.0000
  H   H8        1.0  0.18593  0.90921  0.33813  1.0000
  H   H9        1.0  0.20087  0.03607  0.19445  1.0000
  H   H10       1.0  0.29235  0.03998  0.17610  1.0000
  H   H11       1.0  0.17985  0.11814  0.33908  1.0000
  H   H12       1.0  0.10919  0.18576  0.33606  1.0000
  H   H13       1.0  0.83227  0.11166  0.33643  1.0000
  H   H14       1.0  0.90014  0.18257  0.33823  1.0000
  H   H15       1.0  0.98146  0.20392  0.19420  1.0000
  H   H16       1.0  0.97519  0.29576  0.18054  1.0000
  H   H17       1.0  0.81573  0.98228  0.19497  1.0000
  H   H18       1.0  0.72392  0.97546  0.18123  1.0000
  C   C37       1.0  0.99056  0.36717  0.30672  1.0000
  C   C38       1.0  0.36595  0.02212  0.29737  1.0000
  C   C39       1.0  0.02050  0.65361  0.29711  1.0000
  C   C40       1.0  0.65231  0.99150  0.30683  1.0000
  H   H19       1.0  0.96468  0.37892  0.26090  1.0000
  H   H20       1.0  0.37761  0.03531  0.23723  1.0000
  H   H21       1.0  0.03324  0.64195  0.23661  1.0000
  H   H22       1.0  0.64055  0.96565  0.26094  1.0000
  C   C41       1.0  0.01221  0.45419  0.34834  1.0000
  C   C42       1.0  0.01279  0.48300  0.26595  1.0000
  C   C43       1.0  0.01129  0.53790  0.26897  1.0000
  H   H23       1.0  0.01092  0.55751  0.20857  1.0000
  N   N5        1.0  0.01629  0.45663  0.18167  1.0000
  O   O1        1.0  0.05697  0.46849  0.13954  1.0000
  O   O2        1.0  0.97805  0.46629  0.13148  1.0000
  N   N6        1.0  0.01495  0.40216  0.35263  1.0000
  C   C44       1.0  0.56529  0.01318  0.34841  1.0000
  C   C45       1.0  0.53649  0.01385  0.26601  1.0000
  C   C46       1.0  0.48159  0.01242  0.26903  1.0000
  H   H24       1.0  0.46195  0.01211  0.20864  1.0000
  N   N7        1.0  0.56287  0.01739  0.18174  1.0000
  O   O3        1.0  0.55109  0.05810  0.13970  1.0000
  O   O4        1.0  0.55311  0.97920  0.13148  1.0000
  N   N8        1.0  0.61733  0.01587  0.35272  1.0000
  C   C47       1.0  0.78377  0.01826  0.40725  1.0000
  C   C48       1.0  0.72931  0.01494  0.39892  1.0000
  C   C49       1.0  0.01653  0.23560  0.40712  1.0000
  C   C50       1.0  0.01346  0.29008  0.39888  1.0000
  C   C51       1.0  0.28947  0.00494  0.39623  1.0000
  C   C52       1.0  0.23506  0.00309  0.40715  1.0000
  C   C53       1.0  0.00216  0.78457  0.40695  1.0000
  C   C54       1.0  0.00379  0.73015  0.39606  1.0000
  H   H25       1.0  0.99548  0.70729  0.45106  1.0000
  H   H26       1.0  0.99273  0.79960  0.46925  1.0000
  H   H27       1.0  0.22008  0.99330  0.46933  1.0000
  H   H28       1.0  0.31236  0.99648  0.45113  1.0000
  H   H29       1.0  0.02671  0.21990  0.46854  1.0000
  H   H30       1.0  0.02126  0.31234  0.45486  1.0000
  H   H31       1.0  0.70698  0.02299  0.45470  1.0000
  H   H32       1.0  0.79938  0.02897  0.46848  1.0000
  C   C55       1.0  0.01056  0.56584  0.35202  1.0000
  C   C56       1.0  0.01050  0.53691  0.43414  1.0000
  C   C57       1.0  0.01175  0.48190  0.43128  1.0000
  H   H33       1.0  0.01206  0.46176  0.49136  1.0000
  N   N9        1.0  0.00982  0.56390  0.51809  1.0000
  O   O5        1.0  0.04936  0.55398  0.56486  1.0000
  O   O6        1.0  0.97036  0.55261  0.56409  1.0000
  N   N10       1.0  0.00936  0.61814  0.35602  1.0000
  C   C58       1.0  0.45366  0.01166  0.35208  1.0000
  C   C59       1.0  0.48258  0.01147  0.43420  1.0000
  C   C60       1.0  0.53759  0.01266  0.43134  1.0000
  H   H34       1.0  0.55773  0.01289  0.49143  1.0000
  N   N11       1.0  0.45558  0.01072  0.51814  1.0000
  O   O7        1.0  0.46557  0.05020  0.56506  1.0000
  O   O8        1.0  0.46677  0.97119  0.56401  1.0000
  N   N12       1.0  0.40138  0.01047  0.35605  1.0000
