data_image0
_chemical_formula_structural       C4NH2NC5NHCHNHC2HC2H2CHCHCNC2H2NH2CHCH4C2HNC2HN2C2NH2C3H3NCHC2HCHNC6H2C2HC6H2C3H2C3NC2NHNCNCHCHC2H2C6NC2NHCHNC2H2NC2H2C6H3C3H3C3H4N2CHCNHNC2H
_chemical_formula_sum              "C90 N24 H60"
_cell_length_a       35.0824
_cell_length_b       35.0824
_cell_length_c       14.5292
_cell_angle_alpha    90
_cell_angle_beta     90
_cell_angle_gamma    120

_space_group_name_H-M_alt    "P 1"
_space_group_IT_number       1

loop_
  _space_group_symop_operation_xyz
  'x, y, z'

loop_
  _atom_site_type_symbol
  _atom_site_label
  _atom_site_symmetry_multiplicity
  _atom_site_fract_x
  _atom_site_fract_y
  _atom_site_fract_z
  _atom_site_occupancy
  C   C1        1.0  0.18598  0.09869  0.36399  1.0000
  C   C2        1.0  0.21226  0.11041  0.28353  1.0000
  C   C3        1.0  0.25909  0.13611  0.28907  1.0000
  C   C4        1.0  0.21751  0.11011  0.11937  1.0000
  N   N1        1.0  0.19371  0.09858  0.19843  1.0000
  H   H1        1.0  0.20173  0.10045  0.05741  1.0000
  H   H2        1.0  0.28580  0.12247  0.00010  1.0000
  N   N2        1.0  0.14197  0.07307  0.35750  1.0000
  C   C5        1.0  0.94049  0.10154  0.37989  1.0000
  C   C6        1.0  0.92163  0.10677  0.29785  1.0000
  C   C7        1.0  0.89621  0.12832  0.29904  1.0000
  C   C8        1.0  0.88469  0.11696  0.13651  1.0000
  C   C9        1.0  0.91083  0.09686  0.13517  1.0000
  N   N3        1.0  0.92793  0.09235  0.21542  1.0000
  H   H3        1.0  0.91696  0.08560  0.07528  1.0000
  C   C10       1.0  0.86617  0.12456  0.05234  1.0000
  H   H4        1.0  0.84727  0.09390  0.01432  1.0000
  N   N4        1.0  0.96554  0.08248  0.38470  1.0000
  H   H5        1.0  0.61204  0.12045  0.03641  1.0000
  C   C11       1.0  0.06602  0.04441  0.38573  1.0000
  C   C12       1.0  0.03609  0.06004  0.37313  1.0000
  H   H6        1.0  0.04807  0.09332  0.37051  1.0000
  C   C13       1.0  0.96056  0.04640  0.34978  1.0000
  C   C14       1.0  0.11056  0.07407  0.40172  1.0000
  H   H7        1.0  0.11809  0.09777  0.44780  1.0000
  H   H8        1.0  0.93331  0.02750  0.31398  1.0000
  C   C15       1.0  0.20800  0.11329  0.44943  1.0000
  H   H9        1.0  0.19033  0.10499  0.50936  1.0000
  C   C16       1.0  0.93467  0.12010  0.46125  1.0000
  H   H10       1.0  0.94856  0.11793  0.52157  1.0000
  C   C17       1.0  0.99014  0.03100  0.36365  1.0000
  N   N5        1.0  0.28228  0.14753  0.20928  1.0000
  C   C18       1.0  0.26375  0.13568  0.12469  1.0000
  C   C19       1.0  0.29212  0.15065  0.04269  1.0000
  H   H11       1.0  0.32690  0.16816  0.06162  1.0000
  H   H12       1.0  0.28524  0.17304  0.00351  1.0000
  N   N6        1.0  0.87880  0.13190  0.21831  1.0000
  H   H13       1.0  0.84472  0.13787  0.06822  1.0000
  H   H14       1.0  0.89324  0.14839  0.00975  1.0000
  C   C20       1.0  0.63516  0.15334  0.01087  1.0000
  H   H15       1.0  0.41269  0.14283  0.36071  1.0000
  C   C21       1.0  0.35575  0.17003  0.34576  1.0000
  H   H16       1.0  0.34670  0.14462  0.30338  1.0000
  H   H17       1.0  0.48725  0.15197  0.41236  1.0000
  H   H18       1.0  0.77434  0.15478  0.35855  1.0000
  H   H19       1.0  0.70373  0.15678  0.41539  1.0000
  C   C22       1.0  0.28100  0.15013  0.37484  1.0000
  C   C23       1.0  0.25435  0.13875  0.45421  1.0000
  H   H20       1.0  0.26886  0.14849  0.51715  1.0000
  N   N7        1.0  0.32510  0.17442  0.38490  1.0000
  C   C24       1.0  0.88984  0.14617  0.38132  1.0000
  C   C25       1.0  0.90966  0.14151  0.46179  1.0000
  H   H21       1.0  0.90678  0.15491  0.52196  1.0000
  N   N8        1.0  0.86595  0.16649  0.38916  1.0000
  N   N9        1.0  0.64106  0.17188  0.51301  1.0000
  C   C26       1.0  0.61780  0.16217  0.59279  1.0000
  C   C27       1.0  0.57747  0.16183  0.59180  1.0000
  N   N10       1.0  0.56376  0.17128  0.51224  1.0000
  H   H22       1.0  0.55886  0.15536  0.64998  1.0000
  H   H23       1.0  0.66677  0.15531  0.66497  1.0000
  C   C28       1.0  0.65422  0.19306  0.35257  1.0000
  C   C29       1.0  0.64010  0.20643  0.27428  1.0000
  C   C30       1.0  0.59979  0.20606  0.27373  1.0000
  H   H24       1.0  0.59173  0.21787  0.21697  1.0000
  H   H25       1.0  0.66026  0.21873  0.21805  1.0000
  H   H26       1.0  0.63974  0.17750  0.06334  1.0000
  N   N11       1.0  0.69611  0.20283  0.35326  1.0000
  C   C31       1.0  0.82976  0.40355  0.27333  1.0000
  H   H27       1.0  0.81785  0.38364  0.21663  1.0000
  C   C32       1.0  0.56246  0.37993  0.35316  1.0000
  C   C33       1.0  0.58976  0.39389  0.27460  1.0000
  H   H28       1.0  0.58162  0.37371  0.21837  1.0000
  C   C34       1.0  0.54262  0.39913  0.01183  1.0000
  H   H29       1.0  0.56206  0.39414  0.06397  1.0000
  N   N12       1.0  0.53013  0.33817  0.35420  1.0000
  C   C35       1.0  0.40088  0.19652  0.36289  1.0000
  C   C36       1.0  0.42734  0.17638  0.36652  1.0000
  C   C37       1.0  0.47359  0.20123  0.37704  1.0000
  C   C38       1.0  0.49322  0.24738  0.38490  1.0000
  C   C39       1.0  0.46862  0.26928  0.37902  1.0000
  C   C40       1.0  0.42221  0.24315  0.36926  1.0000
  H   H30       1.0  0.52654  0.26559  0.39550  1.0000
  H   H31       1.0  0.40385  0.25837  0.36428  1.0000
  C   C41       1.0  0.49934  0.18121  0.38224  1.0000
  C   C42       1.0  0.49054  0.31523  0.38512  1.0000
  H   H32       1.0  0.47656  0.32996  0.41782  1.0000
  C   C43       1.0  0.83666  0.21305  0.35761  1.0000
  C   C44       1.0  0.85765  0.25964  0.36224  1.0000
  C   C45       1.0  0.83350  0.28165  0.37552  1.0000
  C   C46       1.0  0.78731  0.25570  0.38473  1.0000
  C   C47       1.0  0.76468  0.20924  0.37744  1.0000
  C   C48       1.0  0.79007  0.18834  0.36506  1.0000
  H   H33       1.0  0.76959  0.27121  0.39688  1.0000
  H   H34       1.0  0.89116  0.27800  0.35466  1.0000
  C   C49       1.0  0.85410  0.32746  0.38118  1.0000
  C   C50       1.0  0.71874  0.18577  0.38377  1.0000
  C   C51       1.0  0.86166  0.19345  0.33555  1.0000
  H   H35       1.0  0.87960  0.20365  0.27839  1.0000
  H   H36       1.0  0.88344  0.34423  0.41105  1.0000
  C   C52       1.0  0.57223  0.19265  0.35187  1.0000
  C   C53       1.0  0.58661  0.18041  0.43191  1.0000
  C   C54       1.0  0.62738  0.18065  0.43224  1.0000
  N   N13       1.0  0.53916  0.20104  0.35182  1.0000
  C   C55       1.0  0.84342  0.38951  0.35127  1.0000
  C   C56       1.0  0.85566  0.41617  0.43126  1.0000
  N   N14       1.0  0.86486  0.40249  0.51156  1.0000
  H   H37       1.0  0.88084  0.41357  0.64927  1.0000
  N   N15       1.0  0.83468  0.34793  0.35121  1.0000
  C   C57       1.0  0.57724  0.40670  0.43292  1.0000
  N   N16       1.0  0.55486  0.39316  0.51380  1.0000
  C   C58       1.0  0.56875  0.41632  0.59364  1.0000
  H   H38       1.0  0.51270  0.36774  0.66594  1.0000
  C   C59       1.0  0.63002  0.43388  0.27406  1.0000
  H   H39       1.0  0.53332  0.42254  0.03778  1.0000
  C   C60       1.0  0.87428  0.42566  0.59112  1.0000
  C   C61       1.0  0.82935  0.44348  0.27384  1.0000
  H   H40       1.0  0.64973  0.44182  0.21705  1.0000
  H   H41       1.0  0.81690  0.45123  0.21772  1.0000
  C   C62       1.0  0.85531  0.45665  0.43162  1.0000
  C   C63       1.0  0.61805  0.44719  0.43252  1.0000
  C   C64       1.0  0.60903  0.45635  0.59262  1.0000
  C   C65       1.0  0.93627  0.84752  0.35915  1.0000
  C   C66       1.0  0.92162  0.82098  0.27903  1.0000
  C   C67       1.0  0.90053  0.77415  0.28508  1.0000
  N   N17       1.0  0.88871  0.75080  0.20550  1.0000
  C   C68       1.0  0.89526  0.76912  0.12070  1.0000
  C   C69       1.0  0.91588  0.81534  0.11492  1.0000
  N   N18       1.0  0.92823  0.83932  0.19374  1.0000
  H   H42       1.0  0.92191  0.83097  0.05281  1.0000
  C   C70       1.0  0.88173  0.74056  0.03897  1.0000
  H   H43       1.0  0.86455  0.70583  0.05826  1.0000
  N   N19       1.0  0.95504  0.89162  0.35209  1.0000
  C   C71       1.0  0.84279  0.47104  0.35202  1.0000
  C   C72       1.0  0.88268  0.49180  0.01021  1.0000
  H   H44       1.0  0.91560  0.50164  0.03567  1.0000
  H   H45       1.0  0.85857  0.47220  0.06274  1.0000
  N   N20       1.0  0.83271  0.50295  0.35291  1.0000
  C   C73       1.0  0.97447  0.98502  0.36772  1.0000
  C   C74       1.0  0.04876  0.99833  0.39120  1.0000
  H   H46       1.0  0.94128  0.96351  0.36333  1.0000
  H   H47       1.0  0.06988  0.98675  0.40440  1.0000
  C   C75       1.0  0.82013  0.63226  0.36065  1.0000
  C   C76       1.0  0.77356  0.60580  0.36520  1.0000
  C   C77       1.0  0.75220  0.55958  0.37638  1.0000
  C   C78       1.0  0.77875  0.53995  0.38384  1.0000
  C   C79       1.0  0.82522  0.56454  0.37715  1.0000
  C   C80       1.0  0.84545  0.61093  0.36675  1.0000
  H   H48       1.0  0.76367  0.50665  0.39473  1.0000
  H   H49       1.0  0.87900  0.62929  0.36094  1.0000
  H   H50       1.0  0.75463  0.62043  0.35947  1.0000
  C   C81       1.0  0.70645  0.53393  0.38238  1.0000
  C   C82       1.0  0.84934  0.54268  0.38302  1.0000
  C   C83       1.0  0.83861  0.67727  0.34214  1.0000
  H   H51       1.0  0.82229  0.68585  0.29859  1.0000
  H   H52       1.0  0.87836  0.55701  0.41453  1.0000
  H   H53       1.0  0.68950  0.54619  0.41270  1.0000
  C   C84       1.0  0.89275  0.75242  0.37108  1.0000
  C   C85       1.0  0.90800  0.77931  0.45014  1.0000
  C   C86       1.0  0.92883  0.82564  0.44482  1.0000
  H   H54       1.0  0.93824  0.84342  0.50460  1.0000
  H   H55       1.0  0.90333  0.76498  0.51328  1.0000
  H   H56       1.0  0.91093  0.74738  0.66621  1.0000
  H   H57       1.0  0.85975  0.74674  0.66311  1.0000
  N   N21       1.0  0.87317  0.70835  0.38181  1.0000
  N   N22       1.0  0.86408  0.47911  0.51238  1.0000
  C   C87       1.0  0.87386  0.46561  0.59213  1.0000
  H   H58       1.0  0.88063  0.52140  0.66433  1.0000
  C   C88       1.0  0.64458  0.46134  0.35233  1.0000
  N   N23       1.0  0.63211  0.46991  0.51292  1.0000
  H   H59       1.0  0.62143  0.47488  0.65083  1.0000
  N   N24       1.0  0.68619  0.49413  0.35191  1.0000
  C   C89       1.0  0.00305  0.96789  0.38234  1.0000
  C   C90       1.0  0.98712  0.92293  0.39733  1.0000
  H   H60       1.0  0.00224  0.91480  0.44486  1.0000
