data_image0
_chemical_formula_structural       C2O2H2C2O2H2C2O2H2C2O2H2C2O2H2C2O2H2C4OHOHC4OHOHC4OHOHC4OHOHC4OHOHC4OHOHC4OHOHC4OHOHC4OHOHC4OHOHC4OHOHC4OHOHC6H3C6H3C6H3C6H3C6H3C6H3C6H3C6H3C6H3C6H3C6H3C6H3C4OHOHC4OHOHC4OHOHC4OHOHC4OHOHC4OHOHC2O2H2C2O2H2C2O2H2C2O2H2C2O2H2C2O2H2C2O2H2C2O2H2C2O2H2C2O2H2C2O2H2C2O2H2
_chemical_formula_sum              "C180 O72 H108"
_cell_length_a       37.4935
_cell_length_b       37.4936
_cell_length_c       14.7996
_cell_angle_alpha    90
_cell_angle_beta     90
_cell_angle_gamma    120

_space_group_name_H-M_alt    "P 1"
_space_group_IT_number       1

loop_
  _space_group_symop_operation_xyz
  'x, y, z'

loop_
  _atom_site_type_symbol
  _atom_site_label
  _atom_site_symmetry_multiplicity
  _atom_site_fract_x
  _atom_site_fract_y
  _atom_site_fract_z
  _atom_site_occupancy
  C   C1        1.0  0.19443  0.37446  0.26464  1.0000
  C   C2        1.0  0.21566  0.41806  0.26470  1.0000
  O   O1        1.0  0.18380  0.35418  0.18405  1.0000
  O   O2        1.0  0.22632  0.43840  0.18418  1.0000
  H   H1        1.0  0.20687  0.35014  0.16684  1.0000
  H   H2        1.0  0.20329  0.44250  0.16704  1.0000
  C   C3        1.0  0.63372  0.81459  0.26457  1.0000
  C   C4        1.0  0.59012  0.79220  0.26461  1.0000
  O   O3        1.0  0.65401  0.82427  0.18400  1.0000
  O   O4        1.0  0.56980  0.78253  0.18407  1.0000
  H   H3        1.0  0.65803  0.85137  0.16678  1.0000
  H   H4        1.0  0.56568  0.75539  0.16693  1.0000
  C   C5        1.0  0.19366  0.81387  0.26466  1.0000
  C   C6        1.0  0.21606  0.79266  0.26470  1.0000
  O   O5        1.0  0.18408  0.82457  0.18409  1.0000
  O   O6        1.0  0.22582  0.78209  0.18416  1.0000
  H   H5        1.0  0.15698  0.80152  0.16673  1.0000
  H   H6        1.0  0.25295  0.80517  0.16713  1.0000
  C   C7        1.0  0.81993  0.62738  0.26470  1.0000
  C   C8        1.0  0.79873  0.58378  0.26476  1.0000
  O   O7        1.0  0.83042  0.64766  0.18410  1.0000
  O   O8        1.0  0.78797  0.56344  0.18426  1.0000
  H   H7        1.0  0.80729  0.65161  0.16704  1.0000
  H   H8        1.0  0.81098  0.55932  0.16691  1.0000
  C   C9        1.0  0.38077  0.18727  0.26457  1.0000
  C   C10       1.0  0.42437  0.20965  0.26464  1.0000
  O   O9        1.0  0.36049  0.17761  0.18398  1.0000
  O   O10       1.0  0.44471  0.21932  0.18411  1.0000
  H   H9        1.0  0.35646  0.15050  0.16678  1.0000
  H   H10       1.0  0.44882  0.24646  0.16696  1.0000
  C   C11       1.0  0.82088  0.18814  0.26468  1.0000
  C   C12       1.0  0.79851  0.20937  0.26473  1.0000
  O   O11       1.0  0.83054  0.17752  0.18410  1.0000
  O   O12       1.0  0.78883  0.22002  0.18420  1.0000
  H   H11       1.0  0.85764  0.20059  0.16687  1.0000
  H   H12       1.0  0.76169  0.19699  0.16706  1.0000
  C   C13       1.0  0.18286  0.22053  0.34673  1.0000
  C   C14       1.0  0.19371  0.20913  0.26436  1.0000
  C   C15       1.0  0.21609  0.18791  0.26435  1.0000
  C   C16       1.0  0.22704  0.17662  0.34671  1.0000
  O   O13       1.0  0.22572  0.17723  0.18380  1.0000
  H   H13       1.0  0.25284  0.20026  0.16655  1.0000
  O   O14       1.0  0.18400  0.21973  0.18381  1.0000
  H   H14       1.0  0.15687  0.19667  0.16669  1.0000
  C   C17       1.0  0.78764  0.95699  0.34673  1.0000
  C   C18       1.0  0.79907  0.97924  0.26437  1.0000
  C   C19       1.0  0.82029  0.02284  0.26438  1.0000
  C   C20       1.0  0.83154  0.04508  0.34675  1.0000
  O   O15       1.0  0.83100  0.04315  0.18384  1.0000
  H   H15       1.0  0.80797  0.04725  0.16655  1.0000
  O   O16       1.0  0.78850  0.95893  0.18382  1.0000
  H   H16       1.0  0.81158  0.95489  0.16675  1.0000
  C   C21       1.0  0.05118  0.82530  0.34680  1.0000
  C   C22       1.0  0.02894  0.81449  0.26443  1.0000
  C   C23       1.0  0.98534  0.79210  0.26443  1.0000
  C   C24       1.0  0.96310  0.78113  0.34679  1.0000
  O   O17       1.0  0.96504  0.78251  0.18387  1.0000
  H   H17       1.0  0.96094  0.75539  0.16659  1.0000
  O   O18       1.0  0.04925  0.82422  0.18388  1.0000
  H   H18       1.0  0.05331  0.85135  0.16681  1.0000
  C   C25       1.0  0.83158  0.78131  0.34669  1.0000
  C   C26       1.0  0.82075  0.79273  0.26432  1.0000
  C   C27       1.0  0.79839  0.81398  0.26432  1.0000
  C   C28       1.0  0.78744  0.82527  0.34669  1.0000
  O   O19       1.0  0.78878  0.82467  0.18378  1.0000
  H   H19       1.0  0.76165  0.80165  0.16652  1.0000
  O   O20       1.0  0.83046  0.78213  0.18378  1.0000
  H   H20       1.0  0.85759  0.80519  0.16667  1.0000
  C   C29       1.0  0.22684  0.04490  0.34671  1.0000
  C   C30       1.0  0.21542  0.02266  0.26435  1.0000
  C   C31       1.0  0.19419  0.97905  0.26437  1.0000
  C   C32       1.0  0.18290  0.95682  0.34674  1.0000
  O   O21       1.0  0.18349  0.95874  0.18382  1.0000
  H   H21       1.0  0.20652  0.95464  0.16657  1.0000
  O   O22       1.0  0.22602  0.04296  0.18380  1.0000
  H   H22       1.0  0.20296  0.04703  0.16669  1.0000
  C   C33       1.0  0.96326  0.17659  0.34675  1.0000
  C   C34       1.0  0.98551  0.18743  0.26439  1.0000
  C   C35       1.0  0.02911  0.20980  0.26438  1.0000
  C   C36       1.0  0.05135  0.22074  0.34675  1.0000
  O   O23       1.0  0.04942  0.21942  0.18383  1.0000
  H   H23       1.0  0.05350  0.24655  0.16659  1.0000
  O   O24       1.0  0.96520  0.17773  0.18384  1.0000
  H   H24       1.0  0.96113  0.15060  0.16672  1.0000
  C   C37       1.0  0.22915  0.65020  0.34620  1.0000
  C   C38       1.0  0.22883  0.63053  0.26401  1.0000
  C   C39       1.0  0.22885  0.59285  0.26406  1.0000
  C   C40       1.0  0.22922  0.57356  0.34627  1.0000
  O   O25       1.0  0.23505  0.57899  0.18365  1.0000
  H   H25       1.0  0.20851  0.55488  0.16728  1.0000
  O   O26       1.0  0.23497  0.65056  0.18359  1.0000
  H   H26       1.0  0.20836  0.64790  0.16705  1.0000
  C   C41       1.0  0.35810  0.57359  0.34629  1.0000
  C   C42       1.0  0.37766  0.59275  0.26393  1.0000
  C   C43       1.0  0.41529  0.63048  0.26389  1.0000
  C   C44       1.0  0.43458  0.65025  0.34602  1.0000
  O   O27       1.0  0.42922  0.65050  0.18347  1.0000
  H   H27       1.0  0.45320  0.64787  0.16706  1.0000
  O   O28       1.0  0.35761  0.57876  0.18357  1.0000
  H   H28       1.0  0.36022  0.55474  0.16728  1.0000
  C   C45       1.0  0.43459  0.77908  0.34602  1.0000
  C   C46       1.0  0.41544  0.77972  0.26385  1.0000
  C   C47       1.0  0.37774  0.77970  0.26376  1.0000
  C   C48       1.0  0.35796  0.77908  0.34589  1.0000
  O   O29       1.0  0.35775  0.77372  0.18334  1.0000
  H   H29       1.0  0.36045  0.80037  0.16705  1.0000
  O   O30       1.0  0.42943  0.77373  0.18342  1.0000
  H   H30       1.0  0.45340  0.80038  0.16713  1.0000
  C   C49       1.0  0.78541  0.35182  0.34584  1.0000
  C   C50       1.0  0.78587  0.37146  0.26357  1.0000
  C   C51       1.0  0.78587  0.40913  0.26360  1.0000
  C   C52       1.0  0.78538  0.42829  0.34587  1.0000
  O   O31       1.0  0.77982  0.42313  0.18323  1.0000
  H   H31       1.0  0.80643  0.44719  0.16703  1.0000
  O   O32       1.0  0.77987  0.35142  0.18321  1.0000
  H   H32       1.0  0.80655  0.35421  0.16680  1.0000
  C   C53       1.0  0.65650  0.42824  0.34607  1.0000
  C   C54       1.0  0.63682  0.40883  0.26393  1.0000
  C   C55       1.0  0.59912  0.37116  0.26403  1.0000
  C   C56       1.0  0.57985  0.35163  0.34636  1.0000
  O   O33       1.0  0.58525  0.35104  0.18368  1.0000
  H   H33       1.0  0.56111  0.35342  0.16732  1.0000
  O   O34       1.0  0.65687  0.42262  0.18349  1.0000
  H   H34       1.0  0.65432  0.44663  0.16686  1.0000
  C   C57       1.0  0.57992  0.22281  0.34646  1.0000
  C   C58       1.0  0.59906  0.22239  0.26403  1.0000
  C   C59       1.0  0.63678  0.22247  0.26376  1.0000
  C   C60       1.0  0.65655  0.22292  0.34581  1.0000
  O   O35       1.0  0.65676  0.22856  0.18330  1.0000
  H   H35       1.0  0.65414  0.20195  0.16685  1.0000
  O   O36       1.0  0.58501  0.22842  0.18370  1.0000
  H   H36       1.0  0.56100  0.20179  0.16747  1.0000
  C   C61       1.0  0.09527  0.24264  0.34675  1.0000
  C   C62       1.0  0.11736  0.22115  0.34668  1.0000
  C   C63       1.0  0.16094  0.24252  0.34674  1.0000
  C   C64       1.0  0.18243  0.28609  0.34685  1.0000
  C   C65       1.0  0.16106  0.30830  0.34691  1.0000
  C   C66       1.0  0.11748  0.28621  0.34687  1.0000
  H   H37       1.0  0.21398  0.30183  0.34689  1.0000
  H   H38       1.0  0.10175  0.30204  0.34691  1.0000
  H   H39       1.0  0.10154  0.18960  0.34661  1.0000
  C   C67       1.0  0.76554  0.84728  0.34671  1.0000
  C   C68       1.0  0.78702  0.89086  0.34665  1.0000
  C   C69       1.0  0.76565  0.91307  0.34673  1.0000
  C   C70       1.0  0.72207  0.89098  0.34684  1.0000
  C   C71       1.0  0.69988  0.84740  0.34687  1.0000
  C   C72       1.0  0.72197  0.82591  0.34681  1.0000
  H   H40       1.0  0.70633  0.90679  0.34688  1.0000
  H   H41       1.0  0.70615  0.79436  0.34685  1.0000
  H   H42       1.0  0.81858  0.90660  0.34659  1.0000
  C   C73       1.0  0.16088  0.91290  0.34677  1.0000
  C   C74       1.0  0.11731  0.89080  0.34671  1.0000
  C   C75       1.0  0.09510  0.84723  0.34681  1.0000
  C   C76       1.0  0.11719  0.82574  0.34694  1.0000
  C   C77       1.0  0.16077  0.84712  0.34696  1.0000
  C   C78       1.0  0.18225  0.89070  0.34687  1.0000
  H   H43       1.0  0.10138  0.79419  0.34700  1.0000
  H   H44       1.0  0.21381  0.90644  0.34689  1.0000
  H   H45       1.0  0.10157  0.90662  0.34664  1.0000
  C   C79       1.0  0.91918  0.75922  0.34679  1.0000
  C   C80       1.0  0.89708  0.78069  0.34667  1.0000
  C   C81       1.0  0.85350  0.75932  0.34670  1.0000
  C   C82       1.0  0.83202  0.71574  0.34683  1.0000
  C   C83       1.0  0.85341  0.69355  0.34694  1.0000
  C   C84       1.0  0.89698  0.71564  0.34694  1.0000
  H   H46       1.0  0.80047  0.70000  0.34685  1.0000
  H   H47       1.0  0.91272  0.69983  0.34702  1.0000
  H   H48       1.0  0.91289  0.81225  0.34659  1.0000
  C   C85       1.0  0.24895  0.15461  0.34671  1.0000
  C   C86       1.0  0.22747  0.11103  0.34665  1.0000
  C   C87       1.0  0.24884  0.08882  0.34671  1.0000
  C   C88       1.0  0.29241  0.11091  0.34681  1.0000
  C   C89       1.0  0.31461  0.15449  0.34685  1.0000
  C   C90       1.0  0.29253  0.17597  0.34681  1.0000
  H   H49       1.0  0.30815  0.09509  0.34684  1.0000
  H   H50       1.0  0.30835  0.20753  0.34685  1.0000
  H   H51       1.0  0.19591  0.09529  0.34660  1.0000
  C   C91       1.0  0.85356  0.08900  0.34677  1.0000
  C   C92       1.0  0.89713  0.11109  0.34669  1.0000
  C   C93       1.0  0.91935  0.15467  0.34677  1.0000
  C   C94       1.0  0.89726  0.17616  0.34690  1.0000
  C   C95       1.0  0.85368  0.15478  0.34696  1.0000
  C   C96       1.0  0.83219  0.11121  0.34691  1.0000
  H   H52       1.0  0.91307  0.20771  0.34694  1.0000
  H   H53       1.0  0.80063  0.09547  0.34695  1.0000
  H   H54       1.0  0.91287  0.09527  0.34662  1.0000
  C   C97       1.0  0.31463  0.54976  0.34652  1.0000
  C   C98       1.0  0.29233  0.57093  0.34627  1.0000
  C   C99       1.0  0.24887  0.54975  0.34654  1.0000
  C   C100      1.0  0.22735  0.50623  0.34706  1.0000
  C   C101      1.0  0.24894  0.48415  0.34716  1.0000
  C   C102      1.0  0.29262  0.50623  0.34700  1.0000
  H   H55       1.0  0.19581  0.49058  0.34713  1.0000
  H   H56       1.0  0.30851  0.49058  0.34705  1.0000
  H   H57       1.0  0.30814  0.60256  0.34600  1.0000
  C   C103      1.0  0.45842  0.75946  0.34637  1.0000
  C   C104      1.0  0.43724  0.71600  0.34605  1.0000
  C   C105      1.0  0.45840  0.69370  0.34639  1.0000
  C   C106      1.0  0.50193  0.71570  0.34692  1.0000
  C   C107      1.0  0.52402  0.75937  0.34702  1.0000
  C   C108      1.0  0.50195  0.78098  0.34682  1.0000
  H   H58       1.0  0.51757  0.69980  0.34700  1.0000
  H   H59       1.0  0.51760  0.81251  0.34687  1.0000
  H   H60       1.0  0.40561  0.70018  0.34570  1.0000
  C   C109      1.0  0.24876  0.69364  0.34641  1.0000
  C   C110      1.0  0.29223  0.71595  0.34601  1.0000
  C   C111      1.0  0.31450  0.75941  0.34634  1.0000
  C   C112      1.0  0.29248  0.78092  0.34681  1.0000
  C   C113      1.0  0.24881  0.75931  0.34711  1.0000
  C   C114      1.0  0.22722  0.71564  0.34709  1.0000
  H   H61       1.0  0.30836  0.81246  0.34682  1.0000
  H   H62       1.0  0.19568  0.69974  0.34725  1.0000
  H   H63       1.0  0.30805  0.70015  0.34564  1.0000
  C   C115      1.0  0.69995  0.45208  0.34628  1.0000
  C   C116      1.0  0.72225  0.43091  0.34586  1.0000
  C   C117      1.0  0.76571  0.45209  0.34630  1.0000
  C   C118      1.0  0.78722  0.49562  0.34696  1.0000
  C   C119      1.0  0.76562  0.51769  0.34722  1.0000
  C   C120      1.0  0.72195  0.49561  0.34709  1.0000
  H   H64       1.0  0.81876  0.51127  0.34703  1.0000
  H   H65       1.0  0.70605  0.51125  0.34725  1.0000
  H   H66       1.0  0.70644  0.39928  0.34542  1.0000
  C   C121      1.0  0.55609  0.24243  0.34663  1.0000
  C   C122      1.0  0.57724  0.28589  0.34650  1.0000
  C   C123      1.0  0.55606  0.30817  0.34661  1.0000
  C   C124      1.0  0.51253  0.28615  0.34703  1.0000
  C   C125      1.0  0.49046  0.24248  0.34710  1.0000
  C   C126      1.0  0.51255  0.22090  0.34697  1.0000
  H   H67       1.0  0.49688  0.30204  0.34705  1.0000
  H   H68       1.0  0.49691  0.18936  0.34699  1.0000
  H   H69       1.0  0.60887  0.30172  0.34631  1.0000
  C   C127      1.0  0.76576  0.30834  0.34624  1.0000
  C   C128      1.0  0.72230  0.28604  0.34575  1.0000
  C   C129      1.0  0.70001  0.24258  0.34625  1.0000
  C   C130      1.0  0.72202  0.22107  0.34698  1.0000
  C   C131      1.0  0.76570  0.24266  0.34715  1.0000
  C   C132      1.0  0.78729  0.28634  0.34693  1.0000
  H   H70       1.0  0.70614  0.18953  0.34710  1.0000
  H   H71       1.0  0.81883  0.30223  0.34704  1.0000
  H   H72       1.0  0.70648  0.30185  0.34527  1.0000
  C   C133      1.0  0.22699  0.44026  0.34712  1.0000
  C   C134      1.0  0.21561  0.41801  0.42946  1.0000
  C   C135      1.0  0.19439  0.37441  0.42940  1.0000
  C   C136      1.0  0.18306  0.35220  0.34698  1.0000
  O   O37       1.0  0.18371  0.35408  0.50991  1.0000
  H   H73       1.0  0.20676  0.35002  0.52716  1.0000
  O   O38       1.0  0.22623  0.43830  0.51004  1.0000
  H   H74       1.0  0.20320  0.44243  0.52712  1.0000
  C   C137      1.0  0.56791  0.78131  0.34701  1.0000
  C   C138      1.0  0.59015  0.79218  0.42936  1.0000
  C   C139      1.0  0.63375  0.81458  0.42932  1.0000
  C   C140      1.0  0.65597  0.82549  0.34692  1.0000
  O   O39       1.0  0.65407  0.82424  0.50985  1.0000
  H   H75       1.0  0.65811  0.85134  0.52710  1.0000
  O   O40       1.0  0.56985  0.78250  0.50993  1.0000
  H   H76       1.0  0.56573  0.75535  0.52701  1.0000
  C   C141      1.0  0.22686  0.78125  0.34710  1.0000
  C   C142      1.0  0.21588  0.79252  0.42946  1.0000
  C   C143      1.0  0.19350  0.81373  0.42941  1.0000
  C   C144      1.0  0.18268  0.82513  0.34702  1.0000
  O   O41       1.0  0.18375  0.82431  0.50994  1.0000
  H   H77       1.0  0.15664  0.80121  0.52706  1.0000
  O   O42       1.0  0.22550  0.78183  0.51002  1.0000
  H   H78       1.0  0.25265  0.80484  0.52722  1.0000
  C   C145      1.0  0.78756  0.56158  0.34719  1.0000
  C   C146      1.0  0.79906  0.58384  0.42953  1.0000
  C   C147      1.0  0.82026  0.62744  0.42944  1.0000
  C   C148      1.0  0.83142  0.64964  0.34703  1.0000
  O   O43       1.0  0.83104  0.64777  0.50995  1.0000
  H   H79       1.0  0.80800  0.65183  0.52740  1.0000
  O   O44       1.0  0.78858  0.56355  0.51010  1.0000
  H   H80       1.0  0.81167  0.55948  0.52697  1.0000
  C   C149      1.0  0.44657  0.22054  0.34705  1.0000
  C   C150      1.0  0.42433  0.20967  0.42939  1.0000
  C   C151      1.0  0.38073  0.18729  0.42932  1.0000
  C   C152      1.0  0.35852  0.17639  0.34692  1.0000
  O   O45       1.0  0.36040  0.17764  0.50985  1.0000
  H   H81       1.0  0.35634  0.15053  0.52710  1.0000
  O   O46       1.0  0.44461  0.21936  0.50997  1.0000
  H   H82       1.0  0.44873  0.24651  0.52704  1.0000
  C   C153      1.0  0.78764  0.22071  0.34714  1.0000
  C   C154      1.0  0.79852  0.20934  0.42949  1.0000
  C   C155      1.0  0.82089  0.18811  0.42943  1.0000
  C   C156      1.0  0.83177  0.17678  0.34703  1.0000
  O   O47       1.0  0.83056  0.17746  0.50995  1.0000
  H   H83       1.0  0.85767  0.20052  0.52718  1.0000
  O   O48       1.0  0.78884  0.21997  0.51005  1.0000
  H   H84       1.0  0.76169  0.19694  0.52715  1.0000
  C   C157      1.0  0.21623  0.18805  0.42908  1.0000
  C   C158      1.0  0.19385  0.20926  0.42909  1.0000
  O   O49       1.0  0.22598  0.17748  0.50963  1.0000
  O   O50       1.0  0.18426  0.21998  0.50964  1.0000
  H   H85       1.0  0.25311  0.20055  0.52668  1.0000
  H   H86       1.0  0.15714  0.19696  0.52695  1.0000
  C   C159      1.0  0.82008  0.02283  0.42911  1.0000
  C   C160      1.0  0.79886  0.97923  0.42910  1.0000
  O   O51       1.0  0.83062  0.04313  0.50967  1.0000
  O   O52       1.0  0.78813  0.95892  0.50964  1.0000
  H   H87       1.0  0.80754  0.04719  0.52668  1.0000
  H   H88       1.0  0.81114  0.95482  0.52699  1.0000
  C   C161      1.0  0.98534  0.79191  0.42915  1.0000
  C   C162      1.0  0.02894  0.81429  0.42917  1.0000
  O   O53       1.0  0.96503  0.78214  0.50970  1.0000
  O   O54       1.0  0.04924  0.82386  0.50972  1.0000
  H   H89       1.0  0.96097  0.75501  0.52672  1.0000
  H   H90       1.0  0.05334  0.85098  0.52706  1.0000
  C   C163      1.0  0.79824  0.81382  0.42906  1.0000
  C   C164      1.0  0.82060  0.79258  0.42906  1.0000
  O   O55       1.0  0.78848  0.82437  0.50961  1.0000
  O   O56       1.0  0.83017  0.78184  0.50961  1.0000
  H   H91       1.0  0.76135  0.80130  0.52664  1.0000
  H   H92       1.0  0.85729  0.80485  0.52693  1.0000
  C   C165      1.0  0.19435  0.97907  0.42910  1.0000
  C   C166      1.0  0.21558  0.02267  0.42909  1.0000
  O   O57       1.0  0.18378  0.95876  0.50966  1.0000
  O   O58       1.0  0.22631  0.04298  0.50963  1.0000
  H   H93       1.0  0.20685  0.95470  0.52670  1.0000
  H   H94       1.0  0.20330  0.04709  0.52695  1.0000
  C   C167      1.0  0.02911  0.20993  0.42911  1.0000
  C   C168      1.0  0.98551  0.18756  0.42912  1.0000
  O   O59       1.0  0.04942  0.21966  0.50966  1.0000
  O   O60       1.0  0.96521  0.17797  0.50967  1.0000
  H   H95       1.0  0.05349  0.24680  0.52672  1.0000
  H   H96       1.0  0.96110  0.15085  0.52696  1.0000
  C   C169      1.0  0.22802  0.59245  0.42838  1.0000
  C   C170      1.0  0.22800  0.63014  0.42834  1.0000
  O   O61       1.0  0.23360  0.57828  0.50899  1.0000
  O   O62       1.0  0.23352  0.64991  0.50889  1.0000
  H   H97       1.0  0.20688  0.55423  0.52456  1.0000
  H   H98       1.0  0.20667  0.64686  0.52476  1.0000
  C   C171      1.0  0.41566  0.63028  0.42829  1.0000
  C   C172      1.0  0.37803  0.59253  0.42846  1.0000
  O   O63       1.0  0.42992  0.65012  0.50879  1.0000
  O   O64       1.0  0.35827  0.57840  0.50907  1.0000
  H   H99       1.0  0.45387  0.64730  0.52449  1.0000
  H   H100      1.0  0.36097  0.55439  0.52479  1.0000
  C   C173      1.0  0.37781  0.77993  0.42819  1.0000
  C   C174      1.0  0.41551  0.77994  0.42819  1.0000
  O   O65       1.0  0.35796  0.77420  0.50873  1.0000
  O   O66       1.0  0.42957  0.77417  0.50877  1.0000
  H   H101      1.0  0.36053  0.80087  0.52444  1.0000
  H   H102      1.0  0.45356  0.80087  0.52472  1.0000
  C   C175      1.0  0.78632  0.40936  0.42818  1.0000
  C   C176      1.0  0.78631  0.37166  0.42815  1.0000
  O   O67       1.0  0.78065  0.42351  0.50874  1.0000
  O   O68       1.0  0.78070  0.35183  0.50867  1.0000
  H   H103      1.0  0.80731  0.44765  0.52427  1.0000
  H   H104      1.0  0.80748  0.35471  0.52451  1.0000
  C   C177      1.0  0.59873  0.37174  0.42844  1.0000
  C   C178      1.0  0.63643  0.40942  0.42827  1.0000
  O   O69       1.0  0.58455  0.35204  0.50910  1.0000
  O   O70       1.0  0.65622  0.42374  0.50879  1.0000
  H   H105      1.0  0.56048  0.35470  0.52457  1.0000
  H   H106      1.0  0.65319  0.44756  0.52455  1.0000
  C   C179      1.0  0.63669  0.22188  0.42822  1.0000
  C   C180      1.0  0.59896  0.22180  0.42848  1.0000
  O   O71       1.0  0.65656  0.22744  0.50867  1.0000
  O   O72       1.0  0.58489  0.22746  0.50916  1.0000
  H   H107      1.0  0.65377  0.20067  0.52427  1.0000
  H   H108      1.0  0.56090  0.20074  0.52497  1.0000
