data_image0
_chemical_formula_structural       C3NCH3C3NCH3C3NCH3C3NCH3CNHCNHCNHCNHCNHCNHCNHCNHC3NCH3C3NCH3C3NCH3C3NCH3C3NCH3C3NCH3C3NCH3C3NCH3CNHCNHCNHCNHCNHCNHCNHCNHCNHCNHC6H3C6H3C6H3C6H3C6H3C6H3C6H3C6H3C6H3C6H3C6H3C6H3C6H3C6H3C6H3C6H3C6H3C6H3C6H3C6H3CNHCNHCNHCNHC3NCH3C3NCH3C3NCH3C3NCH3C3NCH3C3NCH3C3NCH3C3NCH3CNHCNHCNHCNHCNHCNHCNHCNHC3NCH3C3NCH3C3NCH3C3NCH3C3NCH3C3NCH3C3NCH3C3NCH3C3NCH3C3NCH3
_chemical_formula_sum              "C270 N60 H180"
_cell_length_a       43.9336
_cell_length_b       43.9336
_cell_length_c       14.8601
_cell_angle_alpha    90
_cell_angle_beta     90
_cell_angle_gamma    90

_space_group_name_H-M_alt    "P 1"
_space_group_IT_number       1

loop_
  _space_group_symop_operation_xyz
  'x, y, z'

loop_
  _atom_site_type_symbol
  _atom_site_label
  _atom_site_symmetry_multiplicity
  _atom_site_fract_x
  _atom_site_fract_y
  _atom_site_fract_z
  _atom_site_occupancy
  C   C1        1.0  0.36127  0.03443  0.28029  1.0000
  C   C2        1.0  0.37433  0.05597  0.34069  1.0000
  C   C3        1.0  0.31293  0.04014  0.35192  1.0000
  N   N1        1.0  0.33125  0.02749  0.28868  1.0000
  C   C4        1.0  0.37683  0.02005  0.20271  1.0000
  H   H1        1.0  0.39922  0.02970  0.18947  1.0000
  H   H2        1.0  0.36323  0.02322  0.14194  1.0000
  H   H3        1.0  0.37933  0.99570  0.21517  1.0000
  C   C5        1.0  0.64831  0.97511  0.27721  1.0000
  C   C6        1.0  0.63510  0.95391  0.33840  1.0000
  C   C7        1.0  0.69649  0.96975  0.34998  1.0000
  N   N2        1.0  0.67832  0.98205  0.28579  1.0000
  C   C8        1.0  0.63298  0.98900  0.19846  1.0000
  H   H4        1.0  0.61062  0.97930  0.18517  1.0000
  H   H5        1.0  0.64675  0.98545  0.13821  1.0000
  H   H6        1.0  0.63047  0.01343  0.20952  1.0000
  C   C9        1.0  0.97506  0.36150  0.28013  1.0000
  C   C10       1.0  0.95350  0.37454  0.34052  1.0000
  C   C11       1.0  0.96939  0.31315  0.35178  1.0000
  N   N3        1.0  0.98203  0.33148  0.28853  1.0000
  C   C12       1.0  0.98943  0.37706  0.20254  1.0000
  H   H7        1.0  0.97976  0.39945  0.18931  1.0000
  H   H8        1.0  0.98627  0.36346  0.14178  1.0000
  H   H9        1.0  0.01378  0.37957  0.21500  1.0000
  C   C13       1.0  0.03442  0.64853  0.27721  1.0000
  C   C14       1.0  0.05559  0.63530  0.33848  1.0000
  C   C15       1.0  0.03981  0.69671  0.34997  1.0000
  N   N4        1.0  0.02748  0.67855  0.28580  1.0000
  C   C16       1.0  0.02046  0.63318  0.19859  1.0000
  H   H10       1.0  0.03014  0.61081  0.18533  1.0000
  H   H11       1.0  0.02400  0.64692  0.13828  1.0000
  H   H12       1.0  0.99604  0.63070  0.20978  1.0000
  C   C17       1.0  0.15451  0.56818  0.27859  1.0000
  N   N5        1.0  0.18429  0.56048  0.27539  1.0000
  H   H13       1.0  0.14657  0.58312  0.23135  1.0000
  C   C18       1.0  0.85491  0.44184  0.27758  1.0000
  N   N6        1.0  0.82513  0.44952  0.27336  1.0000
  H   H14       1.0  0.86308  0.42703  0.23031  1.0000
  C   C19       1.0  0.56797  0.85495  0.27863  1.0000
  N   N7        1.0  0.56025  0.82518  0.27545  1.0000
  H   H15       1.0  0.58291  0.86289  0.23137  1.0000
  C   C20       1.0  0.44159  0.15456  0.27766  1.0000
  N   N8        1.0  0.44925  0.18435  0.27346  1.0000
  H   H16       1.0  0.42675  0.14639  0.23048  1.0000
  C   C21       1.0  0.20564  0.13024  0.27403  1.0000
  N   N9        1.0  0.21688  0.10152  0.27165  1.0000
  H   H17       1.0  0.21144  0.14477  0.22308  1.0000
  C   C22       1.0  0.80370  0.87946  0.27327  1.0000
  N   N10       1.0  0.79249  0.90818  0.27072  1.0000
  H   H18       1.0  0.79791  0.86491  0.22236  1.0000
  C   C23       1.0  0.87933  0.20592  0.27420  1.0000
  N   N11       1.0  0.90806  0.21714  0.27197  1.0000
  H   H19       1.0  0.86480  0.21181  0.22333  1.0000
  C   C24       1.0  0.13008  0.80395  0.27346  1.0000
  N   N12       1.0  0.10136  0.79272  0.27091  1.0000
  H   H20       1.0  0.14463  0.79816  0.22257  1.0000
  C   C25       1.0  0.32759  0.61864  0.27070  1.0000
  C   C26       1.0  0.32130  0.64064  0.33889  1.0000
  C   C27       1.0  0.29873  0.58069  0.34955  1.0000
  N   N13       1.0  0.31556  0.59006  0.27803  1.0000
  C   C28       1.0  0.34398  0.62482  0.18558  1.0000
  H   H21       1.0  0.35043  0.64861  0.17772  1.0000
  H   H22       1.0  0.32951  0.61880  0.12858  1.0000
  H   H23       1.0  0.36457  0.61096  0.18303  1.0000
  C   C29       1.0  0.68180  0.39090  0.26845  1.0000
  C   C30       1.0  0.68799  0.36906  0.33713  1.0000
  C   C31       1.0  0.71044  0.42911  0.34706  1.0000
  N   N14       1.0  0.69376  0.41952  0.27552  1.0000
  C   C32       1.0  0.66551  0.38453  0.18328  1.0000
  H   H24       1.0  0.65910  0.36073  0.17575  1.0000
  H   H25       1.0  0.68004  0.39046  0.12632  1.0000
  H   H26       1.0  0.64490  0.39836  0.18029  1.0000
  C   C33       1.0  0.61842  0.68200  0.27037  1.0000
  C   C34       1.0  0.64042  0.68824  0.33856  1.0000
  C   C35       1.0  0.58041  0.71074  0.34953  1.0000
  N   N15       1.0  0.58983  0.69401  0.27788  1.0000
  C   C36       1.0  0.62460  0.66571  0.18507  1.0000
  H   H27       1.0  0.64838  0.65929  0.17710  1.0000
  H   H28       1.0  0.61855  0.68024  0.12823  1.0000
  H   H29       1.0  0.61076  0.64511  0.18233  1.0000
  C   C37       1.0  0.39070  0.32780  0.26910  1.0000
  C   C38       1.0  0.36884  0.32158  0.33772  1.0000
  C   C39       1.0  0.42885  0.29903  0.34756  1.0000
  N   N16       1.0  0.41929  0.31578  0.27609  1.0000
  C   C40       1.0  0.38434  0.34409  0.18394  1.0000
  H   H30       1.0  0.36055  0.35055  0.17647  1.0000
  H   H31       1.0  0.39022  0.32954  0.12697  1.0000
  H   H32       1.0  0.39821  0.36467  0.18089  1.0000
  C   C41       1.0  0.24270  0.94525  0.27246  1.0000
  C   C42       1.0  0.22876  0.96719  0.33020  1.0000
  C   C43       1.0  0.21587  0.90441  0.34425  1.0000
  N   N17       1.0  0.23596  0.91518  0.28267  1.0000
  C   C44       1.0  0.26356  0.95221  0.19684  1.0000
  H   H33       1.0  0.26491  0.97647  0.18213  1.0000
  H   H34       1.0  0.25553  0.94092  0.13584  1.0000
  H   H35       1.0  0.28633  0.94381  0.21255  1.0000
  C   C45       1.0  0.76691  0.06455  0.27123  1.0000
  C   C46       1.0  0.78073  0.04259  0.32918  1.0000
  C   C47       1.0  0.79354  0.10536  0.34368  1.0000
  N   N18       1.0  0.77361  0.09461  0.28163  1.0000
  C   C48       1.0  0.74626  0.05757  0.19511  1.0000
  H   H36       1.0  0.74493  0.03331  0.18043  1.0000
  H   H37       1.0  0.75446  0.06884  0.13429  1.0000
  H   H38       1.0  0.72345  0.06599  0.21025  1.0000
  C   C49       1.0  0.06432  0.24290  0.27251  1.0000
  C   C50       1.0  0.04237  0.22899  0.33030  1.0000
  C   C51       1.0  0.10514  0.21606  0.34432  1.0000
  N   N19       1.0  0.09438  0.23614  0.28271  1.0000
  C   C52       1.0  0.05736  0.26375  0.19685  1.0000
  H   H39       1.0  0.03309  0.26511  0.18216  1.0000
  H   H40       1.0  0.06864  0.25571  0.13586  1.0000
  H   H41       1.0  0.06576  0.28652  0.21252  1.0000
  C   C53       1.0  0.94503  0.76715  0.27107  1.0000
  C   C54       1.0  0.96698  0.78097  0.32906  1.0000
  C   C55       1.0  0.90419  0.79373  0.34356  1.0000
  N   N20       1.0  0.91496  0.77382  0.28149  1.0000
  C   C56       1.0  0.95202  0.74649  0.19499  1.0000
  H   H42       1.0  0.97628  0.74517  0.18032  1.0000
  H   H43       1.0  0.94075  0.75467  0.13416  1.0000
  H   H44       1.0  0.94362  0.72368  0.21017  1.0000
  C   C57       1.0  0.30210  0.45559  0.29307  1.0000
  N   N21       1.0  0.30778  0.42519  0.28830  1.0000
  H   H45       1.0  0.31272  0.46955  0.24786  1.0000
  C   C58       1.0  0.70700  0.55425  0.29179  1.0000
  N   N22       1.0  0.70137  0.58467  0.28734  1.0000
  H   H46       1.0  0.69639  0.54037  0.24638  1.0000
  C   C59       1.0  0.45533  0.70736  0.29335  1.0000
  N   N23       1.0  0.42493  0.70166  0.28867  1.0000
  H   H47       1.0  0.46929  0.69672  0.24819  1.0000
  C   C60       1.0  0.55399  0.30251  0.29164  1.0000
  N   N24       1.0  0.58441  0.30814  0.28714  1.0000
  H   H48       1.0  0.54009  0.31315  0.24633  1.0000
  C   C61       1.0  0.21125  0.27647  0.29879  1.0000
  N   N25       1.0  0.23333  0.29825  0.29674  1.0000
  H   H49       1.0  0.19332  0.27883  0.25552  1.0000
  C   C62       1.0  0.79805  0.73327  0.29832  1.0000
  N   N26       1.0  0.77596  0.71150  0.29633  1.0000
  H   H50       1.0  0.81597  0.73089  0.25505  1.0000
  C   C63       1.0  0.73308  0.21147  0.29830  1.0000
  N   N27       1.0  0.71131  0.23356  0.29616  1.0000
  H   H51       1.0  0.73077  0.19358  0.25489  1.0000
  C   C64       1.0  0.27628  0.79827  0.29881  1.0000
  N   N28       1.0  0.29805  0.77617  0.29685  1.0000
  H   H52       1.0  0.27867  0.81619  0.25556  1.0000
  C   C65       1.0  0.50654  0.02812  0.29015  1.0000
  N   N29       1.0  0.52805  0.00612  0.28836  1.0000
  H   H53       1.0  0.50793  0.04510  0.24328  1.0000
  C   C66       1.0  0.98133  0.50677  0.29023  1.0000
  N   N30       1.0  0.00334  0.52826  0.28845  1.0000
  H   H54       1.0  0.96436  0.50815  0.24332  1.0000
  C   C67       1.0  0.28141  0.03434  0.35099  1.0000
  C   C68       1.0  0.26077  0.05883  0.34923  1.0000
  C   C69       1.0  0.22911  0.05405  0.34146  1.0000
  C   C70       1.0  0.21814  0.02366  0.33714  1.0000
  C   C71       1.0  0.23848  0.99840  0.33650  1.0000
  C   C72       1.0  0.27003  0.00444  0.34521  1.0000
  H   H55       1.0  0.19525  0.01997  0.33029  1.0000
  H   H56       1.0  0.28516  0.98671  0.34805  1.0000
  H   H57       1.0  0.26910  0.08064  0.35150  1.0000
  C   C73       1.0  0.72800  0.97551  0.34930  1.0000
  C   C74       1.0  0.74860  0.95099  0.34772  1.0000
  C   C75       1.0  0.78029  0.95574  0.34028  1.0000
  C   C76       1.0  0.79130  0.98611  0.33628  1.0000
  C   C77       1.0  0.77098  0.01139  0.33532  1.0000
  C   C78       1.0  0.73942  0.00539  0.34361  1.0000
  H   H58       1.0  0.81419  0.98977  0.32955  1.0000
  H   H59       1.0  0.72429  0.02313  0.34624  1.0000
  H   H60       1.0  0.74023  0.92919  0.34989  1.0000
  C   C79       1.0  0.97521  0.28163  0.35096  1.0000
  C   C80       1.0  0.95073  0.26099  0.34932  1.0000
  C   C81       1.0  0.95552  0.22932  0.34152  1.0000
  C   C82       1.0  0.98591  0.21836  0.33739  1.0000
  C   C83       1.0  0.01116  0.23871  0.33663  1.0000
  C   C84       1.0  0.00512  0.27026  0.34519  1.0000
  H   H61       1.0  0.98961  0.19548  0.33044  1.0000
  H   H62       1.0  0.02284  0.28541  0.34794  1.0000
  H   H63       1.0  0.92891  0.26931  0.35150  1.0000
  C   C85       1.0  0.03405  0.72822  0.34933  1.0000
  C   C86       1.0  0.05857  0.74882  0.34789  1.0000
  C   C87       1.0  0.05383  0.78051  0.34041  1.0000
  C   C88       1.0  0.02345  0.79152  0.33626  1.0000
  C   C89       1.0  0.99817  0.77121  0.33530  1.0000
  C   C90       1.0  0.00416  0.73964  0.34356  1.0000
  H   H64       1.0  0.01980  0.81442  0.32961  1.0000
  H   H65       1.0  0.98642  0.72452  0.34612  1.0000
  H   H66       1.0  0.08037  0.74045  0.35005  1.0000
  C   C91       1.0  0.22799  0.53442  0.33426  1.0000
  C   C92       1.0  0.24855  0.55897  0.33589  1.0000
  C   C93       1.0  0.28023  0.55426  0.34364  1.0000
  C   C94       1.0  0.29128  0.52390  0.34792  1.0000
  C   C95       1.0  0.27099  0.49860  0.34865  1.0000
  C   C96       1.0  0.23943  0.50455  0.34011  1.0000
  H   H67       1.0  0.31417  0.52027  0.35490  1.0000
  H   H68       1.0  0.22432  0.48679  0.33757  1.0000
  H   H69       1.0  0.24015  0.58077  0.33378  1.0000
  C   C97       1.0  0.78116  0.47538  0.33147  1.0000
  C   C98       1.0  0.76061  0.45081  0.33305  1.0000
  C   C99       1.0  0.72894  0.45552  0.34108  1.0000
  C   C100      1.0  0.71788  0.48587  0.34580  1.0000
  C   C101      1.0  0.73816  0.51117  0.34650  1.0000
  C   C102      1.0  0.76971  0.50523  0.33763  1.0000
  H   H70       1.0  0.69500  0.48949  0.35301  1.0000
  H   H71       1.0  0.78482  0.52300  0.33530  1.0000
  H   H72       1.0  0.76902  0.42903  0.33084  1.0000
  C   C103      1.0  0.53419  0.78150  0.33439  1.0000
  C   C104      1.0  0.55873  0.76092  0.33602  1.0000
  C   C105      1.0  0.55400  0.72925  0.34378  1.0000
  C   C106      1.0  0.52364  0.71821  0.34808  1.0000
  C   C107      1.0  0.49834  0.73851  0.34879  1.0000
  C   C108      1.0  0.50431  0.77007  0.34021  1.0000
  H   H73       1.0  0.51999  0.69532  0.35495  1.0000
  H   H74       1.0  0.48656  0.78519  0.33766  1.0000
  H   H75       1.0  0.58052  0.76931  0.33385  1.0000
  C   C109      1.0  0.47511  0.22832  0.33159  1.0000
  C   C110      1.0  0.45055  0.24887  0.33334  1.0000
  C   C111      1.0  0.45527  0.28055  0.34136  1.0000
  C   C112      1.0  0.48562  0.29160  0.34588  1.0000
  C   C113      1.0  0.51093  0.27131  0.34643  1.0000
  C   C114      1.0  0.50498  0.23976  0.33753  1.0000
  H   H76       1.0  0.48926  0.31448  0.35308  1.0000
  H   H77       1.0  0.52274  0.22465  0.33505  1.0000
  H   H78       1.0  0.42876  0.24046  0.33125  1.0000
  C   C115      1.0  0.19082  0.22663  0.35194  1.0000
  C   C116      1.0  0.19954  0.19552  0.34838  1.0000
  C   C117      1.0  0.17809  0.17140  0.35015  1.0000
  C   C118      1.0  0.14682  0.17889  0.35092  1.0000
  C   C119      1.0  0.13684  0.20948  0.34899  1.0000
  C   C120      1.0  0.15909  0.23293  0.34912  1.0000
  H   H79       1.0  0.13107  0.16169  0.34903  1.0000
  H   H80       1.0  0.15194  0.25511  0.35062  1.0000
  H   H81       1.0  0.22221  0.19017  0.34591  1.0000
  C   C121      1.0  0.81852  0.78310  0.35143  1.0000
  C   C122      1.0  0.80979  0.81421  0.34786  1.0000
  C   C123      1.0  0.83122  0.83834  0.34960  1.0000
  C   C124      1.0  0.86250  0.83086  0.35041  1.0000
  C   C125      1.0  0.87249  0.80027  0.34838  1.0000
  C   C126      1.0  0.85025  0.77681  0.34850  1.0000
  H   H82       1.0  0.87824  0.84807  0.34834  1.0000
  H   H83       1.0  0.85741  0.75464  0.34994  1.0000
  H   H84       1.0  0.78712  0.81956  0.34541  1.0000
  C   C127      1.0  0.78290  0.19103  0.35161  1.0000
  C   C128      1.0  0.81401  0.19977  0.34821  1.0000
  C   C129      1.0  0.83814  0.17834  0.35006  1.0000
  C   C130      1.0  0.83067  0.14706  0.35074  1.0000
  C   C131      1.0  0.80008  0.13706  0.34854  1.0000
  C   C132      1.0  0.77662  0.15930  0.34861  1.0000
  H   H85       1.0  0.84788  0.13132  0.34875  1.0000
  H   H86       1.0  0.75445  0.15214  0.34994  1.0000
  H   H87       1.0  0.81935  0.22244  0.34588  1.0000
  C   C133      1.0  0.22643  0.81873  0.35178  1.0000
  C   C134      1.0  0.19532  0.81001  0.34807  1.0000
  C   C135      1.0  0.17120  0.83146  0.34984  1.0000
  C   C136      1.0  0.17870  0.86274  0.35072  1.0000
  C   C137      1.0  0.20929  0.87271  0.34887  1.0000
  C   C138      1.0  0.23274  0.85045  0.34906  1.0000
  H   H88       1.0  0.16149  0.87848  0.34873  1.0000
  H   H89       1.0  0.25492  0.85759  0.35058  1.0000
  H   H90       1.0  0.18996  0.78734  0.34557  1.0000
  C   C139      1.0  0.31879  0.72693  0.34399  1.0000
  C   C140      1.0  0.30972  0.69595  0.34349  1.0000
  C   C141      1.0  0.33105  0.67179  0.33715  1.0000
  C   C142      1.0  0.36237  0.67921  0.33453  1.0000
  C   C143      1.0  0.37255  0.70975  0.33777  1.0000
  C   C144      1.0  0.35043  0.73329  0.34158  1.0000
  H   H91       1.0  0.37805  0.66194  0.33416  1.0000
  H   H92       1.0  0.35752  0.75549  0.34405  1.0000
  H   H93       1.0  0.28698  0.69082  0.34500  1.0000
  C   C145      1.0  0.69051  0.28278  0.34319  1.0000
  C   C146      1.0  0.69958  0.31376  0.34246  1.0000
  C   C147      1.0  0.67826  0.33790  0.33579  1.0000
  C   C148      1.0  0.64694  0.33049  0.33309  1.0000
  C   C149      1.0  0.63675  0.29996  0.33649  1.0000
  C   C150      1.0  0.65886  0.27642  0.34062  1.0000
  H   H94       1.0  0.63126  0.34777  0.33238  1.0000
  H   H95       1.0  0.65177  0.25422  0.34319  1.0000
  H   H96       1.0  0.72232  0.31889  0.34407  1.0000
  C   C151      1.0  0.72672  0.69074  0.34348  1.0000
  C   C152      1.0  0.69574  0.69981  0.34309  1.0000
  C   C153      1.0  0.67158  0.67850  0.33668  1.0000
  C   C154      1.0  0.67899  0.64718  0.33385  1.0000
  C   C155      1.0  0.70952  0.63699  0.33685  1.0000
  C   C156      1.0  0.73307  0.65910  0.34079  1.0000
  H   H97       1.0  0.66171  0.63151  0.33335  1.0000
  H   H98       1.0  0.75527  0.65199  0.34315  1.0000
  H   H99       1.0  0.69062  0.72256  0.34482  1.0000
  C   C157      1.0  0.28256  0.31903  0.34375  1.0000
  C   C158      1.0  0.31354  0.30997  0.34292  1.0000
  C   C159      1.0  0.33768  0.33131  0.33636  1.0000
  C   C160      1.0  0.33025  0.36262  0.33386  1.0000
  C   C161      1.0  0.29972  0.37280  0.33739  1.0000
  C   C162      1.0  0.27618  0.35068  0.34142  1.0000
  H   H100      1.0  0.34752  0.37831  0.33323  1.0000
  H   H101      1.0  0.25399  0.35776  0.34408  1.0000
  H   H102      1.0  0.31868  0.28723  0.34439  1.0000
  C   C163      1.0  0.44525  0.10416  0.34677  1.0000
  C   C164      1.0  0.41433  0.09539  0.34267  1.0000
  C   C165      1.0  0.40560  0.06443  0.34130  1.0000
  C   C166      1.0  0.42858  0.04203  0.34611  1.0000
  C   C167      1.0  0.45968  0.05000  0.35071  1.0000
  C   C168      1.0  0.46765  0.08113  0.34857  1.0000
  H   H103      1.0  0.42254  0.01951  0.34648  1.0000
  H   H104      1.0  0.49018  0.08717  0.34992  1.0000
  H   H105      1.0  0.39784  0.11187  0.34061  1.0000
  C   C169      1.0  0.56416  0.90567  0.34537  1.0000
  C   C170      1.0  0.59510  0.91445  0.34138  1.0000
  C   C171      1.0  0.60383  0.94543  0.33847  1.0000
  C   C172      1.0  0.58083  0.96785  0.34093  1.0000
  C   C173      1.0  0.54980  0.95970  0.34351  1.0000
  C   C174      1.0  0.54170  0.92865  0.34498  1.0000
  H   H106      1.0  0.58677  0.99040  0.34291  1.0000
  H   H107      1.0  0.51914  0.92270  0.34442  1.0000
  H   H108      1.0  0.61160  0.89797  0.34080  1.0000
  C   C175      1.0  0.90530  0.44546  0.34675  1.0000
  C   C176      1.0  0.91407  0.41453  0.34257  1.0000
  C   C177      1.0  0.94504  0.40581  0.34113  1.0000
  C   C178      1.0  0.96743  0.42879  0.34599  1.0000
  C   C179      1.0  0.95946  0.45988  0.35068  1.0000
  C   C180      1.0  0.92833  0.46786  0.34858  1.0000
  H   H109      1.0  0.98996  0.42275  0.34636  1.0000
  H   H110      1.0  0.92229  0.49038  0.35000  1.0000
  H   H111      1.0  0.89759  0.39804  0.34048  1.0000
  C   C181      1.0  0.10380  0.56435  0.34536  1.0000
  C   C182      1.0  0.09503  0.59529  0.34142  1.0000
  C   C183      1.0  0.06405  0.60403  0.33856  1.0000
  C   C184      1.0  0.04163  0.58104  0.34107  1.0000
  C   C185      1.0  0.04977  0.55000  0.34360  1.0000
  C   C186      1.0  0.08082  0.54190  0.34499  1.0000
  H   H112      1.0  0.01907  0.58698  0.34305  1.0000
  H   H113      1.0  0.08676  0.51934  0.34443  1.0000
  H   H114      1.0  0.11151  0.61180  0.34082  1.0000
  C   C187      1.0  0.35464  0.06885  0.40576  1.0000
  N   N31       1.0  0.32488  0.06109  0.40873  1.0000
  H   H115      1.0  0.36237  0.08428  0.45193  1.0000
  C   C188      1.0  0.65465  0.94135  0.40438  1.0000
  N   N32       1.0  0.68441  0.94910  0.40753  1.0000
  H   H116      1.0  0.64681  0.92616  0.45107  1.0000
  C   C189      1.0  0.94064  0.35484  0.40559  1.0000
  N   N33       1.0  0.94843  0.32509  0.40859  1.0000
  H   H117      1.0  0.92521  0.36257  0.45176  1.0000
  C   C190      1.0  0.06816  0.65485  0.40444  1.0000
  N   N34       1.0  0.06044  0.68462  0.40755  1.0000
  H   H118      1.0  0.08334  0.64700  0.45115  1.0000
  C   C191      1.0  0.14843  0.53506  0.40735  1.0000
  C   C192      1.0  0.13508  0.55591  0.34535  1.0000
  C   C193      1.0  0.19648  0.54014  0.33367  1.0000
  N   N35       1.0  0.17844  0.52813  0.39866  1.0000
  C   C194      1.0  0.13327  0.52157  0.48702  1.0000
  H   H119      1.0  0.11099  0.53141  0.50047  1.0000
  H   H120      1.0  0.14722  0.52535  0.54681  1.0000
  H   H121      1.0  0.13066  0.49710  0.47700  1.0000
  C   C195      1.0  0.86035  0.47452  0.40754  1.0000
  C   C196      1.0  0.87402  0.45391  0.34549  1.0000
  C   C197      1.0  0.81268  0.46970  0.33167  1.0000
  N   N36       1.0  0.83039  0.48149  0.39773  1.0000
  C   C198      1.0  0.87509  0.48776  0.48827  1.0000
  H   H122      1.0  0.89721  0.47773  0.50278  1.0000
  H   H123      1.0  0.86075  0.48396  0.54722  1.0000
  H   H124      1.0  0.87792  0.51223  0.47881  1.0000
  C   C199      1.0  0.53487  0.86106  0.40743  1.0000
  C   C200      1.0  0.55572  0.87439  0.34540  1.0000
  C   C201      1.0  0.53991  0.81301  0.33376  1.0000
  N   N37       1.0  0.52792  0.83105  0.39877  1.0000
  C   C202      1.0  0.52140  0.87623  0.48712  1.0000
  H   H125      1.0  0.53126  0.89851  0.50053  1.0000
  H   H126      1.0  0.52519  0.86228  0.54690  1.0000
  H   H127      1.0  0.49694  0.87885  0.47714  1.0000
  C   C203      1.0  0.47437  0.14911  0.40741  1.0000
  C   C204      1.0  0.45370  0.13545  0.34548  1.0000
  C   C205      1.0  0.46945  0.19681  0.33167  1.0000
  N   N38       1.0  0.48129  0.17908  0.39764  1.0000
  C   C206      1.0  0.48761  0.13439  0.48815  1.0000
  H   H128      1.0  0.47759  0.11226  0.50270  1.0000
  H   H129      1.0  0.48380  0.14874  0.54709  1.0000
  H   H130      1.0  0.51208  0.13157  0.47870  1.0000
  C   C207      1.0  0.18149  0.11811  0.41517  1.0000
  C   C208      1.0  0.18775  0.14025  0.34739  1.0000
  C   C209      1.0  0.21053  0.08044  0.33587  1.0000
  N   N39       1.0  0.19360  0.08958  0.40740  1.0000
  C   C210      1.0  0.16491  0.12408  0.50010  1.0000
  H   H131      1.0  0.15815  0.14778  0.50791  1.0000
  H   H132      1.0  0.17938  0.11823  0.55725  1.0000
  H   H133      1.0  0.14448  0.10998  0.50243  1.0000
  C   C211      1.0  0.82786  0.89167  0.41430  1.0000
  C   C212      1.0  0.82156  0.86948  0.34671  1.0000
  C   C213      1.0  0.79882  0.92932  0.33481  1.0000
  N   N40       1.0  0.81575  0.92020  0.40638  1.0000
  C   C214      1.0  0.84438  0.88574  0.49938  1.0000
  H   H134      1.0  0.85112  0.86204  0.50733  1.0000
  H   H135      1.0  0.82987  0.89163  0.55641  1.0000
  H   H136      1.0  0.86482  0.89983  0.50175  1.0000
  C   C215      1.0  0.89141  0.18166  0.41519  1.0000
  C   C216      1.0  0.86928  0.18800  0.34744  1.0000
  C   C217      1.0  0.92916  0.21072  0.33611  1.0000
  N   N41       1.0  0.91996  0.19374  0.40749  1.0000
  C   C218      1.0  0.88542  0.16503  0.50004  1.0000
  H   H137      1.0  0.86171  0.15832  0.50784  1.0000
  H   H138      1.0  0.89131  0.17946  0.55726  1.0000
  H   H139      1.0  0.89949  0.14458  0.50221  1.0000
  C   C219      1.0  0.11788  0.82807  0.41459  1.0000
  C   C220      1.0  0.14006  0.82180  0.34693  1.0000
  C   C221      1.0  0.08024  0.79905  0.33506  1.0000
  N   N42       1.0  0.08934  0.81598  0.40665  1.0000
  C   C222      1.0  0.12381  0.84463  0.49959  1.0000
  H   H140      1.0  0.14750  0.85137  0.50755  1.0000
  H   H141      1.0  0.11790  0.83015  0.55668  1.0000
  H   H142      1.0  0.10971  0.86507  0.50186  1.0000
  C   C223      1.0  0.30356  0.63036  0.41228  1.0000
  N   N43       1.0  0.29241  0.60161  0.41426  1.0000
  H   H143      1.0  0.29784  0.64471  0.46375  1.0000
  C   C224      1.0  0.70561  0.37951  0.41056  1.0000
  N   N44       1.0  0.71671  0.40828  0.41210  1.0000
  H   H144      1.0  0.71134  0.36525  0.46225  1.0000
  C   C225      1.0  0.63015  0.70590  0.41209  1.0000
  N   N45       1.0  0.60138  0.71701  0.41417  1.0000
  H   H145      1.0  0.64450  0.71159  0.46358  1.0000
  C   C226      1.0  0.37926  0.30392  0.41109  1.0000
  N   N46       1.0  0.40802  0.29278  0.41259  1.0000
  H   H146      1.0  0.36500  0.29819  0.46275  1.0000
  C   C227      1.0  0.20709  0.95554  0.39173  1.0000
  N   N47       1.0  0.20128  0.92517  0.39671  1.0000
  H   H147      1.0  0.19635  0.96960  0.43640  1.0000
  C   C228      1.0  0.80223  0.05423  0.39125  1.0000
  N   N48       1.0  0.80802  0.08460  0.39641  1.0000
  H   H148      1.0  0.81288  0.04016  0.43609  1.0000
  C   C229      1.0  0.05400  0.20732  0.39185  1.0000
  N   N49       1.0  0.08438  0.20150  0.39685  1.0000
  H   H149      1.0  0.03995  0.19663  0.43665  1.0000
  C   C230      1.0  0.95531  0.80243  0.39119  1.0000
  N   N50       1.0  0.92494  0.80820  0.39636  1.0000
  H   H150      1.0  0.96937  0.81305  0.43613  1.0000
  C   C231      1.0  0.26693  0.44562  0.41371  1.0000
  C   C232      1.0  0.28075  0.46743  0.35528  1.0000
  C   C233      1.0  0.29332  0.40456  0.34155  1.0000
  N   N51       1.0  0.27353  0.41553  0.40368  1.0000
  C   C234      1.0  0.24637  0.45279  0.48987  1.0000
  H   H151      1.0  0.24508  0.47709  0.50407  1.0000
  H   H152      1.0  0.25461  0.44165  0.55084  1.0000
  H   H153      1.0  0.22353  0.44438  0.47508  1.0000
  C   C235      1.0  0.74230  0.56406  0.41225  1.0000
  C   C236      1.0  0.72841  0.54233  0.35370  1.0000
  C   C237      1.0  0.71589  0.60522  0.34070  1.0000
  N   N52       1.0  0.73572  0.59417  0.40257  1.0000
  C   C238      1.0  0.76296  0.55678  0.48808  1.0000
  H   H154      1.0  0.76425  0.53246  0.50202  1.0000
  H   H155      1.0  0.75481  0.56785  0.54926  1.0000
  H   H156      1.0  0.78578  0.56519  0.47311  1.0000
  C   C239      1.0  0.44537  0.74260  0.41384  1.0000
  C   C240      1.0  0.46716  0.72877  0.35537  1.0000
  C   C241      1.0  0.40431  0.71616  0.34185  1.0000
  N   N53       1.0  0.41527  0.73597  0.40389  1.0000
  C   C242      1.0  0.45254  0.76319  0.48994  1.0000
  H   H157      1.0  0.47684  0.76448  0.50413  1.0000
  H   H158      1.0  0.44140  0.75496  0.55093  1.0000
  H   H159      1.0  0.44412  0.78601  0.47508  1.0000
  C   C243      1.0  0.56383  0.26715  0.41193  1.0000
  C   C244      1.0  0.54210  0.28104  0.35338  1.0000
  C   C245      1.0  0.60498  0.29358  0.34035  1.0000
  N   N54       1.0  0.59394  0.27374  0.40222  1.0000
  C   C246      1.0  0.55657  0.24650  0.48781  1.0000
  H   H160      1.0  0.53226  0.24521  0.50180  1.0000
  H   H161      1.0  0.56766  0.25467  0.54895  1.0000
  H   H162      1.0  0.56499  0.22368  0.47284  1.0000
  C   C247      1.0  0.23981  0.25005  0.41215  1.0000
  C   C248      1.0  0.21348  0.25060  0.35569  1.0000
  C   C249      1.0  0.25883  0.29673  0.34839  1.0000
  N   N55       1.0  0.26111  0.27252  0.40488  1.0000
  C   C250      1.0  0.24578  0.22780  0.48498  1.0000
  H   H163      1.0  0.22577  0.21441  0.50243  1.0000
  H   H164      1.0  0.25284  0.23973  0.54599  1.0000
  H   H165      1.0  0.26405  0.21247  0.46447  1.0000
  C   C251      1.0  0.76953  0.75970  0.41172  1.0000
  C   C252      1.0  0.79585  0.75913  0.35523  1.0000
  C   C253      1.0  0.75047  0.71303  0.34803  1.0000
  N   N56       1.0  0.74822  0.73724  0.40454  1.0000
  C   C254      1.0  0.76362  0.78192  0.48470  1.0000
  H   H166      1.0  0.78364  0.79531  0.50203  1.0000
  H   H167      1.0  0.75664  0.76995  0.54572  1.0000
  H   H168      1.0  0.74533  0.79725  0.46442  1.0000
  C   C255      1.0  0.75942  0.23998  0.41191  1.0000
  C   C256      1.0  0.75892  0.21368  0.35532  1.0000
  C   C257      1.0  0.71280  0.25904  0.34790  1.0000
  N   N57       1.0  0.73696  0.26130  0.40457  1.0000
  C   C258      1.0  0.78162  0.24592  0.48490  1.0000
  H   H169      1.0  0.79502  0.22591  0.50230  1.0000
  H   H170      1.0  0.76965  0.25293  0.54586  1.0000
  H   H171      1.0  0.79695  0.26422  0.46459  1.0000
  C   C259      1.0  0.24981  0.76973  0.41210  1.0000
  C   C260      1.0  0.25039  0.79605  0.35560  1.0000
  C   C261      1.0  0.29649  0.75067  0.34850  1.0000
  N   N58       1.0  0.27226  0.74841  0.40492  1.0000
  C   C262      1.0  0.22752  0.76378  0.48486  1.0000
  H   H172      1.0  0.21413  0.78380  0.50223  1.0000
  H   H173      1.0  0.23942  0.75674  0.54592  1.0000
  H   H174      1.0  0.21220  0.74551  0.46434  1.0000
  C   C263      1.0  0.48246  0.00226  0.41510  1.0000
  C   C264      1.0  0.48254  0.02714  0.35364  1.0000
  C   C265      1.0  0.52720  0.98226  0.34600  1.0000
  N   N59       1.0  0.50461  0.98084  0.40797  1.0000
  C   C266      1.0  0.46134  0.99805  0.49183  1.0000
  H   H175      1.0  0.44726  0.01798  0.50468  1.0000
  H   H176      1.0  0.47431  0.99359  0.55310  1.0000
  H   H177      1.0  0.44655  0.97859  0.47864  1.0000
  C   C267      1.0  0.00719  0.48267  0.41517  1.0000
  C   C268      1.0  0.98232  0.48275  0.35367  1.0000
  C   C269      1.0  0.02721  0.52741  0.34609  1.0000
  N   N60       1.0  0.02862  0.50480  0.40803  1.0000
  C   C270      1.0  0.01143  0.46150  0.49177  1.0000
  H   H178      1.0  0.99150  0.44742  0.50460  1.0000
  H   H179      1.0  0.01591  0.47443  0.55308  1.0000
  H   H180      1.0  0.03087  0.44671  0.47843  1.0000
