data_image0
_chemical_formula_structural       C2NC2NC2NC2NC2NC2N2CHNCHNCHNCHNCHNCHCNCNCNC18H12CNCNCNC18H12CNCNCNC18H12CNCNCNC18H12CNCNCNC18H12CNCNCNC18H12NCHNCHNCHC2NC2NC2NC2NC2NC2NC2NC2NC2NC2NC2NC2N
_chemical_formula_sum              "C171 N45 H81"
_cell_length_a       60.1661
_cell_length_b       60.1662
_cell_length_c       15.032
_cell_angle_alpha    90
_cell_angle_beta     90
_cell_angle_gamma    120

_space_group_name_H-M_alt    "P 1"
_space_group_IT_number       1

loop_
  _space_group_symop_operation_xyz
  'x, y, z'

loop_
  _atom_site_type_symbol
  _atom_site_label
  _atom_site_symmetry_multiplicity
  _atom_site_fract_x
  _atom_site_fract_y
  _atom_site_fract_z
  _atom_site_occupancy
  C   C1        1.0  0.02520  0.51260  0.31535  1.0000
  C   C2        1.0  0.97158  0.48455  0.32675  1.0000
  N   N1        1.0  0.98385  0.50200  0.26098  1.0000
  C   C3        1.0  0.00970  0.51615  0.25224  1.0000
  C   C4        1.0  0.01837  0.53092  0.18268  1.0000
  N   N2        1.0  0.02599  0.54387  0.12103  1.0000
  C   C5        1.0  0.48480  0.51211  0.31487  1.0000
  C   C6        1.0  0.51287  0.48656  0.32626  1.0000
  N   N3        1.0  0.49546  0.48141  0.26037  1.0000
  C   C7        1.0  0.48131  0.49311  0.25161  1.0000
  C   C8        1.0  0.46658  0.48705  0.18194  1.0000
  N   N4        1.0  0.45368  0.48176  0.12018  1.0000
  C   C9        1.0  0.48524  0.97218  0.31513  1.0000
  C   C10       1.0  0.51079  0.02580  0.32648  1.0000
  N   N5        1.0  0.51601  0.01353  0.26082  1.0000
  C   C11       1.0  0.50432  0.98767  0.25209  1.0000
  C   C12       1.0  0.51047  0.97900  0.18264  1.0000
  N   N6        1.0  0.51584  0.97139  0.12108  1.0000
  N   N7        1.0  0.26908  0.52088  0.25844  1.0000
  C   C13       1.0  0.24581  0.51926  0.26319  1.0000
  H   H1        1.0  0.23768  0.52107  0.20593  1.0000
  N   N8        1.0  0.47629  0.74753  0.25843  1.0000
  C   C14       1.0  0.47789  0.72588  0.26336  1.0000
  H   H2        1.0  0.47618  0.71601  0.20602  1.0000
  N   N9        1.0  0.24972  0.72823  0.25822  1.0000
  C   C15       1.0  0.27136  0.75149  0.26296  1.0000
  H   H3        1.0  0.28121  0.75964  0.20557  1.0000
  N   N10       1.0  0.72842  0.47745  0.25682  1.0000
  C   C16       1.0  0.75153  0.47870  0.26084  1.0000
  H   H4        1.0  0.75966  0.47717  0.20315  1.0000
  N   N11       1.0  0.51992  0.25051  0.25696  1.0000
  C   C17       1.0  0.51865  0.27236  0.26122  1.0000
  H   H5        1.0  0.52019  0.28207  0.20363  1.0000
  N   N12       1.0  0.74692  0.26885  0.25671  1.0000
  C   C18       1.0  0.72507  0.24575  0.26101  1.0000
  H   H6        1.0  0.71539  0.23755  0.20340  1.0000
  C   C19       1.0  0.17436  0.60607  0.32355  1.0000
  N   N13       1.0  0.14833  0.59272  0.32101  1.0000
  C   C20       1.0  0.13461  0.56664  0.32619  1.0000
  N   N14       1.0  0.14794  0.55396  0.33482  1.0000
  C   C21       1.0  0.17395  0.56651  0.33923  1.0000
  N   N15       1.0  0.18671  0.59250  0.33315  1.0000
  C   C22       1.0  0.10730  0.55316  0.32296  1.0000
  C   C23       1.0  0.09352  0.56639  0.31201  1.0000
  C   C24       1.0  0.06658  0.55313  0.30895  1.0000
  C   C25       1.0  0.05243  0.52612  0.31636  1.0000
  C   C26       1.0  0.06599  0.51281  0.32878  1.0000
  C   C27       1.0  0.09295  0.52609  0.33138  1.0000
  C   C28       1.0  0.18844  0.63322  0.31720  1.0000
  C   C29       1.0  0.17835  0.64856  0.34882  1.0000
  C   C30       1.0  0.19355  0.67553  0.35030  1.0000
  C   C31       1.0  0.21889  0.68784  0.31701  1.0000
  C   C32       1.0  0.22856  0.67261  0.28142  1.0000
  C   C33       1.0  0.21363  0.64573  0.28217  1.0000
  C   C34       1.0  0.18771  0.55324  0.34917  1.0000
  C   C35       1.0  0.21099  0.56454  0.39743  1.0000
  C   C36       1.0  0.22594  0.55265  0.40192  1.0000
  C   C37       1.0  0.21845  0.52939  0.35630  1.0000
  C   C38       1.0  0.19493  0.51777  0.30944  1.0000
  C   C39       1.0  0.17945  0.52924  0.30768  1.0000
  H   H7        1.0  0.18631  0.68608  0.37848  1.0000
  H   H8        1.0  0.16041  0.64022  0.37647  1.0000
  H   H9        1.0  0.24713  0.68086  0.25945  1.0000
  H   H10       1.0  0.22167  0.63541  0.25838  1.0000
  H   H11       1.0  0.21762  0.58188  0.42845  1.0000
  H   H12       1.0  0.24329  0.56216  0.43381  1.0000
  H   H13       1.0  0.16301  0.52080  0.27038  1.0000
  H   H14       1.0  0.18925  0.50124  0.27417  1.0000
  H   H15       1.0  0.10192  0.51559  0.33991  1.0000
  H   H16       1.0  0.05636  0.49323  0.33477  1.0000
  H   H17       1.0  0.05740  0.56350  0.30305  1.0000
  H   H18       1.0  0.10290  0.58596  0.30655  1.0000
  C   C40       1.0  0.39122  0.56768  0.32369  1.0000
  N   N16       1.0  0.40458  0.55501  0.32102  1.0000
  C   C41       1.0  0.43066  0.56738  0.32613  1.0000
  N   N17       1.0  0.44333  0.59339  0.33484  1.0000
  C   C42       1.0  0.43078  0.60684  0.33937  1.0000
  N   N18       1.0  0.40478  0.59359  0.33337  1.0000
  C   C43       1.0  0.44417  0.55358  0.32276  1.0000
  C   C44       1.0  0.43096  0.52658  0.31146  1.0000
  C   C45       1.0  0.44425  0.51292  0.30829  1.0000
  C   C46       1.0  0.47126  0.52580  0.31591  1.0000
  C   C47       1.0  0.48454  0.55266  0.32868  1.0000
  C   C48       1.0  0.47123  0.56631  0.33139  1.0000
  C   C49       1.0  0.36407  0.55460  0.31740  1.0000
  C   C50       1.0  0.34874  0.52916  0.34895  1.0000
  C   C51       1.0  0.32176  0.51736  0.35033  1.0000
  C   C52       1.0  0.30943  0.53038  0.31709  1.0000
  C   C53       1.0  0.32466  0.55533  0.28188  1.0000
  C   C54       1.0  0.35154  0.56730  0.28258  1.0000
  C   C55       1.0  0.44404  0.63386  0.34935  1.0000
  C   C56       1.0  0.43276  0.64583  0.39780  1.0000
  C   C57       1.0  0.44463  0.67268  0.40222  1.0000
  C   C58       1.0  0.46786  0.68845  0.35648  1.0000
  C   C59       1.0  0.47948  0.67656  0.30952  1.0000
  C   C60       1.0  0.46801  0.64961  0.30768  1.0000
  H   H19       1.0  0.31122  0.49955  0.37826  1.0000
  H   H20       1.0  0.35709  0.51953  0.37624  1.0000
  H   H21       1.0  0.31641  0.56566  0.26008  1.0000
  H   H22       1.0  0.36186  0.58568  0.25900  1.0000
  H   H23       1.0  0.41544  0.63511  0.42894  1.0000
  H   H24       1.0  0.43514  0.68051  0.43432  1.0000
  H   H25       1.0  0.47643  0.64161  0.27029  1.0000
  H   H26       1.0  0.49598  0.68741  0.27409  1.0000
  H   H27       1.0  0.48170  0.58577  0.34019  1.0000
  H   H28       1.0  0.50411  0.56261  0.33484  1.0000
  H   H29       1.0  0.43389  0.49337  0.30215  1.0000
  H   H30       1.0  0.41140  0.51638  0.30585  1.0000
  C   C61       1.0  0.42960  0.82302  0.32320  1.0000
  N   N19       1.0  0.44229  0.84905  0.32072  1.0000
  C   C62       1.0  0.42992  0.86276  0.32595  1.0000
  N   N20       1.0  0.40391  0.84942  0.33458  1.0000
  C   C63       1.0  0.39045  0.82342  0.33894  1.0000
  N   N21       1.0  0.40370  0.81067  0.33282  1.0000
  C   C64       1.0  0.44374  0.89007  0.32276  1.0000
  C   C65       1.0  0.47076  0.90386  0.31201  1.0000
  C   C66       1.0  0.48443  0.93081  0.30895  1.0000
  C   C67       1.0  0.47155  0.94495  0.31618  1.0000
  C   C68       1.0  0.44467  0.93137  0.32842  1.0000
  C   C69       1.0  0.43100  0.90441  0.33102  1.0000
  C   C70       1.0  0.44268  0.80894  0.31686  1.0000
  C   C71       1.0  0.46808  0.81900  0.34869  1.0000
  C   C72       1.0  0.47983  0.80377  0.35030  1.0000
  C   C73       1.0  0.46680  0.77844  0.31694  1.0000
  C   C74       1.0  0.44193  0.76881  0.28111  1.0000
  C   C75       1.0  0.43000  0.78375  0.28172  1.0000
  C   C76       1.0  0.36343  0.80966  0.34891  1.0000
  C   C77       1.0  0.35146  0.78636  0.39712  1.0000
  C   C78       1.0  0.32462  0.77140  0.40163  1.0000
  C   C79       1.0  0.30884  0.77890  0.35611  1.0000
  C   C80       1.0  0.32073  0.80244  0.30931  1.0000
  C   C81       1.0  0.34768  0.81792  0.30752  1.0000
  H   H31       1.0  0.49759  0.81099  0.37864  1.0000
  H   H32       1.0  0.47767  0.83692  0.37643  1.0000
  H   H33       1.0  0.43161  0.75024  0.25908  1.0000
  H   H34       1.0  0.41165  0.77574  0.25780  1.0000
  H   H35       1.0  0.36218  0.77973  0.42806  1.0000
  H   H36       1.0  0.31679  0.75404  0.43344  1.0000
  H   H37       1.0  0.35567  0.83436  0.27026  1.0000
  H   H38       1.0  0.30987  0.80812  0.27407  1.0000
  H   H39       1.0  0.41153  0.89543  0.33939  1.0000
  H   H40       1.0  0.43472  0.94100  0.33427  1.0000
  H   H41       1.0  0.50399  0.94000  0.30318  1.0000
  H   H42       1.0  0.48096  0.89449  0.30668  1.0000
  C   C82       1.0  0.82262  0.39091  0.32478  1.0000
  N   N22       1.0  0.84868  0.40422  0.32543  1.0000
  C   C83       1.0  0.86225  0.43029  0.33041  1.0000
  N   N23       1.0  0.84894  0.44306  0.33578  1.0000
  C   C84       1.0  0.82291  0.43050  0.33732  1.0000
  N   N24       1.0  0.81022  0.40450  0.33146  1.0000
  C   C85       1.0  0.88949  0.44379  0.33034  1.0000
  C   C86       1.0  0.90339  0.43132  0.35286  1.0000
  C   C87       1.0  0.93036  0.44472  0.35316  1.0000
  C   C88       1.0  0.94437  0.47096  0.32942  1.0000
  C   C89       1.0  0.93053  0.48338  0.30593  1.0000
  C   C90       1.0  0.90357  0.47011  0.30743  1.0000
  C   C91       1.0  0.80853  0.36376  0.31797  1.0000
  C   C92       1.0  0.81822  0.34829  0.35169  1.0000
  C   C93       1.0  0.80292  0.32132  0.35237  1.0000
  C   C94       1.0  0.77788  0.30913  0.31637  1.0000
  C   C95       1.0  0.76866  0.32451  0.27882  1.0000
  C   C96       1.0  0.78367  0.35138  0.28015  1.0000
  C   C97       1.0  0.80909  0.44375  0.34575  1.0000
  C   C98       1.0  0.78566  0.43244  0.39309  1.0000
  C   C99       1.0  0.77084  0.44448  0.39741  1.0000
  C   C100      1.0  0.77867  0.46794  0.35272  1.0000
  C   C101      1.0  0.80229  0.47951  0.30648  1.0000
  C   C102      1.0  0.81759  0.46785  0.30473  1.0000
  H   H43       1.0  0.80985  0.31068  0.38191  1.0000
  H   H44       1.0  0.83592  0.35652  0.38107  1.0000
  H   H45       1.0  0.75028  0.31638  0.25490  1.0000
  H   H46       1.0  0.77590  0.36179  0.25483  1.0000
  H   H47       1.0  0.77886  0.41504  0.42387  1.0000
  H   H48       1.0  0.75344  0.43503  0.42898  1.0000
  H   H49       1.0  0.83421  0.47634  0.26843  1.0000
  H   H50       1.0  0.80822  0.49621  0.27189  1.0000
  H   H51       1.0  0.89437  0.47988  0.28975  1.0000
  H   H52       1.0  0.93995  0.50240  0.28872  1.0000
  H   H53       1.0  0.93963  0.43487  0.36867  1.0000
  H   H54       1.0  0.89405  0.41233  0.37030  1.0000
  C   C103      1.0  0.60642  0.43113  0.32545  1.0000
  N   N25       1.0  0.59313  0.44390  0.32582  1.0000
  C   C104      1.0  0.56705  0.43142  0.33073  1.0000
  N   N26       1.0  0.55426  0.40535  0.33627  1.0000
  C   C105      1.0  0.56680  0.39186  0.33809  1.0000
  N   N27       1.0  0.59280  0.40514  0.33231  1.0000
  C   C106      1.0  0.55358  0.44519  0.33038  1.0000
  C   C107      1.0  0.56606  0.47157  0.35285  1.0000
  C   C108      1.0  0.55267  0.48515  0.35293  1.0000
  C   C109      1.0  0.52645  0.47293  0.32902  1.0000
  C   C110      1.0  0.51402  0.44667  0.30558  1.0000
  C   C111      1.0  0.52727  0.43296  0.30729  1.0000
  C   C112      1.0  0.63357  0.44416  0.31860  1.0000
  C   C113      1.0  0.64905  0.46940  0.35171  1.0000
  C   C114      1.0  0.67602  0.48106  0.35237  1.0000
  C   C115      1.0  0.68819  0.46813  0.31682  1.0000
  C   C116      1.0  0.67279  0.44347  0.27967  1.0000
  C   C117      1.0  0.64593  0.43161  0.28116  1.0000
  C   C118      1.0  0.55353  0.36480  0.34658  1.0000
  C   C119      1.0  0.56476  0.35266  0.39426  1.0000
  C   C120      1.0  0.55271  0.32580  0.39859  1.0000
  C   C121      1.0  0.52933  0.31017  0.35342  1.0000
  C   C122      1.0  0.51783  0.32224  0.30682  1.0000
  C   C123      1.0  0.52948  0.34921  0.30519  1.0000
  H   H55       1.0  0.68668  0.49866  0.38165  1.0000
  H   H56       1.0  0.64084  0.47889  0.38101  1.0000
  H   H57       1.0  0.68091  0.43319  0.25600  1.0000
  H   H58       1.0  0.63550  0.41340  0.25613  1.0000
  H   H59       1.0  0.58211  0.36325  0.42533  1.0000
  H   H60       1.0  0.56213  0.31784  0.43033  1.0000
  H   H61       1.0  0.52105  0.35734  0.26857  1.0000
  H   H62       1.0  0.50119  0.31149  0.27194  1.0000
  H   H63       1.0  0.51750  0.41399  0.28964  1.0000
  H   H64       1.0  0.49501  0.43709  0.28826  1.0000
  H   H65       1.0  0.56253  0.50428  0.36843  1.0000
  H   H66       1.0  0.58504  0.48120  0.37039  1.0000
  C   C124      1.0  0.56622  0.17478  0.32536  1.0000
  N   N28       1.0  0.55345  0.14873  0.32578  1.0000
  C   C125      1.0  0.56593  0.13513  0.33067  1.0000
  N   N29       1.0  0.59201  0.14842  0.33614  1.0000
  C   C126      1.0  0.60550  0.17444  0.33790  1.0000
  N   N30       1.0  0.59221  0.18716  0.33214  1.0000
  C   C127      1.0  0.55216  0.10789  0.33039  1.0000
  C   C128      1.0  0.52578  0.09399  0.35275  1.0000
  C   C129      1.0  0.51219  0.06702  0.35291  1.0000
  C   C130      1.0  0.52442  0.05300  0.32919  1.0000
  C   C131      1.0  0.55069  0.06684  0.30583  1.0000
  C   C132      1.0  0.56440  0.09380  0.30746  1.0000
  C   C133      1.0  0.55319  0.18890  0.31857  1.0000
  C   C134      1.0  0.52798  0.17917  0.35188  1.0000
  C   C135      1.0  0.51630  0.19446  0.35247  1.0000
  C   C136      1.0  0.52920  0.21954  0.31678  1.0000
  C   C137      1.0  0.55386  0.22881  0.27967  1.0000
  C   C138      1.0  0.56572  0.21380  0.28108  1.0000
  C   C139      1.0  0.63256  0.18823  0.34632  1.0000
  C   C140      1.0  0.64470  0.21161  0.39400  1.0000
  C   C141      1.0  0.67156  0.22642  0.39824  1.0000
  C   C142      1.0  0.68718  0.21866  0.35307  1.0000
  C   C143      1.0  0.67511  0.19508  0.30654  1.0000
  C   C144      1.0  0.64814  0.17978  0.30488  1.0000
  H   H67       1.0  0.49868  0.18750  0.38170  1.0000
  H   H68       1.0  0.51846  0.16143  0.38100  1.0000
  H   H69       1.0  0.56413  0.24721  0.25597  1.0000
  H   H70       1.0  0.58393  0.22159  0.25604  1.0000
  H   H71       1.0  0.63411  0.21836  0.42512  1.0000
  H   H72       1.0  0.67953  0.24379  0.43007  1.0000
  H   H73       1.0  0.64000  0.16320  0.26833  1.0000
  H   H74       1.0  0.68586  0.18920  0.27165  1.0000
  H   H75       1.0  0.58338  0.10299  0.28991  1.0000
  H   H76       1.0  0.56028  0.05741  0.28866  1.0000
  H   H77       1.0  0.49307  0.05776  0.36833  1.0000
  H   H78       1.0  0.51614  0.10334  0.37019  1.0000
  N   N31       1.0  0.01292  0.49501  0.38082  1.0000
  C   C145      1.0  0.98707  0.48091  0.38886  1.0000
  H   H79       1.0  0.97935  0.46842  0.44091  1.0000
  N   N32       1.0  0.50235  0.51738  0.38045  1.0000
  C   C146      1.0  0.51647  0.50565  0.38846  1.0000
  H   H80       1.0  0.52890  0.51038  0.44068  1.0000
  N   N33       1.0  0.47990  0.98446  0.38049  1.0000
  C   C147      1.0  0.49163  0.01031  0.38846  1.0000
  H   H81       1.0  0.48685  0.01802  0.44053  1.0000
  C   C148      1.0  0.28293  0.52125  0.33060  1.0000
  C   C149      1.0  0.23647  0.52090  0.34764  1.0000
  N   N34       1.0  0.25043  0.52159  0.41985  1.0000
  C   C150      1.0  0.27243  0.52057  0.41578  1.0000
  C   C151      1.0  0.28439  0.52321  0.49060  1.0000
  N   N35       1.0  0.29498  0.52554  0.55654  1.0000
  C   C152      1.0  0.47591  0.76106  0.33047  1.0000
  C   C153      1.0  0.47633  0.71496  0.34783  1.0000
  N   N36       1.0  0.47562  0.72826  0.41990  1.0000
  C   C154      1.0  0.47660  0.75125  0.41570  1.0000
  C   C155      1.0  0.47395  0.76058  0.49049  1.0000
  N   N37       1.0  0.47160  0.76884  0.55641  1.0000
  C   C156      1.0  0.23625  0.71435  0.33038  1.0000
  C   C157      1.0  0.28233  0.76087  0.34734  1.0000
  N   N38       1.0  0.26909  0.74690  0.41958  1.0000
  C   C158      1.0  0.24610  0.72488  0.41554  1.0000
  C   C159      1.0  0.23681  0.71292  0.49040  1.0000
  N   N39       1.0  0.22859  0.70234  0.55637  1.0000
  C   C160      1.0  0.71468  0.47701  0.32944  1.0000
  C   C161      1.0  0.76094  0.47681  0.34478  1.0000
  N   N40       1.0  0.74710  0.47609  0.41742  1.0000
  C   C162      1.0  0.72524  0.47736  0.41425  1.0000
  C   C163      1.0  0.71343  0.47463  0.48949  1.0000
  N   N41       1.0  0.70297  0.47221  0.55580  1.0000
  C   C164      1.0  0.52036  0.23718  0.32949  1.0000
  C   C165      1.0  0.52052  0.28358  0.34530  1.0000
  N   N42       1.0  0.52121  0.27042  0.41785  1.0000
  C   C166      1.0  0.51993  0.24728  0.41443  1.0000
  C   C167      1.0  0.52270  0.23821  0.48962  1.0000
  N   N43       1.0  0.52515  0.23018  0.55589  1.0000
  C   C168      1.0  0.76021  0.28266  0.32921  1.0000
  C   C169      1.0  0.71378  0.23641  0.34504  1.0000
  N   N44       1.0  0.72694  0.25033  0.41747  1.0000
  C   C170      1.0  0.75011  0.27216  0.41418  1.0000
  C   C171      1.0  0.75907  0.28409  0.48931  1.0000
  N   N45       1.0  0.76700  0.29463  0.55553  1.0000
