data_image0
_chemical_formula_structural       C3NHC2HCHCH2NC3H3C7H3NH2CHC7H3NH2CHC2H2C3H2CHC2H2C3H2CHC2H2C3H2CHC2H2C3H2CHC2H2C3H2CHC2H2C3H2CHC6H3N2C6H3N3C6H3N3C6H3N3C6H3N3C6H3N3C3H2CHC2H2C3H2CHC2H2C3H2CHC7H3NH2CHC7H3NH2CHC7H3NH2CHC7H3NH2CHC7H3NH2CHC7H3NH2CH
_chemical_formula_sum              "C162 N27 H117"
_cell_length_a       61.5935
_cell_length_b       61.5935
_cell_length_c       14.9384
_cell_angle_alpha    90
_cell_angle_beta     90
_cell_angle_gamma    120

_space_group_name_H-M_alt    "P 1"
_space_group_IT_number       1

loop_
  _space_group_symop_operation_xyz
  'x, y, z'

loop_
  _atom_site_type_symbol
  _atom_site_label
  _atom_site_symmetry_multiplicity
  _atom_site_fract_x
  _atom_site_fract_y
  _atom_site_fract_z
  _atom_site_occupancy
  C   C1        1.0  0.05546  0.52277  0.23530  1.0000
  C   C2        1.0  0.02919  0.51324  0.23687  1.0000
  C   C3        1.0  0.01715  0.51087  0.32086  1.0000
  N   N1        1.0  0.01669  0.50736  0.15739  1.0000
  H   H1        1.0  0.02541  0.50960  0.10082  1.0000
  C   C4        1.0  0.03199  0.51893  0.39944  1.0000
  C   C5        1.0  0.05809  0.52877  0.39612  1.0000
  H   H2        1.0  0.02381  0.51725  0.46066  1.0000
  C   C6        1.0  0.07020  0.53070  0.31389  1.0000
  H   H3        1.0  0.06412  0.52430  0.17511  1.0000
  C   C7        1.0  0.09571  0.53912  0.30929  1.0000
  H   H4        1.0  0.06807  0.53391  0.45466  1.0000
  H   H5        1.0  0.10141  0.52982  0.27033  1.0000
  N   N2        1.0  0.11207  0.55939  0.34842  1.0000
  C   C8        1.0  0.99064  0.50027  0.32952  1.0000
  C   C9        1.0  0.97387  0.47525  0.30354  1.0000
  C   C10       1.0  0.94772  0.46497  0.31099  1.0000
  H   H6        1.0  0.98062  0.46430  0.27849  1.0000
  H   H7        1.0  0.93632  0.44684  0.29076  1.0000
  H   H8        1.0  0.99904  0.50225  0.15369  1.0000
  C   C11       1.0  0.47443  0.54060  0.31413  1.0000
  C   C12       1.0  0.48238  0.53379  0.23559  1.0000
  C   C13       1.0  0.49188  0.51703  0.23723  1.0000
  C   C14       1.0  0.49423  0.50735  0.32124  1.0000
  C   C15       1.0  0.50481  0.49142  0.32998  1.0000
  C   C16       1.0  0.52983  0.49965  0.30396  1.0000
  C   C17       1.0  0.54009  0.48377  0.31147  1.0000
  H   H9        1.0  0.54078  0.51734  0.27881  1.0000
  H   H10       1.0  0.55821  0.49047  0.29118  1.0000
  H   H11       1.0  0.48088  0.54093  0.17539  1.0000
  N   N3        1.0  0.49780  0.51042  0.15779  1.0000
  H   H12       1.0  0.49550  0.51685  0.10119  1.0000
  H   H13       1.0  0.50282  0.49780  0.15411  1.0000
  C   C18       1.0  0.46602  0.55770  0.30947  1.0000
  H   H14       1.0  0.47534  0.57270  0.27055  1.0000
  C   C19       1.0  0.46452  0.93486  0.31356  1.0000
  C   C20       1.0  0.47133  0.94960  0.23496  1.0000
  C   C21       1.0  0.48811  0.97586  0.23650  1.0000
  C   C22       1.0  0.49779  0.98790  0.32048  1.0000
  C   C23       1.0  0.51374  0.01441  0.32911  1.0000
  C   C24       1.0  0.50552  0.03120  0.30311  1.0000
  C   C25       1.0  0.52141  0.05734  0.31067  1.0000
  H   H15       1.0  0.48784  0.02448  0.27802  1.0000
  H   H16       1.0  0.51472  0.06877  0.29047  1.0000
  H   H17       1.0  0.46420  0.94094  0.17478  1.0000
  N   N4        1.0  0.49472  0.98837  0.15702  1.0000
  H   H18       1.0  0.48834  0.97961  0.10044  1.0000
  H   H19       1.0  0.50739  0.00598  0.15332  1.0000
  C   C26       1.0  0.44742  0.90936  0.30899  1.0000
  H   H20       1.0  0.43243  0.90366  0.26999  1.0000
  C   C27       1.0  0.29747  0.54233  0.27371  1.0000
  C   C28       1.0  0.32060  0.54305  0.27680  1.0000
  H   H21       1.0  0.29347  0.54941  0.21810  1.0000
  H   H22       1.0  0.33248  0.55029  0.22321  1.0000
  C   C29       1.0  0.21925  0.54677  0.31963  1.0000
  C   C30       1.0  0.22217  0.53074  0.25928  1.0000
  C   C31       1.0  0.24162  0.52525  0.27085  1.0000
  H   H23       1.0  0.21076  0.52368  0.20444  1.0000
  H   H24       1.0  0.24371  0.51420  0.22443  1.0000
  C   C32       1.0  0.20311  0.55560  0.29960  1.0000
  H   H25       1.0  0.20467  0.56329  0.23949  1.0000
  C   C33       1.0  0.46291  0.75630  0.27376  1.0000
  C   C34       1.0  0.46220  0.77871  0.27684  1.0000
  H   H26       1.0  0.45587  0.74523  0.21806  1.0000
  H   H27       1.0  0.45498  0.78336  0.22321  1.0000
  C   C35       1.0  0.45840  0.67360  0.31965  1.0000
  C   C36       1.0  0.47451  0.69257  0.25953  1.0000
  C   C37       1.0  0.47997  0.71750  0.27110  1.0000
  H   H28       1.0  0.48158  0.68823  0.20470  1.0000
  H   H29       1.0  0.49107  0.73065  0.22480  1.0000
  C   C38       1.0  0.44958  0.64863  0.29951  1.0000
  H   H30       1.0  0.44180  0.64248  0.23957  1.0000
  C   C39       1.0  0.24878  0.70771  0.27346  1.0000
  C   C40       1.0  0.22635  0.68459  0.27651  1.0000
  H   H31       1.0  0.25983  0.71174  0.21772  1.0000
  H   H32       1.0  0.22168  0.67275  0.22280  1.0000
  C   C41       1.0  0.33152  0.78588  0.31953  1.0000
  C   C42       1.0  0.31254  0.78301  0.25943  1.0000
  C   C43       1.0  0.28761  0.76355  0.27097  1.0000
  H   H33       1.0  0.31688  0.79447  0.20472  1.0000
  H   H34       1.0  0.27446  0.76152  0.22472  1.0000
  C   C44       1.0  0.35648  0.80202  0.29940  1.0000
  H   H35       1.0  0.36261  0.80039  0.23941  1.0000
  C   C45       1.0  0.70981  0.46116  0.28734  1.0000
  C   C46       1.0  0.68503  0.45637  0.29444  1.0000
  H   H36       1.0  0.71517  0.45660  0.22867  1.0000
  H   H37       1.0  0.67327  0.44842  0.24096  1.0000
  C   C47       1.0  0.79379  0.46632  0.33800  1.0000
  C   C48       1.0  0.78978  0.48273  0.28320  1.0000
  C   C49       1.0  0.76770  0.48415  0.29110  1.0000
  H   H38       1.0  0.80270  0.49348  0.23570  1.0000
  H   H39       1.0  0.76523  0.49599  0.24977  1.0000
  C   C50       1.0  0.81516  0.46430  0.32772  1.0000
  H   H40       1.0  0.83120  0.47905  0.30837  1.0000
  C   C51       1.0  0.54431  0.24979  0.28683  1.0000
  C   C52       1.0  0.54912  0.22981  0.29390  1.0000
  H   H41       1.0  0.54888  0.25973  0.22817  1.0000
  H   H42       1.0  0.55707  0.22601  0.24040  1.0000
  C   C53       1.0  0.53906  0.32858  0.33746  1.0000
  C   C54       1.0  0.52279  0.30819  0.28225  1.0000
  C   C55       1.0  0.52140  0.28471  0.29015  1.0000
  H   H43       1.0  0.51212  0.31038  0.23446  1.0000
  H   H44       1.0  0.50964  0.27043  0.24854  1.0000
  C   C56       1.0  0.54104  0.35197  0.32724  1.0000
  H   H45       1.0  0.52634  0.35324  0.30706  1.0000
  C   C57       1.0  0.75541  0.29518  0.28776  1.0000
  C   C58       1.0  0.77535  0.31998  0.29433  1.0000
  H   H46       1.0  0.74545  0.28968  0.22917  1.0000
  H   H47       1.0  0.77906  0.33165  0.24060  1.0000
  C   C59       1.0  0.67672  0.21121  0.33987  1.0000
  C   C60       1.0  0.69719  0.21511  0.28552  1.0000
  C   C61       1.0  0.72066  0.23723  0.29305  1.0000
  H   H48       1.0  0.69505  0.20209  0.23847  1.0000
  H   H49       1.0  0.73499  0.23962  0.25199  1.0000
  C   C62       1.0  0.65334  0.18982  0.32981  1.0000
  H   H50       1.0  0.65206  0.17375  0.31083  1.0000
  C   C63       1.0  0.17649  0.56951  0.35153  1.0000
  C   C64       1.0  0.15005  0.55690  0.35339  1.0000
  C   C65       1.0  0.13704  0.57044  0.34871  1.0000
  C   C66       1.0  0.15101  0.59696  0.34686  1.0000
  C   C67       1.0  0.17752  0.60987  0.34635  1.0000
  C   C68       1.0  0.18994  0.59593  0.34808  1.0000
  H   H51       1.0  0.14182  0.60693  0.34414  1.0000
  H   H52       1.0  0.20917  0.60513  0.34883  1.0000
  H   H53       1.0  0.14028  0.53776  0.35789  1.0000
  N   N5        1.0  0.18929  0.55754  0.36010  1.0000
  N   N6        1.0  0.19226  0.63456  0.34302  1.0000
  C   C69       1.0  0.43566  0.60812  0.35169  1.0000
  C   C70       1.0  0.44826  0.59429  0.35344  1.0000
  C   C71       1.0  0.43470  0.56773  0.34887  1.0000
  C   C72       1.0  0.40819  0.55519  0.34712  1.0000
  C   C73       1.0  0.39528  0.56880  0.34662  1.0000
  C   C74       1.0  0.40924  0.59517  0.34833  1.0000
  H   H54       1.0  0.39821  0.53603  0.34442  1.0000
  H   H55       1.0  0.40005  0.60520  0.34904  1.0000
  H   H56       1.0  0.46740  0.60364  0.35783  1.0000
  N   N7        1.0  0.44766  0.63290  0.36007  1.0000
  N   N8        1.0  0.44575  0.55380  0.34855  1.0000
  N   N9        1.0  0.37060  0.55887  0.34338  1.0000
  C   C75       1.0  0.39700  0.82860  0.35151  1.0000
  C   C76       1.0  0.41083  0.85503  0.35321  1.0000
  C   C77       1.0  0.43739  0.86803  0.34863  1.0000
  C   C78       1.0  0.44993  0.85406  0.34701  1.0000
  C   C79       1.0  0.43632  0.82754  0.34665  1.0000
  C   C80       1.0  0.40995  0.81514  0.34831  1.0000
  H   H57       1.0  0.46909  0.86324  0.34436  1.0000
  H   H58       1.0  0.39992  0.79591  0.34915  1.0000
  H   H59       1.0  0.40148  0.86482  0.35755  1.0000
  N   N10       1.0  0.37222  0.81582  0.35996  1.0000
  N   N11       1.0  0.45132  0.89300  0.34824  1.0000
  N   N12       1.0  0.44625  0.81279  0.34356  1.0000
  C   C81       1.0  0.82887  0.43350  0.33395  1.0000
  C   C82       1.0  0.85535  0.44754  0.33213  1.0000
  C   C83       1.0  0.86983  0.43544  0.32958  1.0000
  C   C84       1.0  0.85722  0.40891  0.32694  1.0000
  C   C85       1.0  0.83081  0.39462  0.33116  1.0000
  C   C86       1.0  0.81694  0.40717  0.33383  1.0000
  H   H60       1.0  0.86732  0.39984  0.32412  1.0000
  H   H61       1.0  0.79773  0.39683  0.33501  1.0000
  H   H62       1.0  0.86405  0.46666  0.33256  1.0000
  N   N13       1.0  0.81373  0.44295  0.33865  1.0000
  N   N14       1.0  0.89489  0.44763  0.32785  1.0000
  N   N15       1.0  0.81845  0.36968  0.32766  1.0000
  C   C87       1.0  0.57170  0.39650  0.33490  1.0000
  C   C88       1.0  0.55762  0.40889  0.33314  1.0000
  C   C89       1.0  0.56968  0.43547  0.33081  1.0000
  C   C90       1.0  0.59620  0.44943  0.32832  1.0000
  C   C91       1.0  0.61053  0.43736  0.33255  1.0000
  C   C92       1.0  0.59803  0.41094  0.33510  1.0000
  H   H63       1.0  0.60524  0.46860  0.32545  1.0000
  H   H64       1.0  0.60840  0.40210  0.33616  1.0000
  H   H65       1.0  0.53850  0.39844  0.33340  1.0000
  N   N16       1.0  0.56231  0.37191  0.33925  1.0000
  N   N17       1.0  0.55745  0.44831  0.32897  1.0000
  N   N18       1.0  0.63547  0.44995  0.32874  1.0000
  C   C93       1.0  0.60883  0.17616  0.33513  1.0000
  C   C94       1.0  0.59637  0.14968  0.33307  1.0000
  C   C95       1.0  0.56980  0.13522  0.33011  1.0000
  C   C96       1.0  0.55591  0.14785  0.32729  1.0000
  C   C97       1.0  0.56803  0.17426  0.33171  1.0000
  C   C98       1.0  0.59445  0.18811  0.33480  1.0000
  H   H66       1.0  0.53674  0.13776  0.32412  1.0000
  H   H67       1.0  0.60334  0.20732  0.33610  1.0000
  H   H68       1.0  0.60679  0.14097  0.33361  1.0000
  N   N19       1.0  0.63342  0.19128  0.34009  1.0000
  N   N20       1.0  0.55692  0.11016  0.32813  1.0000
  N   N21       1.0  0.55549  0.18665  0.32788  1.0000
  C   C99       1.0  0.93737  0.47927  0.34543  1.0000
  C   C100      1.0  0.95432  0.50420  0.37273  1.0000
  C   C101      1.0  0.98044  0.51449  0.36520  1.0000
  H   H69       1.0  0.94778  0.51531  0.39810  1.0000
  H   H70       1.0  0.99198  0.53268  0.38465  1.0000
  C   C102      1.0  0.91155  0.46982  0.35317  1.0000
  H   H71       1.0  0.90572  0.48070  0.38082  1.0000
  C   C103      1.0  0.48614  0.51413  0.39977  1.0000
  C   C104      1.0  0.47633  0.53041  0.39638  1.0000
  H   H72       1.0  0.48781  0.50762  0.46102  1.0000
  H   H73       1.0  0.47117  0.53524  0.45488  1.0000
  C   C105      1.0  0.52578  0.45912  0.34604  1.0000
  C   C106      1.0  0.50087  0.45117  0.37338  1.0000
  C   C107      1.0  0.49059  0.46702  0.36579  1.0000
  H   H74       1.0  0.48975  0.43355  0.39885  1.0000
  H   H75       1.0  0.47241  0.46039  0.38528  1.0000
  C   C108      1.0  0.53522  0.44274  0.35381  1.0000
  H   H76       1.0  0.52429  0.42599  0.38111  1.0000
  C   C109      1.0  0.49101  0.97306  0.39907  1.0000
  C   C110      1.0  0.47471  0.94698  0.39577  1.0000
  H   H77       1.0  0.49753  0.98125  0.46028  1.0000
  H   H78       1.0  0.46989  0.93699  0.45431  1.0000
  C   C111      1.0  0.54605  0.06766  0.34524  1.0000
  C   C112      1.0  0.55401  0.05069  0.37249  1.0000
  C   C113      1.0  0.53816  0.02457  0.36485  1.0000
  H   H79       1.0  0.57163  0.05719  0.39799  1.0000
  H   H80       1.0  0.54476  0.01300  0.38436  1.0000
  C   C114      1.0  0.56244  0.09347  0.35320  1.0000
  H   H81       1.0  0.57915  0.09927  0.38081  1.0000
  C   C115      1.0  0.32777  0.53484  0.35365  1.0000
  C   C116      1.0  0.31083  0.52529  0.42623  1.0000
  C   C117      1.0  0.28736  0.52441  0.42453  1.0000
  C   C118      1.0  0.28068  0.53335  0.34707  1.0000
  C   C119      1.0  0.25889  0.53589  0.34230  1.0000
  C   C120      1.0  0.25583  0.55181  0.40284  1.0000
  C   C121      1.0  0.23627  0.55712  0.39188  1.0000
  H   H82       1.0  0.26861  0.56071  0.45292  1.0000
  H   H83       1.0  0.23548  0.56978  0.43427  1.0000
  H   H84       1.0  0.31594  0.51939  0.48246  1.0000
  N   N22       1.0  0.27199  0.51476  0.49683  1.0000
  H   H85       1.0  0.27678  0.50847  0.54854  1.0000
  H   H86       1.0  0.25520  0.51245  0.49734  1.0000
  C   C122      1.0  0.35139  0.53739  0.35997  1.0000
  H   H87       1.0  0.35341  0.52355  0.38490  1.0000
  C   C123      1.0  0.47033  0.79404  0.35381  1.0000
  C   C124      1.0  0.47980  0.78661  0.42651  1.0000
  C   C125      1.0  0.48068  0.76402  0.42478  1.0000
  C   C126      1.0  0.47182  0.74844  0.34721  1.0000
  C   C127      1.0  0.46927  0.72412  0.34241  1.0000
  C   C128      1.0  0.45327  0.70510  0.40273  1.0000
  C   C129      1.0  0.44800  0.68024  0.39184  1.0000
  H   H88       1.0  0.44433  0.70896  0.45270  1.0000
  H   H89       1.0  0.43524  0.66676  0.43391  1.0000
  H   H90       1.0  0.48565  0.79758  0.48282  1.0000
  N   N23       1.0  0.49026  0.75826  0.49719  1.0000
  H   H91       1.0  0.49650  0.76930  0.54900  1.0000
  H   H92       1.0  0.49257  0.74378  0.49771  1.0000
  C   C130      1.0  0.46774  0.81508  0.36018  1.0000
  H   H93       1.0  0.48159  0.83098  0.38485  1.0000
  C   C131      1.0  0.21105  0.67737  0.35354  1.0000
  C   C132      1.0  0.21851  0.69424  0.42634  1.0000
  C   C133      1.0  0.24111  0.71771  0.42464  1.0000
  C   C134      1.0  0.25667  0.72445  0.34701  1.0000
  C   C135      1.0  0.28100  0.74622  0.34219  1.0000
  C   C136      1.0  0.30001  0.74922  0.40252  1.0000
  C   C137      1.0  0.32488  0.76880  0.39157  1.0000
  H   H94       1.0  0.29616  0.73637  0.45230  1.0000
  H   H95       1.0  0.33835  0.76949  0.43358  1.0000
  H   H96       1.0  0.20756  0.68910  0.48270  1.0000
  N   N24       1.0  0.24691  0.73302  0.49715  1.0000
  H   H97       1.0  0.23583  0.72822  0.54887  1.0000
  H   H98       1.0  0.26135  0.74983  0.49757  1.0000
  C   C138      1.0  0.18999  0.65375  0.35983  1.0000
  H   H99       1.0  0.17415  0.65170  0.38524  1.0000
  C   C139      1.0  0.67584  0.46003  0.37635  1.0000
  C   C140      1.0  0.69253  0.46957  0.44970  1.0000
  C   C141      1.0  0.71765  0.47474  0.44382  1.0000
  C   C142      1.0  0.72619  0.46972  0.36180  1.0000
  C   C143      1.0  0.74920  0.46951  0.35516  1.0000
  C   C144      1.0  0.75317  0.45308  0.40981  1.0000
  C   C145      1.0  0.77515  0.45163  0.40181  1.0000
  H   H100      1.0  0.73990  0.44174  0.45538  1.0000
  H   H101      1.0  0.77725  0.43947  0.44276  1.0000
  H   H102      1.0  0.68601  0.47197  0.50988  1.0000
  N   N25       1.0  0.73259  0.48406  0.51735  1.0000
  H   H103      1.0  0.72652  0.48776  0.57216  1.0000
  H   H104      1.0  0.75032  0.48935  0.51524  1.0000
  C   C146      1.0  0.65034  0.45029  0.39010  1.0000
  H   H105      1.0  0.64306  0.44078  0.44668  1.0000
  C   C147      1.0  0.54544  0.21696  0.37579  1.0000
  C   C148      1.0  0.53586  0.22407  0.44911  1.0000
  C   C149      1.0  0.53070  0.24402  0.44327  1.0000
  C   C150      1.0  0.53572  0.25759  0.36127  1.0000
  C   C151      1.0  0.53592  0.28080  0.35458  1.0000
  C   C152      1.0  0.55223  0.30118  0.40960  1.0000
  C   C153      1.0  0.55365  0.32460  0.40164  1.0000
  H   H106      1.0  0.56348  0.29923  0.45549  1.0000
  H   H107      1.0  0.56569  0.33881  0.44293  1.0000
  H   H108      1.0  0.53346  0.21513  0.50927  1.0000
  N   N26       1.0  0.52133  0.24959  0.51676  1.0000
  H   H109      1.0  0.51779  0.23993  0.57178  1.0000
  H   H110      1.0  0.51617  0.26213  0.51493  1.0000
  C   C154      1.0  0.55511  0.20111  0.38943  1.0000
  H   H111      1.0  0.56457  0.20328  0.44607  1.0000
  C   C155      1.0  0.78821  0.32936  0.37613  1.0000
  C   C156      1.0  0.78113  0.31280  0.44986  1.0000
  C   C157      1.0  0.76122  0.28765  0.44451  1.0000
  C   C158      1.0  0.74767  0.27891  0.36258  1.0000
  C   C159      1.0  0.72447  0.25588  0.35633  1.0000
  C   C160      1.0  0.70404  0.25201  0.41063  1.0000
  C   C161      1.0  0.68063  0.22999  0.40300  1.0000
  H   H112      1.0  0.70594  0.26538  0.45570  1.0000
  H   H113      1.0  0.66635  0.22798  0.44364  1.0000
  H   H114      1.0  0.79005  0.31946  0.50996  1.0000
  N   N27       1.0  0.75567  0.27286  0.51841  1.0000
  H   H115      1.0  0.76531  0.27910  0.57341  1.0000
  H   H116      1.0  0.74313  0.25515  0.51697  1.0000
  C   C162      1.0  0.80393  0.35490  0.38924  1.0000
  H   H117      1.0  0.80174  0.36225  0.44569  1.0000
