data_image0
_chemical_formula_structural       C2NCHC2NCHC2NCHC2NCHC2NCHC2NCHCNHCNHCNHCNHCNHCNHCNHCNHCNHCNHCNHCNHC2NCHC2NCHC2NCHC2NCHC2NCHC2NCHCNHCNHCNHCNHCNHCNHCNHCNHCNHCNHCNHCNHC6H3C6H3C6H3C6H3C6H3C6H3C6H3C6H3C6H3C6H3C6H3C6H3C6H3C6H3C6H3C6H3C6H3C6H3C6H3C6H3C6H3C6H3C6H3C6H3CNHCNHCNHCNHCNHCNHC2NCHC2NCHC2NCHC2NCHC2NCHC2NCHC2NCHC2NCHC2NCHC2NCHC2NCHC2NCHCNHCNHCNHCNHCNHCNHC2NCHC2NCHC2NCHC2NCHC2NCHC2NCHC2NCHC2NCHC2NCHC2NCHC2NCHC2NCH
_chemical_formula_sum              "C288 N72 H144"
_cell_length_a       53.8321
_cell_length_b       53.8321
_cell_length_c       14.8204
_cell_angle_alpha    90
_cell_angle_beta     90
_cell_angle_gamma    120

_space_group_name_H-M_alt    "P 1"
_space_group_IT_number       1

loop_
  _space_group_symop_operation_xyz
  'x, y, z'

loop_
  _atom_site_type_symbol
  _atom_site_label
  _atom_site_symmetry_multiplicity
  _atom_site_fract_x
  _atom_site_fract_y
  _atom_site_fract_z
  _atom_site_occupancy
  C   C1        1.0  0.14516  0.45987  0.34334  1.0000
  C   C2        1.0  0.13750  0.44397  0.26221  1.0000
  N   N1        1.0  0.12461  0.41490  0.26632  1.0000
  C   C3        1.0  0.11745  0.40002  0.34526  1.0000
  H   H1        1.0  0.14371  0.45392  0.20090  1.0000
  C   C4        1.0  0.55529  0.68832  0.34310  1.0000
  C   C5        1.0  0.57120  0.69639  0.26203  1.0000
  N   N2        1.0  0.60027  0.71259  0.26620  1.0000
  C   C6        1.0  0.61511  0.72049  0.34521  1.0000
  H   H2        1.0  0.56127  0.69253  0.20067  1.0000
  C   C7        1.0  0.32682  0.87000  0.34336  1.0000
  C   C8        1.0  0.31866  0.87773  0.26223  1.0000
  N   N3        1.0  0.30247  0.89060  0.26636  1.0000
  C   C9        1.0  0.29465  0.89764  0.34533  1.0000
  H   H3        1.0  0.32246  0.87157  0.20090  1.0000
  C   C10       1.0  0.87300  0.55228  0.34324  1.0000
  C   C11       1.0  0.88074  0.56817  0.26212  1.0000
  N   N4        1.0  0.89363  0.59724  0.26627  1.0000
  C   C12       1.0  0.90069  0.61212  0.34522  1.0000
  H   H4        1.0  0.87460  0.55822  0.20079  1.0000
  C   C13       1.0  0.46287  0.32376  0.34335  1.0000
  C   C14       1.0  0.44699  0.31564  0.26221  1.0000
  N   N5        1.0  0.41792  0.29945  0.26633  1.0000
  C   C15       1.0  0.40303  0.29161  0.34527  1.0000
  H   H5        1.0  0.45694  0.31946  0.20089  1.0000
  C   C16       1.0  0.69136  0.14214  0.34327  1.0000
  C   C17       1.0  0.69955  0.13440  0.26221  1.0000
  N   N6        1.0  0.71574  0.12152  0.26634  1.0000
  C   C18       1.0  0.72355  0.11447  0.34530  1.0000
  H   H6        1.0  0.69576  0.14054  0.20086  1.0000
  C   C19       1.0  0.41887  0.12204  0.26466  1.0000
  N   N7        1.0  0.44797  0.13627  0.26898  1.0000
  H   H7        1.0  0.40902  0.11899  0.20341  1.0000
  C   C20       1.0  0.71536  0.59624  0.26462  1.0000
  N   N8        1.0  0.70047  0.56714  0.26903  1.0000
  H   H8        1.0  0.72223  0.60607  0.20336  1.0000
  C   C21       1.0  0.89320  0.29995  0.26452  1.0000
  N   N9        1.0  0.87897  0.31482  0.26877  1.0000
  H   H9        1.0  0.89631  0.29319  0.20326  1.0000
  C   C22       1.0  0.59927  0.88998  0.26471  1.0000
  N   N10       1.0  0.57017  0.87577  0.26904  1.0000
  H   H10       1.0  0.60911  0.89296  0.20347  1.0000
  C   C23       1.0  0.30294  0.41585  0.26462  1.0000
  N   N11       1.0  0.31782  0.44496  0.26888  1.0000
  H   H11       1.0  0.29616  0.40599  0.20338  1.0000
  C   C24       1.0  0.12507  0.71224  0.26467  1.0000
  N   N12       1.0  0.13931  0.69738  0.26891  1.0000
  H   H12       1.0  0.12201  0.71904  0.20342  1.0000
  C   C25       1.0  0.28386  0.53163  0.26264  1.0000
  N   N13       1.0  0.25835  0.53094  0.26760  1.0000
  H   H13       1.0  0.29158  0.53011  0.20110  1.0000
  C   C26       1.0  0.48358  0.75526  0.26271  1.0000
  N   N14       1.0  0.48426  0.73044  0.26773  1.0000
  H   H14       1.0  0.48513  0.76451  0.20116  1.0000
  C   C27       1.0  0.25992  0.73129  0.26265  1.0000
  N   N15       1.0  0.28473  0.75680  0.26757  1.0000
  H   H15       1.0  0.25067  0.72356  0.20112  1.0000
  C   C28       1.0  0.73437  0.48055  0.26269  1.0000
  N   N16       1.0  0.75987  0.48123  0.26765  1.0000
  H   H16       1.0  0.72668  0.48211  0.20116  1.0000
  C   C29       1.0  0.53464  0.25687  0.26270  1.0000
  N   N17       1.0  0.53395  0.28168  0.26762  1.0000
  H   H17       1.0  0.53311  0.24760  0.20118  1.0000
  C   C30       1.0  0.75832  0.28080  0.26282  1.0000
  N   N18       1.0  0.73350  0.25530  0.26768  1.0000
  H   H18       1.0  0.76760  0.28851  0.20131  1.0000
  C   C31       1.0  0.17548  0.56335  0.34418  1.0000
  C   C32       1.0  0.17547  0.57717  0.26325  1.0000
  N   N19       1.0  0.17614  0.60271  0.26790  1.0000
  C   C33       1.0  0.17542  0.61516  0.34702  1.0000
  H   H19       1.0  0.17714  0.56949  0.20182  1.0000
  C   C34       1.0  0.45181  0.61515  0.34419  1.0000
  C   C35       1.0  0.43802  0.60130  0.26326  1.0000
  N   N20       1.0  0.41247  0.57644  0.26785  1.0000
  C   C36       1.0  0.40001  0.56332  0.34700  1.0000
  H   H20       1.0  0.44572  0.61064  0.20182  1.0000
  C   C37       1.0  0.40000  0.83969  0.34415  1.0000
  C   C38       1.0  0.41381  0.83966  0.26321  1.0000
  N   N21       1.0  0.43867  0.83896  0.26782  1.0000
  C   C39       1.0  0.45182  0.83969  0.34696  1.0000
  H   H21       1.0  0.40445  0.83797  0.20179  1.0000
  C   C40       1.0  0.84274  0.44882  0.34414  1.0000
  C   C41       1.0  0.84272  0.43496  0.26326  1.0000
  N   N22       1.0  0.84204  0.40941  0.26790  1.0000
  C   C42       1.0  0.84275  0.39698  0.34704  1.0000
  H   H22       1.0  0.84105  0.44263  0.20181  1.0000
  C   C43       1.0  0.56633  0.39695  0.34413  1.0000
  C   C44       1.0  0.58022  0.41075  0.26324  1.0000
  N   N23       1.0  0.60577  0.43560  0.26788  1.0000
  C   C45       1.0  0.61817  0.44878  0.34701  1.0000
  H   H23       1.0  0.57258  0.40138  0.20180  1.0000
  C   C46       1.0  0.61820  0.17243  0.34405  1.0000
  C   C47       1.0  0.60434  0.17244  0.26320  1.0000
  N   N24       1.0  0.57949  0.17313  0.26788  1.0000
  C   C48       1.0  0.56636  0.17243  0.34704  1.0000
  H   H24       1.0  0.61367  0.17410  0.20174  1.0000
  C   C49       1.0  0.99496  0.27809  0.26373  1.0000
  N   N25       1.0  0.02416  0.29317  0.26794  1.0000
  H   H25       1.0  0.98509  0.27449  0.20233  1.0000
  C   C50       1.0  0.73703  0.71989  0.26368  1.0000
  N   N26       1.0  0.72195  0.73400  0.26794  1.0000
  H   H26       1.0  0.74063  0.71363  0.20227  1.0000
  C   C51       1.0  0.29512  0.02018  0.26358  1.0000
  N   N27       1.0  0.28102  0.99099  0.26779  1.0000
  H   H27       1.0  0.30128  0.03006  0.20218  1.0000
  C   C52       1.0  0.02319  0.73403  0.26358  1.0000
  N   N28       1.0  0.99400  0.71894  0.26785  1.0000
  H   H28       1.0  0.03306  0.73765  0.20216  1.0000
  C   C53       1.0  0.28106  0.29214  0.26356  1.0000
  N   N29       1.0  0.29615  0.27803  0.26778  1.0000
  H   H29       1.0  0.27739  0.29835  0.20216  1.0000
  C   C54       1.0  0.72301  0.99196  0.26359  1.0000
  N   N30       1.0  0.73712  0.02115  0.26781  1.0000
  H   H30       1.0  0.71681  0.98208  0.20218  1.0000
  C   C55       1.0  0.18054  0.32438  0.26385  1.0000
  N   N31       1.0  0.15565  0.32517  0.26784  1.0000
  H   H31       1.0  0.19006  0.32630  0.20259  1.0000
  C   C56       1.0  0.69091  0.85925  0.26381  1.0000
  N   N32       1.0  0.69012  0.83358  0.26792  1.0000
  H   H32       1.0  0.68907  0.86688  0.20250  1.0000
  C   C57       1.0  0.15586  0.83475  0.26378  1.0000
  N   N33       1.0  0.18153  0.85963  0.26792  1.0000
  H   H33       1.0  0.14820  0.82531  0.20245  1.0000
  C   C58       1.0  0.83768  0.68777  0.26377  1.0000
  N   N34       1.0  0.86259  0.68702  0.26798  1.0000
  H   H34       1.0  0.82818  0.68585  0.20247  1.0000
  C   C59       1.0  0.32708  0.15278  0.26377  1.0000
  N   N35       1.0  0.32787  0.17846  0.26786  1.0000
  H   H35       1.0  0.32881  0.14508  0.20243  1.0000
  C   C60       1.0  0.86221  0.17746  0.26379  1.0000
  N   N36       1.0  0.83654  0.15257  0.26794  1.0000
  H   H36       1.0  0.86980  0.18698  0.20250  1.0000
  C   C61       1.0  0.21741  0.52538  0.34677  1.0000
  C   C62       1.0  0.19524  0.49650  0.34561  1.0000
  C   C63       1.0  0.16616  0.48929  0.34395  1.0000
  C   C64       1.0  0.15936  0.51150  0.34342  1.0000
  C   C65       1.0  0.18145  0.54062  0.34467  1.0000
  C   C66       1.0  0.21043  0.54734  0.34640  1.0000
  H   H37       1.0  0.13832  0.50647  0.34229  1.0000
  H   H38       1.0  0.22658  0.56836  0.34702  1.0000
  H   H39       1.0  0.20036  0.48052  0.34580  1.0000
  C   C67       1.0  0.48978  0.69505  0.34685  1.0000
  C   C68       1.0  0.51865  0.70176  0.34559  1.0000
  C   C69       1.0  0.52587  0.67990  0.34386  1.0000
  C   C70       1.0  0.50366  0.65088  0.34327  1.0000
  C   C71       1.0  0.47454  0.64385  0.34468  1.0000
  C   C72       1.0  0.46781  0.66610  0.34654  1.0000
  H   H40       1.0  0.50870  0.63489  0.34206  1.0000
  H   H41       1.0  0.44680  0.66124  0.34723  1.0000
  H   H42       1.0  0.53464  0.72287  0.34575  1.0000
  C   C73       1.0  0.32010  0.79775  0.34679  1.0000
  C   C74       1.0  0.31339  0.81992  0.34565  1.0000
  C   C75       1.0  0.33524  0.84899  0.34399  1.0000
  C   C76       1.0  0.36427  0.85580  0.34343  1.0000
  C   C77       1.0  0.37130  0.83372  0.34467  1.0000
  C   C78       1.0  0.34905  0.80474  0.34641  1.0000
  H   H43       1.0  0.38026  0.87684  0.34229  1.0000
  H   H44       1.0  0.35391  0.78858  0.34700  1.0000
  H   H45       1.0  0.29228  0.81479  0.34582  1.0000
  C   C79       1.0  0.80076  0.48674  0.34678  1.0000
  C   C80       1.0  0.82293  0.51562  0.34559  1.0000
  C   C81       1.0  0.85200  0.52286  0.34387  1.0000
  C   C82       1.0  0.85883  0.50065  0.34331  1.0000
  C   C83       1.0  0.83675  0.47153  0.34461  1.0000
  C   C84       1.0  0.80777  0.46479  0.34642  1.0000
  H   H46       1.0  0.87987  0.50570  0.34214  1.0000
  H   H47       1.0  0.79162  0.44377  0.34708  1.0000
  H   H48       1.0  0.81779  0.53160  0.34578  1.0000
  C   C85       1.0  0.52840  0.31705  0.34681  1.0000
  C   C86       1.0  0.49952  0.31034  0.34566  1.0000
  C   C87       1.0  0.49229  0.33218  0.34398  1.0000
  C   C88       1.0  0.51450  0.36120  0.34340  1.0000
  C   C89       1.0  0.54361  0.36824  0.34465  1.0000
  C   C90       1.0  0.55036  0.34600  0.34641  1.0000
  H   H49       1.0  0.50945  0.37720  0.34225  1.0000
  H   H50       1.0  0.57137  0.35087  0.34702  1.0000
  H   H51       1.0  0.48354  0.28922  0.34585  1.0000
  C   C91       1.0  0.69810  0.21439  0.34682  1.0000
  C   C92       1.0  0.70480  0.19222  0.34563  1.0000
  C   C93       1.0  0.68295  0.16314  0.34390  1.0000
  C   C94       1.0  0.65393  0.15633  0.34331  1.0000
  C   C95       1.0  0.64690  0.17841  0.34461  1.0000
  C   C96       1.0  0.66914  0.20740  0.34642  1.0000
  H   H52       1.0  0.63794  0.13529  0.34212  1.0000
  H   H53       1.0  0.66428  0.22355  0.34705  1.0000
  H   H54       1.0  0.72592  0.19735  0.34582  1.0000
  C   C97       1.0  0.52842  0.21439  0.34405  1.0000
  C   C98       1.0  0.49954  0.19222  0.34520  1.0000
  C   C99       1.0  0.49231  0.16315  0.34701  1.0000
  C   C100      1.0  0.51452  0.15633  0.34769  1.0000
  C   C101      1.0  0.54364  0.17841  0.34639  1.0000
  C   C102      1.0  0.55038  0.20740  0.34453  1.0000
  H   H55       1.0  0.50948  0.13530  0.34895  1.0000
  H   H56       1.0  0.57139  0.22355  0.34389  1.0000
  H   H57       1.0  0.48356  0.19736  0.34495  1.0000
  C   C103      1.0  0.69807  0.48673  0.34397  1.0000
  C   C104      1.0  0.70478  0.51560  0.34516  1.0000
  C   C105      1.0  0.68293  0.52282  0.34701  1.0000
  C   C106      1.0  0.65391  0.50062  0.34775  1.0000
  C   C107      1.0  0.64687  0.47150  0.34636  1.0000
  C   C108      1.0  0.66912  0.46476  0.34445  1.0000
  H   H58       1.0  0.63791  0.50565  0.34905  1.0000
  H   H59       1.0  0.66426  0.44375  0.34378  1.0000
  H   H60       1.0  0.72589  0.53159  0.34492  1.0000
  C   C109      1.0  0.80078  0.31708  0.34408  1.0000
  C   C110      1.0  0.82295  0.31037  0.34517  1.0000
  C   C111      1.0  0.85202  0.33221  0.34690  1.0000
  C   C112      1.0  0.85884  0.36123  0.34758  1.0000
  C   C113      1.0  0.83676  0.36828  0.34636  1.0000
  C   C114      1.0  0.80778  0.34603  0.34457  1.0000
  H   H61       1.0  0.87988  0.37723  0.34878  1.0000
  H   H62       1.0  0.79163  0.35090  0.34402  1.0000
  H   H63       1.0  0.81781  0.28925  0.34490  1.0000
  C   C115      1.0  0.48978  0.79776  0.34399  1.0000
  C   C116      1.0  0.51866  0.81993  0.34522  1.0000
  C   C117      1.0  0.52588  0.84900  0.34705  1.0000
  C   C118      1.0  0.50366  0.85581  0.34776  1.0000
  C   C119      1.0  0.47455  0.83373  0.34635  1.0000
  C   C120      1.0  0.46782  0.80474  0.34441  1.0000
  H   H64       1.0  0.50870  0.87684  0.34905  1.0000
  H   H65       1.0  0.44681  0.78859  0.34374  1.0000
  H   H66       1.0  0.53464  0.81480  0.34499  1.0000
  C   C121      1.0  0.32011  0.52538  0.34397  1.0000
  C   C122      1.0  0.31340  0.49650  0.34514  1.0000
  C   C123      1.0  0.33524  0.48927  0.34697  1.0000
  C   C124      1.0  0.36427  0.51148  0.34766  1.0000
  C   C125      1.0  0.37130  0.54060  0.34634  1.0000
  C   C126      1.0  0.34906  0.54733  0.34445  1.0000
  H   H67       1.0  0.38026  0.50643  0.34893  1.0000
  H   H68       1.0  0.35393  0.56835  0.34381  1.0000
  H   H69       1.0  0.29228  0.48052  0.34488  1.0000
  C   C127      1.0  0.21742  0.69505  0.34401  1.0000
  C   C128      1.0  0.19525  0.70177  0.34518  1.0000
  C   C129      1.0  0.16618  0.67994  0.34702  1.0000
  C   C130      1.0  0.15935  0.65091  0.34771  1.0000
  C   C131      1.0  0.18142  0.64386  0.34638  1.0000
  C   C132      1.0  0.21041  0.66609  0.34448  1.0000
  H   H70       1.0  0.13831  0.63492  0.34898  1.0000
  H   H71       1.0  0.22655  0.66122  0.34382  1.0000
  H   H72       1.0  0.20040  0.72289  0.34492  1.0000
  C   C133      1.0  0.10808  0.37037  0.34426  1.0000
  C   C134      1.0  0.12850  0.36121  0.34416  1.0000
  C   C135      1.0  0.12006  0.33175  0.34527  1.0000
  C   C136      1.0  0.09030  0.31125  0.34613  1.0000
  C   C137      1.0  0.06932  0.31993  0.34567  1.0000
  C   C138      1.0  0.07862  0.34961  0.34477  1.0000
  H   H73       1.0  0.08385  0.28985  0.34706  1.0000
  H   H74       1.0  0.06378  0.35626  0.34500  1.0000
  H   H75       1.0  0.14993  0.37631  0.34407  1.0000
  C   C139      1.0  0.64478  0.74076  0.34424  1.0000
  C   C140      1.0  0.65395  0.77034  0.34424  1.0000
  C   C141      1.0  0.68341  0.79134  0.34532  1.0000
  C   C142      1.0  0.70390  0.78206  0.34611  1.0000
  C   C143      1.0  0.69520  0.75241  0.34561  1.0000
  C   C144      1.0  0.66551  0.73203  0.34467  1.0000
  H   H76       1.0  0.72530  0.79701  0.34708  1.0000
  H   H77       1.0  0.65885  0.71054  0.34487  1.0000
  H   H78       1.0  0.63887  0.77669  0.34416  1.0000
  C   C145      1.0  0.27439  0.90705  0.34436  1.0000
  C   C146      1.0  0.24480  0.88664  0.34432  1.0000
  C   C147      1.0  0.22381  0.89511  0.34532  1.0000
  C   C148      1.0  0.23310  0.92488  0.34600  1.0000
  C   C149      1.0  0.26275  0.94583  0.34557  1.0000
  C   C150      1.0  0.28312  0.93651  0.34475  1.0000
  H   H79       1.0  0.21815  0.93134  0.34689  1.0000
  H   H80       1.0  0.30461  0.95133  0.34496  1.0000
  H   H81       1.0  0.23845  0.86521  0.34429  1.0000
  C   C151      1.0  0.91008  0.64177  0.34425  1.0000
  C   C152      1.0  0.88968  0.65096  0.34424  1.0000
  C   C153      1.0  0.89815  0.68042  0.34536  1.0000
  C   C154      1.0  0.92792  0.70090  0.34616  1.0000
  C   C155      1.0  0.94887  0.69220  0.34563  1.0000
  C   C156      1.0  0.93955  0.66250  0.34469  1.0000
  H   H82       1.0  0.93439  0.72231  0.34714  1.0000
  H   H83       1.0  0.95437  0.65584  0.34486  1.0000
  H   H84       1.0  0.86825  0.63588  0.34419  1.0000
  C   C157      1.0  0.37338  0.27134  0.34434  1.0000
  C   C158      1.0  0.36420  0.24175  0.34431  1.0000
  C   C159      1.0  0.33474  0.22076  0.34532  1.0000
  C   C160      1.0  0.31425  0.23004  0.34602  1.0000
  C   C161      1.0  0.32295  0.25970  0.34559  1.0000
  C   C162      1.0  0.35265  0.28007  0.34473  1.0000
  H   H85       1.0  0.29284  0.21510  0.34691  1.0000
  H   H86       1.0  0.35931  0.30156  0.34493  1.0000
  H   H87       1.0  0.37928  0.23541  0.34424  1.0000
  C   C163      1.0  0.74382  0.10507  0.34429  1.0000
  C   C164      1.0  0.77341  0.12548  0.34430  1.0000
  C   C165      1.0  0.79440  0.11702  0.34536  1.0000
  C   C166      1.0  0.78512  0.08725  0.34612  1.0000
  C   C167      1.0  0.75546  0.06629  0.34561  1.0000
  C   C168      1.0  0.73509  0.07561  0.34469  1.0000
  H   H88       1.0  0.80006  0.08079  0.34707  1.0000
  H   H89       1.0  0.71360  0.06079  0.34488  1.0000
  H   H90       1.0  0.77975  0.14691  0.34426  1.0000
  C   C169      1.0  0.37337  0.10508  0.34684  1.0000
  C   C170      1.0  0.36418  0.12548  0.34686  1.0000
  C   C171      1.0  0.33472  0.11701  0.34571  1.0000
  C   C172      1.0  0.31425  0.08724  0.34483  1.0000
  C   C173      1.0  0.32295  0.06629  0.34538  1.0000
  C   C174      1.0  0.35265  0.07562  0.34638  1.0000
  H   H91       1.0  0.29284  0.08077  0.34380  1.0000
  H   H92       1.0  0.35932  0.06080  0.34616  1.0000
  H   H93       1.0  0.37927  0.14691  0.34690  1.0000
  C   C175      1.0  0.74380  0.64176  0.34675  1.0000
  C   C176      1.0  0.77339  0.65093  0.34675  1.0000
  C   C177      1.0  0.79439  0.68039  0.34571  1.0000
  C   C178      1.0  0.78512  0.70088  0.34497  1.0000
  C   C179      1.0  0.75547  0.69219  0.34545  1.0000
  C   C180      1.0  0.73508  0.66250  0.34635  1.0000
  H   H94       1.0  0.80007  0.72228  0.34400  1.0000
  H   H95       1.0  0.71360  0.65585  0.34612  1.0000
  H   H96       1.0  0.77972  0.63584  0.34674  1.0000
  C   C181      1.0  0.91008  0.27134  0.34671  1.0000
  C   C182      1.0  0.88966  0.24175  0.34678  1.0000
  C   C183      1.0  0.89811  0.22075  0.34577  1.0000
  C   C184      1.0  0.92788  0.23002  0.34503  1.0000
  C   C185      1.0  0.94884  0.25967  0.34545  1.0000
  C   C186      1.0  0.93954  0.28006  0.34628  1.0000
  H   H97       1.0  0.93433  0.21507  0.34410  1.0000
  H   H98       1.0  0.95438  0.30154  0.34603  1.0000
  H   H99       1.0  0.86824  0.23542  0.34678  1.0000
  C   C187      1.0  0.64478  0.90705  0.34685  1.0000
  C   C188      1.0  0.65397  0.88664  0.34684  1.0000
  C   C189      1.0  0.68343  0.89511  0.34574  1.0000
  C   C190      1.0  0.70391  0.92488  0.34490  1.0000
  C   C191      1.0  0.69521  0.94583  0.34543  1.0000
  C   C192      1.0  0.66552  0.93651  0.34640  1.0000
  H   H100      1.0  0.72531  0.93134  0.34387  1.0000
  H   H101      1.0  0.65885  0.95134  0.34619  1.0000
  H   H102      1.0  0.63888  0.86522  0.34690  1.0000
  C   C193      1.0  0.27438  0.37036  0.34679  1.0000
  C   C194      1.0  0.24479  0.36118  0.34687  1.0000
  C   C195      1.0  0.22379  0.33172  0.34578  1.0000
  C   C196      1.0  0.23308  0.31124  0.34496  1.0000
  C   C197      1.0  0.26273  0.31993  0.34540  1.0000
  C   C198      1.0  0.28310  0.34963  0.34629  1.0000
  H   H103      1.0  0.21813  0.28983  0.34398  1.0000
  H   H104      1.0  0.30459  0.35629  0.34604  1.0000
  H   H105      1.0  0.23845  0.37627  0.34694  1.0000
  C   C199      1.0  0.10810  0.74077  0.34681  1.0000
  C   C200      1.0  0.12851  0.77036  0.34685  1.0000
  C   C201      1.0  0.12005  0.79136  0.34572  1.0000
  C   C202      1.0  0.09029  0.78208  0.34486  1.0000
  C   C203      1.0  0.06933  0.75243  0.34538  1.0000
  C   C204      1.0  0.07864  0.73205  0.34632  1.0000
  H   H106      1.0  0.08383  0.79703  0.34385  1.0000
  H   H107      1.0  0.06380  0.71056  0.34610  1.0000
  H   H108      1.0  0.14994  0.77670  0.34692  1.0000
  C   C205      1.0  0.12491  0.41586  0.42637  1.0000
  N   N37       1.0  0.13916  0.44496  0.42209  1.0000
  H   H109      1.0  0.12177  0.40600  0.48765  1.0000
  C   C206      1.0  0.59925  0.71227  0.42629  1.0000
  N   N38       1.0  0.57015  0.69738  0.42192  1.0000
  H   H110      1.0  0.60909  0.71910  0.48755  1.0000
  C   C207      1.0  0.30297  0.89012  0.42645  1.0000
  N   N39       1.0  0.31785  0.87590  0.42215  1.0000
  H   H111      1.0  0.29620  0.89321  0.48771  1.0000
  C   C208      1.0  0.89312  0.59626  0.42632  1.0000
  N   N40       1.0  0.87889  0.56715  0.42203  1.0000
  H   H112      1.0  0.89619  0.60611  0.48759  1.0000
  C   C209      1.0  0.41888  0.29988  0.42639  1.0000
  N   N41       1.0  0.44799  0.31475  0.42212  1.0000
  H   H113      1.0  0.40903  0.29309  0.48764  1.0000
  C   C210      1.0  0.71525  0.12201  0.42638  1.0000
  N   N42       1.0  0.70038  0.13624  0.42201  1.0000
  H   H114      1.0  0.72202  0.11895  0.48765  1.0000
  C   C211      1.0  0.46291  0.14215  0.34768  1.0000
  C   C212      1.0  0.44699  0.13440  0.42877  1.0000
  N   N43       1.0  0.41792  0.12152  0.42471  1.0000
  C   C213      1.0  0.40303  0.11448  0.34578  1.0000
  H   H115      1.0  0.45693  0.14053  0.49010  1.0000
  C   C214      1.0  0.69133  0.55223  0.34776  1.0000
  C   C215      1.0  0.69941  0.56818  0.42878  1.0000
  N   N44       1.0  0.71560  0.59725  0.42465  1.0000
  C   C216      1.0  0.72353  0.61210  0.34568  1.0000
  H   H116      1.0  0.69552  0.55825  0.49016  1.0000
  C   C217      1.0  0.87302  0.32378  0.34750  1.0000
  C   C218      1.0  0.88072  0.31559  0.42864  1.0000
  N   N45       1.0  0.89360  0.29940  0.42457  1.0000
  C   C219      1.0  0.90070  0.29162  0.34565  1.0000
  H   H117      1.0  0.87454  0.31937  0.48996  1.0000
  C   C220      1.0  0.55530  0.87001  0.34781  1.0000
  C   C221      1.0  0.57120  0.87787  0.42891  1.0000
  N   N46       1.0  0.60027  0.89074  0.42480  1.0000
  C   C222      1.0  0.61512  0.89765  0.34582  1.0000
  H   H118      1.0  0.56125  0.87182  0.49027  1.0000
  C   C223      1.0  0.32682  0.45984  0.34764  1.0000
  C   C224      1.0  0.31868  0.44397  0.42880  1.0000
  N   N47       1.0  0.30248  0.41490  0.42472  1.0000
  C   C225      1.0  0.29464  0.40002  0.34577  1.0000
  H   H119      1.0  0.32249  0.45393  0.49011  1.0000
  C   C226      1.0  0.14518  0.68837  0.34767  1.0000
  C   C227      1.0  0.13742  0.69648  0.42882  1.0000
  N   N48       1.0  0.12453  0.71266  0.42472  1.0000
  C   C228      1.0  0.11748  0.72050  0.34579  1.0000
  H   H120      1.0  0.14355  0.69266  0.49014  1.0000
  C   C229      1.0  0.24605  0.53153  0.34708  1.0000
  C   C230      1.0  0.25991  0.53161  0.42794  1.0000
  N   N49       1.0  0.28471  0.53088  0.42297  1.0000
  C   C231      1.0  0.29763  0.53155  0.34348  1.0000
  H   H121      1.0  0.25059  0.52990  0.48946  1.0000
  C   C232      1.0  0.48362  0.71753  0.34724  1.0000
  C   C233      1.0  0.48351  0.73132  0.42805  1.0000
  N   N50       1.0  0.48424  0.75684  0.42303  1.0000
  C   C234      1.0  0.48362  0.76911  0.34351  1.0000
  H   H122      1.0  0.48518  0.72369  0.48959  1.0000
  C   C235      1.0  0.29761  0.76911  0.34706  1.0000
  C   C236      1.0  0.28385  0.75525  0.42795  1.0000
  N   N51       1.0  0.25832  0.73045  0.42298  1.0000
  C   C237      1.0  0.24606  0.71752  0.34349  1.0000
  H   H123      1.0  0.29146  0.76458  0.48946  1.0000
  C   C238      1.0  0.77212  0.48057  0.34717  1.0000
  C   C239      1.0  0.75823  0.48042  0.42803  1.0000
  N   N52       1.0  0.73344  0.48116  0.42301  1.0000
  C   C240      1.0  0.72055  0.48056  0.34351  1.0000
  H   H124      1.0  0.76753  0.48208  0.48956  1.0000
  C   C241      1.0  0.53456  0.29457  0.34712  1.0000
  C   C242      1.0  0.53470  0.28084  0.42803  1.0000
  N   N53       1.0  0.53397  0.25531  0.42308  1.0000
  C   C243      1.0  0.53458  0.24303  0.34358  1.0000
  H   H125      1.0  0.53302  0.28848  0.48954  1.0000
  C   C244      1.0  0.72058  0.24303  0.34715  1.0000
  C   C245      1.0  0.73429  0.25690  0.42807  1.0000
  N   N54       1.0  0.75981  0.28169  0.42314  1.0000
  C   C246      1.0  0.77214  0.29461  0.34370  1.0000
  H   H126      1.0  0.72663  0.24759  0.48958  1.0000
  C   C247      1.0  0.17549  0.60134  0.42789  1.0000
  N   N55       1.0  0.17615  0.57647  0.42332  1.0000
  H   H127      1.0  0.17702  0.61063  0.48934  1.0000
  C   C248      1.0  0.41380  0.57718  0.42791  1.0000
  N   N56       1.0  0.43868  0.60272  0.42334  1.0000
  H   H128      1.0  0.40449  0.56943  0.48935  1.0000
  C   C249      1.0  0.43799  0.83970  0.42787  1.0000
  N   N57       1.0  0.41246  0.83905  0.42330  1.0000
  H   H129      1.0  0.44578  0.83821  0.48933  1.0000
  C   C250      1.0  0.84270  0.41080  0.42790  1.0000
  N   N58       1.0  0.84205  0.43568  0.42327  1.0000
  H   H130      1.0  0.84117  0.40151  0.48936  1.0000
  C   C251      1.0  0.60432  0.43495  0.42788  1.0000
  N   N59       1.0  0.57944  0.40943  0.42326  1.0000
  H   H131      1.0  0.61358  0.44274  0.48935  1.0000
  C   C252      1.0  0.58025  0.17250  0.42788  1.0000
  N   N60       1.0  0.60577  0.17314  0.42321  1.0000
  H   H132      1.0  0.57251  0.17405  0.48935  1.0000
  C   C253      1.0  0.03930  0.30003  0.34652  1.0000
  C   C254      1.0  0.02321  0.29204  0.42735  1.0000
  N   N61       1.0  0.99402  0.27796  0.42312  1.0000
  C   C255      1.0  0.97887  0.26980  0.34453  1.0000
  H   H133      1.0  0.03308  0.29830  0.48875  1.0000
  C   C256      1.0  0.71509  0.74227  0.34655  1.0000
  C   C257      1.0  0.72308  0.73415  0.42734  1.0000
  N   N62       1.0  0.73716  0.71905  0.42307  1.0000
  C   C258      1.0  0.74533  0.71208  0.34445  1.0000
  H   H134      1.0  0.71682  0.73775  0.48875  1.0000
  C   C259      1.0  0.27291  0.97586  0.34642  1.0000
  C   C260      1.0  0.28112  0.99194  0.42726  1.0000
  N   N63       1.0  0.29623  0.02114  0.42305  1.0000
  C   C261      1.0  0.30309  0.03626  0.34442  1.0000
  H   H135      1.0  0.27760  0.98208  0.48864  1.0000
  C   C262      1.0  0.97891  0.71206  0.34653  1.0000
  C   C263      1.0  0.99500  0.72006  0.42733  1.0000
  N   N64       1.0  0.02419  0.73414  0.42303  1.0000
  C   C264      1.0  0.03930  0.74229  0.34435  1.0000
  H   H136      1.0  0.98514  0.71380  0.48875  1.0000
  C   C265      1.0  0.30309  0.26987  0.34644  1.0000
  C   C266      1.0  0.29515  0.27802  0.42727  1.0000
  N   N65       1.0  0.28108  0.29313  0.42301  1.0000
  C   C267      1.0  0.27287  0.30005  0.34437  1.0000
  H   H137      1.0  0.30146  0.27446  0.48867  1.0000
  C   C268      1.0  0.74529  0.03626  0.34646  1.0000
  C   C269      1.0  0.73713  0.02018  0.42730  1.0000
  N   N66       1.0  0.72201  0.99098  0.42303  1.0000
  C   C270      1.0  0.71509  0.97586  0.34439  1.0000
  H   H138      1.0  0.74069  0.03004  0.48869  1.0000
  C   C271      1.0  0.14201  0.32429  0.34622  1.0000
  C   C272      1.0  0.15586  0.32423  0.42718  1.0000
  N   N67       1.0  0.18155  0.32505  0.42308  1.0000
  C   C273      1.0  0.19438  0.32423  0.34475  1.0000
  H   H139      1.0  0.14831  0.32623  0.48844  1.0000
  C   C274      1.0  0.69091  0.82076  0.34630  1.0000
  C   C275      1.0  0.69078  0.83462  0.42717  1.0000
  N   N68       1.0  0.68996  0.85949  0.42300  1.0000
  C   C276      1.0  0.69093  0.87320  0.34466  1.0000
  H   H140      1.0  0.68867  0.82503  0.48843  1.0000
  C   C277      1.0  0.19439  0.87320  0.34633  1.0000
  C   C278      1.0  0.18056  0.85915  0.42718  1.0000
  N   N69       1.0  0.15570  0.83346  0.42301  1.0000
  C   C279      1.0  0.14198  0.82078  0.34462  1.0000
  H   H141      1.0  0.19017  0.86659  0.48843  1.0000
  C   C280      1.0  0.87624  0.68793  0.34641  1.0000
  C   C281      1.0  0.86228  0.68790  0.42724  1.0000
  N   N70       1.0  0.83658  0.68705  0.42307  1.0000
  C   C282      1.0  0.82381  0.68786  0.34461  1.0000
  H   H142      1.0  0.86981  0.68590  0.48854  1.0000
  C   C283      1.0  0.32724  0.19134  0.34627  1.0000
  C   C284      1.0  0.32749  0.17755  0.42717  1.0000
  N   N71       1.0  0.32831  0.15268  0.42300  1.0000
  C   C285      1.0  0.32722  0.13893  0.34462  1.0000
  H   H143      1.0  0.32969  0.18718  0.48840  1.0000
  C   C286      1.0  0.82382  0.13895  0.34641  1.0000
  C   C287      1.0  0.83775  0.15285  0.42730  1.0000
  N   N72       1.0  0.86260  0.17855  0.42313  1.0000
  C   C288      1.0  0.87617  0.19133  0.34466  1.0000
  H   H144      1.0  0.82822  0.14531  0.48859  1.0000
