data_image0
_chemical_formula_structural       N2HN2HN2HN2HN2HN2HC4HC2H3OC4HC2H3OC4HC2H3OC4HC2H3OC4HC2H3OC4HC2H3OC4HC2H3OC4HC2H3OC4HC2H3OC4HC2H3OC4HC2H3OC4HC2H3ONC18H12NC18H12NC18H12NC18H12NC18H12NC18H12NC18H12NC18H12NC18H12NC18H12NC18H12NC18H12C4HC2H2OC4HC2H2OC4HC2H2OC4HC2H2OC4HC2H2OC4HC2H2ON24
_chemical_formula_sum              "N48 H216 C324 O18"
_cell_length_a       63.9211
_cell_length_b       63.9212
_cell_length_c       14.7241
_cell_angle_alpha    90
_cell_angle_beta     90
_cell_angle_gamma    120

_space_group_name_H-M_alt    "P 1"
_space_group_IT_number       1

loop_
  _space_group_symop_operation_xyz
  'x, y, z'

loop_
  _atom_site_type_symbol
  _atom_site_label
  _atom_site_symmetry_multiplicity
  _atom_site_fract_x
  _atom_site_fract_y
  _atom_site_fract_z
  _atom_site_occupancy
  N   N1        1.0  0.21722  0.40410  0.31022  1.0000
  N   N2        1.0  0.20525  0.38033  0.30940  1.0000
  H   H1        1.0  0.21302  0.42816  0.00214  1.0000
  N   N3        1.0  0.60661  0.80509  0.31015  1.0000
  N   N4        1.0  0.63038  0.81692  0.30938  1.0000
  H   H2        1.0  0.58244  0.77667  0.00236  1.0000
  N   N5        1.0  0.20562  0.79347  0.31019  1.0000
  N   N6        1.0  0.19381  0.80543  0.30940  1.0000
  H   H3        1.0  0.23393  0.79760  0.00212  1.0000
  N   N7        1.0  0.80234  0.59761  0.30919  1.0000
  N   N8        1.0  0.81432  0.62138  0.30849  1.0000
  H   H4        1.0  0.80626  0.57341  0.00114  1.0000
  N   N9        1.0  0.41308  0.19678  0.30933  1.0000
  N   N10       1.0  0.38931  0.18497  0.30868  1.0000
  H   H5        1.0  0.43740  0.22507  0.00153  1.0000
  N   N11       1.0  0.81351  0.20819  0.30720  1.0000
  N   N12       1.0  0.82532  0.19623  0.30673  1.0000
  H   H6        1.0  0.78664  0.20582  0.00003  1.0000
  C   C1        1.0  0.21857  0.18234  0.32944  1.0000
  C   C2        1.0  0.20709  0.18372  0.24924  1.0000
  C   C3        1.0  0.19441  0.19672  0.24625  1.0000
  C   C4        1.0  0.19294  0.20848  0.32643  1.0000
  H   H7        1.0  0.20713  0.17440  0.19286  1.0000
  C   C5        1.0  0.18208  0.19598  0.16751  1.0000
  C   C6        1.0  0.19515  0.20579  0.08332  1.0000
  H   H8        1.0  0.21175  0.22288  0.09534  1.0000
  H   H9        1.0  0.18402  0.20921  0.03601  1.0000
  H   H10       1.0  0.19975  0.19315  0.05173  1.0000
  O   O1        1.0  0.16203  0.17804  0.16034  1.0000
  C   C7        1.0  0.82832  0.02841  0.32894  1.0000
  C   C8        1.0  0.82700  0.01552  0.24887  1.0000
  C   C9        1.0  0.81400  0.98984  0.24598  1.0000
  C   C10       1.0  0.80220  0.97664  0.32613  1.0000
  H   H11       1.0  0.83632  0.02488  0.19247  1.0000
  C   C11       1.0  0.81477  0.97823  0.16733  1.0000
  C   C12       1.0  0.80499  0.98147  0.08303  1.0000
  H   H12       1.0  0.78790  0.98099  0.09490  1.0000
  H   H13       1.0  0.80159  0.96692  0.03581  1.0000
  H   H14       1.0  0.81764  0.99870  0.05141  1.0000
  O   O2        1.0  0.83272  0.97613  0.16035  1.0000
  C   C13       1.0  0.98242  0.79211  0.32921  1.0000
  C   C14       1.0  0.99529  0.80367  0.24911  1.0000
  C   C15       1.0  0.02098  0.81630  0.24608  1.0000
  C   C16       1.0  0.03419  0.81769  0.32617  1.0000
  H   H15       1.0  0.98593  0.80370  0.19284  1.0000
  C   C17       1.0  0.03259  0.82874  0.16744  1.0000
  C   C18       1.0  0.02934  0.81539  0.08391  1.0000
  H   H16       1.0  0.03008  0.79894  0.09666  1.0000
  H   H17       1.0  0.04375  0.82647  0.03608  1.0000
  H   H18       1.0  0.01200  0.81048  0.05246  1.0000
  O   O3        1.0  0.03445  0.84866  0.15963  1.0000
  C   C19       1.0  0.80106  0.81955  0.32938  1.0000
  C   C20       1.0  0.81254  0.81817  0.24917  1.0000
  C   C21       1.0  0.82518  0.80513  0.24614  1.0000
  C   C22       1.0  0.82661  0.79333  0.32625  1.0000
  H   H19       1.0  0.81252  0.82751  0.19283  1.0000
  C   C23       1.0  0.83751  0.80587  0.16738  1.0000
  C   C24       1.0  0.82444  0.79609  0.08317  1.0000
  H   H20       1.0  0.80782  0.77901  0.09514  1.0000
  H   H21       1.0  0.83555  0.79267  0.03584  1.0000
  H   H22       1.0  0.81987  0.80876  0.05163  1.0000
  O   O4        1.0  0.85757  0.82379  0.16027  1.0000
  C   C25       1.0  0.19124  0.97356  0.32940  1.0000
  C   C26       1.0  0.19256  0.98642  0.24925  1.0000
  C   C27       1.0  0.20562  0.01210  0.24619  1.0000
  C   C28       1.0  0.21745  0.02533  0.32625  1.0000
  H   H23       1.0  0.18320  0.97705  0.19295  1.0000
  C   C29       1.0  0.20483  0.02369  0.16756  1.0000
  C   C30       1.0  0.21484  0.02045  0.08372  1.0000
  H   H24       1.0  0.23197  0.02105  0.09627  1.0000
  H   H25       1.0  0.21826  0.03494  0.03612  1.0000
  H   H26       1.0  0.20233  0.00317  0.05209  1.0000
  O   O5        1.0  0.18682  0.02562  0.15888  1.0000
  C   C31       1.0  0.03704  0.20971  0.32915  1.0000
  C   C32       1.0  0.02419  0.19812  0.24905  1.0000
  C   C33       1.0  0.99851  0.18553  0.24587  1.0000
  C   C34       1.0  0.98527  0.18422  0.32580  1.0000
  H   H27       1.0  0.03357  0.19803  0.19291  1.0000
  C   C35       1.0  0.98691  0.17305  0.16726  1.0000
  C   C36       1.0  0.99023  0.18637  0.08358  1.0000
  H   H28       1.0  0.98952  0.20284  0.09609  1.0000
  H   H29       1.0  0.97583  0.17527  0.03574  1.0000
  H   H30       1.0  0.00756  0.19122  0.05229  1.0000
  O   O6        1.0  0.98501  0.15311  0.15972  1.0000
  C   C37       1.0  0.24826  0.64199  0.33495  1.0000
  C   C38       1.0  0.23720  0.62580  0.26169  1.0000
  C   C39       1.0  0.23740  0.60372  0.25606  1.0000
  C   C40       1.0  0.24843  0.59754  0.32737  1.0000
  H   H31       1.0  0.22843  0.62978  0.21253  1.0000
  C   C41       1.0  0.22568  0.58822  0.18393  1.0000
  C   C42       1.0  0.23436  0.59573  0.09194  1.0000
  H   H32       1.0  0.22858  0.60804  0.06590  1.0000
  H   H33       1.0  0.22722  0.57995  0.04746  1.0000
  H   H34       1.0  0.25405  0.60479  0.08933  1.0000
  O   O7        1.0  0.20376  0.57585  0.19276  1.0000
  C   C43       1.0  0.36870  0.59820  0.33499  1.0000
  C   C44       1.0  0.38492  0.60328  0.26187  1.0000
  C   C45       1.0  0.40699  0.62557  0.25614  1.0000
  C   C46       1.0  0.41315  0.64281  0.32730  1.0000
  H   H35       1.0  0.38096  0.59050  0.21289  1.0000
  C   C47       1.0  0.42252  0.62929  0.18422  1.0000
  C   C48       1.0  0.41492  0.63058  0.09236  1.0000
  H   H36       1.0  0.40247  0.61254  0.06624  1.0000
  H   H37       1.0  0.43064  0.63915  0.04759  1.0000
  H   H38       1.0  0.40599  0.64134  0.09019  1.0000
  O   O8        1.0  0.43471  0.61951  0.19156  1.0000
  C   C49       1.0  0.41248  0.76241  0.33490  1.0000
  C   C50       1.0  0.40737  0.77348  0.26163  1.0000
  C   C51       1.0  0.38510  0.77330  0.25601  1.0000
  C   C52       1.0  0.36788  0.76226  0.32728  1.0000
  H   H39       1.0  0.42013  0.78226  0.21253  1.0000
  C   C53       1.0  0.38133  0.78502  0.18387  1.0000
  C   C54       1.0  0.38016  0.77634  0.09188  1.0000
  H   H40       1.0  0.39825  0.78210  0.06586  1.0000
  H   H41       1.0  0.37153  0.78349  0.04740  1.0000
  H   H42       1.0  0.36951  0.75665  0.08927  1.0000
  O   O9        1.0  0.39091  0.80695  0.19269  1.0000
  C   C55       1.0  0.77160  0.36013  0.33735  1.0000
  C   C56       1.0  0.78443  0.37726  0.26844  1.0000
  C   C57       1.0  0.78450  0.39948  0.26376  1.0000
  C   C58       1.0  0.77181  0.40468  0.33141  1.0000
  H   H43       1.0  0.79428  0.37384  0.22219  1.0000
  C   C59       1.0  0.79808  0.41617  0.19712  1.0000
  C   C60       1.0  0.79238  0.41015  0.10195  1.0000
  H   H44       1.0  0.79939  0.39865  0.07822  1.0000
  H   H45       1.0  0.80045  0.42665  0.06123  1.0000
  H   H46       1.0  0.77288  0.40075  0.09086  1.0000
  O   O10       1.0  0.81954  0.42875  0.21553  1.0000
  C   C61       1.0  0.65072  0.40349  0.33457  1.0000
  C   C62       1.0  0.63434  0.39855  0.26213  1.0000
  C   C63       1.0  0.61227  0.37626  0.25652  1.0000
  C   C64       1.0  0.60632  0.35890  0.32707  1.0000
  H   H47       1.0  0.63818  0.41143  0.21370  1.0000
  C   C65       1.0  0.59642  0.37259  0.18566  1.0000
  C   C66       1.0  0.60386  0.37173  0.09319  1.0000
  H   H48       1.0  0.61606  0.38992  0.06771  1.0000
  H   H49       1.0  0.58802  0.36316  0.04901  1.0000
  H   H50       1.0  0.61301  0.36120  0.08925  1.0000
  O   O11       1.0  0.58400  0.38201  0.19618  1.0000
  C   C67       1.0  0.60660  0.23827  0.33764  1.0000
  C   C68       1.0  0.61100  0.22581  0.26752  1.0000
  C   C69       1.0  0.63320  0.22587  0.26204  1.0000
  C   C70       1.0  0.65103  0.23828  0.33015  1.0000
  H   H51       1.0  0.59776  0.21612  0.22093  1.0000
  C   C71       1.0  0.63645  0.21268  0.19416  1.0000
  C   C72       1.0  0.63608  0.21875  0.09947  1.0000
  H   H52       1.0  0.61754  0.21169  0.07591  1.0000
  H   H53       1.0  0.64463  0.21099  0.05779  1.0000
  H   H54       1.0  0.64603  0.23830  0.08957  1.0000
  O   O12       1.0  0.62775  0.19117  0.21118  1.0000
  N   N13       1.0  0.14152  0.26155  0.35566  1.0000
  C   C73       1.0  0.11564  0.24873  0.34913  1.0000
  C   C74       1.0  0.15413  0.28747  0.36046  1.0000
  C   C75       1.0  0.15463  0.24872  0.34891  1.0000
  C   C76       1.0  0.15405  0.23337  0.41933  1.0000
  C   C77       1.0  0.16675  0.22054  0.41233  1.0000
  C   C78       1.0  0.18057  0.22226  0.33431  1.0000
  C   C79       1.0  0.18169  0.23836  0.26552  1.0000
  C   C80       1.0  0.16888  0.25103  0.27208  1.0000
  C   C81       1.0  0.10391  0.24601  0.26513  1.0000
  C   C82       1.0  0.07842  0.23346  0.25863  1.0000
  C   C83       1.0  0.06323  0.22292  0.33555  1.0000
  C   C84       1.0  0.07530  0.22625  0.41991  1.0000
  C   C85       1.0  0.10082  0.23875  0.42654  1.0000
  C   C86       1.0  0.15884  0.29917  0.44541  1.0000
  C   C87       1.0  0.17112  0.32465  0.45206  1.0000
  C   C88       1.0  0.17934  0.33991  0.37430  1.0000
  C   C89       1.0  0.17462  0.32785  0.28926  1.0000
  C   C90       1.0  0.16221  0.30233  0.28239  1.0000
  H   H55       1.0  0.07109  0.23257  0.19611  1.0000
  H   H56       1.0  0.11400  0.25325  0.20773  1.0000
  H   H57       1.0  0.10865  0.24060  0.48880  1.0000
  H   H58       1.0  0.06550  0.21917  0.47807  1.0000
  H   H59       1.0  0.14417  0.23135  0.47658  1.0000
  H   H60       1.0  0.16530  0.20933  0.46457  1.0000
  H   H61       1.0  0.15339  0.28905  0.50353  1.0000
  H   H62       1.0  0.17442  0.33184  0.51587  1.0000
  H   H63       1.0  0.17992  0.33762  0.23033  1.0000
  H   H64       1.0  0.15898  0.29457  0.21948  1.0000
  H   H65       1.0  0.17005  0.26208  0.21982  1.0000
  H   H66       1.0  0.19226  0.24140  0.20952  1.0000
  N   N14       1.0  0.74917  0.87215  0.35561  1.0000
  C   C91       1.0  0.76201  0.85911  0.34917  1.0000
  C   C92       1.0  0.72325  0.85882  0.36045  1.0000
  C   C93       1.0  0.76199  0.89809  0.34883  1.0000
  C   C94       1.0  0.77730  0.91288  0.41929  1.0000
  C   C95       1.0  0.79012  0.93841  0.41223  1.0000
  C   C96       1.0  0.78843  0.95049  0.33410  1.0000
  C   C97       1.0  0.77236  0.93549  0.26524  1.0000
  C   C98       1.0  0.75971  0.91001  0.27187  1.0000
  C   C99       1.0  0.76462  0.84996  0.26528  1.0000
  C   C100      1.0  0.77717  0.83703  0.25885  1.0000
  C   C101      1.0  0.78784  0.83253  0.33572  1.0000
  C   C102      1.0  0.78463  0.84139  0.41997  1.0000
  C   C103      1.0  0.77211  0.85440  0.42653  1.0000
  C   C104      1.0  0.71157  0.85176  0.44540  1.0000
  C   C105      1.0  0.68609  0.83854  0.45209  1.0000
  C   C106      1.0  0.67081  0.83153  0.37437  1.0000
  C   C107      1.0  0.68287  0.83894  0.28933  1.0000
  C   C108      1.0  0.70838  0.85208  0.28242  1.0000
  H   H67       1.0  0.77798  0.83049  0.19642  1.0000
  H   H68       1.0  0.75729  0.85271  0.20793  1.0000
  H   H69       1.0  0.77035  0.86047  0.48871  1.0000
  H   H70       1.0  0.79180  0.83878  0.47808  1.0000
  H   H71       1.0  0.77929  0.90504  0.47665  1.0000
  H   H72       1.0  0.80129  0.94818  0.46452  1.0000
  H   H73       1.0  0.72169  0.85639  0.50349  1.0000
  H   H74       1.0  0.67891  0.83459  0.51591  1.0000
  H   H75       1.0  0.67309  0.83450  0.23042  1.0000
  H   H76       1.0  0.71614  0.85666  0.21950  1.0000
  H   H77       1.0  0.74869  0.90012  0.21957  1.0000
  H   H78       1.0  0.76934  0.94301  0.20915  1.0000
  N   N15       1.0  0.13868  0.86908  0.35562  1.0000
  C   C109      1.0  0.15173  0.89496  0.34918  1.0000
  C   C110      1.0  0.15200  0.85647  0.36043  1.0000
  C   C111      1.0  0.11274  0.85598  0.34883  1.0000
  C   C112      1.0  0.09796  0.85650  0.41930  1.0000
  C   C113      1.0  0.07243  0.84383  0.41223  1.0000
  C   C114      1.0  0.06034  0.83005  0.33410  1.0000
  C   C115      1.0  0.07533  0.82898  0.26522  1.0000
  C   C116      1.0  0.10081  0.84178  0.27185  1.0000
  C   C117      1.0  0.16082  0.90671  0.26526  1.0000
  C   C118      1.0  0.17375  0.93220  0.25883  1.0000
  C   C119      1.0  0.17829  0.94737  0.33573  1.0000
  C   C120      1.0  0.16947  0.93529  0.42001  1.0000
  C   C121      1.0  0.15647  0.90976  0.42657  1.0000
  C   C122      1.0  0.15906  0.85185  0.44538  1.0000
  C   C123      1.0  0.17227  0.83958  0.45205  1.0000
  C   C124      1.0  0.17927  0.83131  0.37432  1.0000
  C   C125      1.0  0.17185  0.83595  0.28929  1.0000
  C   C126      1.0  0.15873  0.84834  0.28239  1.0000
  H   H79       1.0  0.18024  0.93954  0.19637  1.0000
  H   H80       1.0  0.15804  0.89664  0.20788  1.0000
  H   H81       1.0  0.15043  0.90193  0.48877  1.0000
  H   H82       1.0  0.17211  0.94507  0.47815  1.0000
  H   H83       1.0  0.10580  0.86633  0.47667  1.0000
  H   H84       1.0  0.06266  0.84522  0.46456  1.0000
  H   H85       1.0  0.15443  0.85734  0.50347  1.0000
  H   H86       1.0  0.17622  0.83634  0.51586  1.0000
  H   H87       1.0  0.17630  0.83062  0.23038  1.0000
  H   H88       1.0  0.15415  0.85152  0.21948  1.0000
  H   H89       1.0  0.11069  0.84065  0.21955  1.0000
  H   H90       1.0  0.06781  0.81845  0.20915  1.0000
  N   N16       1.0  0.87793  0.74015  0.35524  1.0000
  C   C127      1.0  0.90382  0.75300  0.34885  1.0000
  C   C128      1.0  0.86534  0.71423  0.35995  1.0000
  C   C129      1.0  0.86483  0.75299  0.34860  1.0000
  C   C130      1.0  0.86540  0.76832  0.41911  1.0000
  C   C131      1.0  0.85274  0.78119  0.41214  1.0000
  C   C132      1.0  0.83894  0.77951  0.33409  1.0000
  C   C133      1.0  0.83783  0.76344  0.26519  1.0000
  C   C134      1.0  0.85062  0.75074  0.27171  1.0000
  C   C135      1.0  0.91558  0.75570  0.26493  1.0000
  C   C136      1.0  0.94107  0.76828  0.25855  1.0000
  C   C137      1.0  0.95623  0.77887  0.33550  1.0000
  C   C138      1.0  0.94414  0.77556  0.41978  1.0000
  C   C139      1.0  0.91861  0.76302  0.42630  1.0000
  C   C140      1.0  0.86071  0.70251  0.44484  1.0000
  C   C141      1.0  0.84845  0.67704  0.45140  1.0000
  C   C142      1.0  0.84018  0.66178  0.37360  1.0000
  C   C143      1.0  0.84482  0.67387  0.28863  1.0000
  C   C144      1.0  0.85720  0.69939  0.28185  1.0000
  H   H91       1.0  0.94842  0.76915  0.19608  1.0000
  H   H92       1.0  0.90551  0.74842  0.20752  1.0000
  H   H93       1.0  0.91076  0.76119  0.48850  1.0000
  H   H94       1.0  0.95391  0.78267  0.47796  1.0000
  H   H95       1.0  0.87524  0.77029  0.47641  1.0000
  H   H96       1.0  0.85416  0.79235  0.46449  1.0000
  H   H97       1.0  0.86621  0.71262  0.50298  1.0000
  H   H98       1.0  0.84522  0.66983  0.51517  1.0000
  H   H99       1.0  0.83948  0.66411  0.22968  1.0000
  H   H100      1.0  0.86038  0.70717  0.21897  1.0000
  H   H101      1.0  0.84945  0.73972  0.21938  1.0000
  H   H102      1.0  0.82728  0.76044  0.20917  1.0000
  N   N17       1.0  0.27055  0.12983  0.35546  1.0000
  C   C145      1.0  0.25771  0.14287  0.34909  1.0000
  C   C146      1.0  0.29646  0.14314  0.36019  1.0000
  C   C147      1.0  0.25771  0.10388  0.34875  1.0000
  C   C148      1.0  0.24242  0.08911  0.41928  1.0000
  C   C149      1.0  0.22958  0.06358  0.41226  1.0000
  C   C150      1.0  0.23124  0.05148  0.33413  1.0000
  C   C151      1.0  0.24729  0.06646  0.26521  1.0000
  C   C152      1.0  0.25996  0.09194  0.27178  1.0000
  C   C153      1.0  0.25509  0.15201  0.26522  1.0000
  C   C154      1.0  0.24250  0.16492  0.25884  1.0000
  C   C155      1.0  0.23183  0.16940  0.33573  1.0000
  C   C156      1.0  0.23505  0.16054  0.41996  1.0000
  C   C157      1.0  0.24759  0.14755  0.42647  1.0000
  C   C158      1.0  0.30818  0.15021  0.44509  1.0000
  C   C159      1.0  0.33366  0.16340  0.45167  1.0000
  C   C160      1.0  0.34892  0.17040  0.37389  1.0000
  C   C161      1.0  0.33683  0.16297  0.28891  1.0000
  C   C162      1.0  0.31131  0.14985  0.28209  1.0000
  H   H103      1.0  0.24169  0.17146  0.19643  1.0000
  H   H104      1.0  0.26242  0.14928  0.20785  1.0000
  H   H105      1.0  0.24937  0.14148  0.48863  1.0000
  H   H106      1.0  0.22788  0.16313  0.47808  1.0000
  H   H107      1.0  0.24046  0.09696  0.47665  1.0000
  H   H108      1.0  0.21843  0.05382  0.46463  1.0000
  H   H109      1.0  0.29807  0.14560  0.50322  1.0000
  H   H110      1.0  0.34086  0.16737  0.51546  1.0000
  H   H111      1.0  0.34659  0.16740  0.22995  1.0000
  H   H112      1.0  0.30354  0.14527  0.21921  1.0000
  H   H113      1.0  0.27097  0.10182  0.21943  1.0000
  H   H114      1.0  0.25029  0.05894  0.20912  1.0000
  N   N18       1.0  0.88076  0.13291  0.35434  1.0000
  C   C163      1.0  0.86773  0.10702  0.34816  1.0000
  C   C164      1.0  0.86744  0.14549  0.35897  1.0000
  C   C165      1.0  0.90671  0.14602  0.34786  1.0000
  C   C166      1.0  0.92145  0.14552  0.41858  1.0000
  C   C167      1.0  0.94698  0.15818  0.41171  1.0000
  C   C168      1.0  0.95913  0.17190  0.33355  1.0000
  C   C169      1.0  0.94418  0.17295  0.26445  1.0000
  C   C170      1.0  0.91869  0.16017  0.27086  1.0000
  C   C171      1.0  0.85860  0.09522  0.26435  1.0000
  C   C172      1.0  0.84570  0.06972  0.25811  1.0000
  C   C173      1.0  0.84123  0.05460  0.33510  1.0000
  C   C174      1.0  0.85008  0.06673  0.41928  1.0000
  C   C175      1.0  0.86305  0.09226  0.42565  1.0000
  C   C176      1.0  0.86024  0.15003  0.44379  1.0000
  C   C177      1.0  0.84703  0.16230  0.45029  1.0000
  C   C178      1.0  0.84012  0.17064  0.37250  1.0000
  C   C179      1.0  0.84765  0.16606  0.28758  1.0000
  C   C180      1.0  0.86081  0.15370  0.28085  1.0000
  H   H115      1.0  0.83917  0.06235  0.19573  1.0000
  H   H116      1.0  0.86133  0.10526  0.20691  1.0000
  H   H117      1.0  0.86912  0.10013  0.48778  1.0000
  H   H118      1.0  0.84749  0.05699  0.47747  1.0000
  H   H119      1.0  0.91357  0.13573  0.47597  1.0000
  H   H120      1.0  0.95671  0.15680  0.46421  1.0000
  H   H121      1.0  0.86478  0.14448  0.50194  1.0000
  H   H122      1.0  0.84298  0.16544  0.51407  1.0000
  H   H123      1.0  0.84330  0.17145  0.22860  1.0000
  H   H124      1.0  0.86547  0.15058  0.21801  1.0000
  H   H125      1.0  0.90885  0.16128  0.21835  1.0000
  H   H126      1.0  0.95174  0.18345  0.20830  1.0000
  N   N19       1.0  0.27099  0.52216  0.35925  1.0000
  C   C181      1.0  0.29676  0.53633  0.35774  1.0000
  C   C182      1.0  0.25831  0.49628  0.36295  1.0000
  C   C183      1.0  0.25925  0.53608  0.34877  1.0000
  C   C184      1.0  0.25380  0.54561  0.42592  1.0000
  C   C185      1.0  0.24935  0.56508  0.41811  1.0000
  C   C186      1.0  0.25044  0.57607  0.33309  1.0000
  C   C187      1.0  0.25559  0.56607  0.25612  1.0000
  C   C188      1.0  0.25955  0.54635  0.26350  1.0000
  C   C189      1.0  0.30925  0.55013  0.43469  1.0000
  C   C190      1.0  0.33309  0.56968  0.42755  1.0000
  C   C191      1.0  0.34545  0.57650  0.34309  1.0000
  C   C192      1.0  0.33298  0.56182  0.26707  1.0000
  C   C193      1.0  0.30924  0.54210  0.27424  1.0000
  C   C194      1.0  0.26009  0.48422  0.44037  1.0000
  C   C195      1.0  0.24747  0.45873  0.44587  1.0000
  C   C196      1.0  0.23208  0.44399  0.37506  1.0000
  C   C197      1.0  0.23097  0.45622  0.29638  1.0000
  C   C198      1.0  0.24371  0.48177  0.29056  1.0000
  H   H127      1.0  0.34093  0.57963  0.48475  1.0000
  H   H128      1.0  0.30040  0.54706  0.49538  1.0000
  H   H129      1.0  0.30029  0.53335  0.21640  1.0000
  H   H130      1.0  0.34027  0.56626  0.20347  1.0000
  H   H131      1.0  0.25471  0.53949  0.48915  1.0000
  H   H132      1.0  0.24627  0.57185  0.47637  1.0000
  H   H133      1.0  0.27072  0.49406  0.49368  1.0000
  H   H134      1.0  0.24986  0.45100  0.50270  1.0000
  H   H135      1.0  0.22021  0.44655  0.24302  1.0000
  H   H136      1.0  0.24208  0.48983  0.23315  1.0000
  H   H137      1.0  0.26489  0.54094  0.20704  1.0000
  H   H138      1.0  0.25841  0.57417  0.19412  1.0000
  N   N20       1.0  0.48855  0.74076  0.35910  1.0000
  C   C199      1.0  0.47438  0.75235  0.35775  1.0000
  C   C200      1.0  0.51444  0.75397  0.36289  1.0000
  C   C201      1.0  0.47464  0.71510  0.34875  1.0000
  C   C202      1.0  0.46505  0.70013  0.42593  1.0000
  C   C203      1.0  0.44557  0.67623  0.41811  1.0000
  C   C204      1.0  0.43465  0.66629  0.33303  1.0000
  C   C205      1.0  0.44472  0.68140  0.25601  1.0000
  C   C206      1.0  0.46439  0.70511  0.26348  1.0000
  C   C207      1.0  0.46060  0.75111  0.43468  1.0000
  C   C208      1.0  0.44104  0.75538  0.42750  1.0000
  C   C209      1.0  0.43419  0.76087  0.34301  1.0000
  C   C210      1.0  0.44884  0.76303  0.26697  1.0000
  C   C211      1.0  0.46850  0.75892  0.27415  1.0000
  C   C212      1.0  0.52648  0.76782  0.44030  1.0000
  C   C213      1.0  0.55197  0.78071  0.44580  1.0000
  C   C214      1.0  0.56673  0.78007  0.37504  1.0000
  C   C215      1.0  0.55450  0.76671  0.29636  1.0000
  C   C216      1.0  0.52896  0.75389  0.29053  1.0000
  H   H139      1.0  0.43112  0.75333  0.48475  1.0000
  H   H140      1.0  0.46371  0.74539  0.49544  1.0000
  H   H141      1.0  0.47728  0.75876  0.21632  1.0000
  H   H142      1.0  0.44437  0.76580  0.20331  1.0000
  H   H143      1.0  0.47110  0.70718  0.48919  1.0000
  H   H144      1.0  0.43874  0.66641  0.47639  1.0000
  H   H145      1.0  0.51663  0.76861  0.49358  1.0000
  H   H146      1.0  0.55969  0.79084  0.50264  1.0000
  H   H147      1.0  0.56419  0.76564  0.24302  1.0000
  H   H148      1.0  0.52090  0.74418  0.23312  1.0000
  H   H149      1.0  0.46989  0.71582  0.20692  1.0000
  H   H150      1.0  0.43666  0.67612  0.19395  1.0000
  N   N21       1.0  0.26993  0.73972  0.35889  1.0000
  C   C217      1.0  0.25833  0.71395  0.35766  1.0000
  C   C218      1.0  0.25674  0.75241  0.36277  1.0000
  C   C219      1.0  0.29560  0.75146  0.34871  1.0000
  C   C220      1.0  0.31058  0.75690  0.42584  1.0000
  C   C221      1.0  0.33448  0.76132  0.41803  1.0000
  C   C222      1.0  0.34440  0.76027  0.33300  1.0000
  C   C223      1.0  0.32927  0.75515  0.25601  1.0000
  C   C224      1.0  0.30557  0.75114  0.26345  1.0000
  C   C225      1.0  0.25960  0.70143  0.43459  1.0000
  C   C226      1.0  0.25530  0.67759  0.42749  1.0000
  C   C227      1.0  0.24981  0.66524  0.34301  1.0000
  C   C228      1.0  0.24766  0.67773  0.26695  1.0000
  C   C229      1.0  0.25173  0.70148  0.27411  1.0000
  C   C230      1.0  0.24290  0.75061  0.44022  1.0000
  C   C231      1.0  0.23004  0.76323  0.44578  1.0000
  C   C232      1.0  0.23066  0.77862  0.37500  1.0000
  C   C233      1.0  0.24400  0.77975  0.29629  1.0000
  C   C234      1.0  0.25681  0.76701  0.29042  1.0000
  H   H151      1.0  0.25740  0.66975  0.48471  1.0000
  H   H152      1.0  0.26535  0.71027  0.49532  1.0000
  H   H153      1.0  0.25186  0.71041  0.21627  1.0000
  H   H154      1.0  0.24482  0.67045  0.20334  1.0000
  H   H155      1.0  0.30354  0.75593  0.48909  1.0000
  H   H156      1.0  0.34432  0.76435  0.47631  1.0000
  H   H157      1.0  0.24212  0.73997  0.49349  1.0000
  H   H158      1.0  0.21991  0.76083  0.50262  1.0000
  H   H159      1.0  0.24507  0.79050  0.24295  1.0000
  H   H160      1.0  0.26651  0.76865  0.23298  1.0000
  H   H161      1.0  0.29485  0.74591  0.20691  1.0000
  H   H162      1.0  0.33456  0.75236  0.19399  1.0000
  N   N22       1.0  0.74851  0.47954  0.35742  1.0000
  C   C235      1.0  0.72274  0.46530  0.35631  1.0000
  C   C236      1.0  0.76118  0.50542  0.36147  1.0000
  C   C237      1.0  0.76033  0.46567  0.34879  1.0000
  C   C238      1.0  0.76555  0.45628  0.42698  1.0000
  C   C239      1.0  0.77017  0.43691  0.42073  1.0000
  C   C240      1.0  0.76965  0.42603  0.33614  1.0000
  C   C241      1.0  0.76479  0.43585  0.25800  1.0000
  C   C242      1.0  0.76044  0.45535  0.26406  1.0000
  C   C243      1.0  0.71023  0.45163  0.43348  1.0000
  C   C244      1.0  0.68639  0.43208  0.42666  1.0000
  C   C245      1.0  0.67400  0.42516  0.34230  1.0000
  C   C246      1.0  0.68646  0.43968  0.26596  1.0000
  C   C247      1.0  0.71026  0.45931  0.27276  1.0000
  C   C248      1.0  0.75932  0.51745  0.43884  1.0000
  C   C249      1.0  0.77197  0.54293  0.44449  1.0000
  C   C250      1.0  0.78743  0.55770  0.37390  1.0000
  C   C251      1.0  0.78862  0.54549  0.29526  1.0000
  C   C252      1.0  0.77586  0.51995  0.28931  1.0000
  H   H163      1.0  0.67853  0.42224  0.48408  1.0000
  H   H164      1.0  0.71907  0.45483  0.49424  1.0000
  H   H165      1.0  0.71919  0.46800  0.21478  1.0000
  H   H166      1.0  0.67912  0.43515  0.20244  1.0000
  H   H167      1.0  0.76436  0.46245  0.48977  1.0000
  H   H168      1.0  0.77300  0.43015  0.47953  1.0000
  H   H169      1.0  0.74863  0.50759  0.49199  1.0000
  H   H170      1.0  0.76953  0.55065  0.50127  1.0000
  H   H171      1.0  0.79943  0.55518  0.24204  1.0000
  H   H172      1.0  0.77755  0.51190  0.23194  1.0000
  H   H173      1.0  0.75531  0.46067  0.20681  1.0000
  H   H174      1.0  0.76254  0.42777  0.19615  1.0000
  N   N23       1.0  0.53116  0.26087  0.35696  1.0000
  C   C253      1.0  0.54529  0.24922  0.35726  1.0000
  C   C254      1.0  0.50528  0.24775  0.36130  1.0000
  C   C255      1.0  0.54515  0.28653  0.34668  1.0000
  C   C256      1.0  0.55421  0.30153  0.42400  1.0000
  C   C257      1.0  0.57364  0.32548  0.41678  1.0000
  C   C258      1.0  0.58492  0.33539  0.33222  1.0000
  C   C259      1.0  0.57539  0.32025  0.25502  1.0000
  C   C260      1.0  0.55580  0.29647  0.26184  1.0000
  C   C261      1.0  0.55910  0.25085  0.43457  1.0000
  C   C262      1.0  0.57851  0.24631  0.42852  1.0000
  C   C263      1.0  0.58505  0.24008  0.34493  1.0000
  C   C264      1.0  0.57036  0.23755  0.26861  1.0000
  C   C265      1.0  0.55088  0.24197  0.27459  1.0000
  C   C266      1.0  0.49328  0.23401  0.43897  1.0000
  C   C267      1.0  0.46780  0.22117  0.44473  1.0000
  C   C268      1.0  0.45300  0.22176  0.37399  1.0000
  C   C269      1.0  0.46519  0.23501  0.29509  1.0000
  C   C270      1.0  0.49073  0.24778  0.28899  1.0000
  H   H175      1.0  0.58851  0.24866  0.48580  1.0000
  H   H176      1.0  0.55616  0.25702  0.49457  1.0000
  H   H177      1.0  0.54204  0.24184  0.21649  1.0000
  H   H178      1.0  0.57466  0.23418  0.20555  1.0000
  H   H179      1.0  0.54776  0.29451  0.48698  1.0000
  H   H180      1.0  0.58011  0.33539  0.47508  1.0000
  H   H181      1.0  0.50315  0.23325  0.49220  1.0000
  H   H182      1.0  0.46010  0.21109  0.50169  1.0000
  H   H183      1.0  0.45548  0.23605  0.24175  1.0000
  H   H184      1.0  0.49876  0.25740  0.23139  1.0000
  H   H185      1.0  0.55069  0.28571  0.20542  1.0000
  H   H186      1.0  0.58376  0.32562  0.19348  1.0000
  N   N24       1.0  0.74934  0.26211  0.35404  1.0000
  C   C271      1.0  0.76080  0.28788  0.35472  1.0000
  C   C272      1.0  0.76257  0.24948  0.35870  1.0000
  C   C273      1.0  0.72363  0.25025  0.34544  1.0000
  C   C274      1.0  0.70892  0.24419  0.42361  1.0000
  C   C275      1.0  0.68488  0.23945  0.41795  1.0000
  C   C276      1.0  0.67460  0.24060  0.33401  1.0000
  C   C277      1.0  0.68938  0.24620  0.25578  1.0000
  C   C278      1.0  0.71332  0.25077  0.26122  1.0000
  C   C279      1.0  0.75910  0.29992  0.43243  1.0000
  C   C280      1.0  0.76353  0.32383  0.42709  1.0000
  C   C281      1.0  0.76976  0.33676  0.34385  1.0000
  C   C282      1.0  0.77235  0.32476  0.26709  1.0000
  C   C283      1.0  0.76800  0.30087  0.27235  1.0000
  C   C284      1.0  0.77652  0.25149  0.43605  1.0000
  C   C285      1.0  0.78943  0.23893  0.44199  1.0000
  C   C286      1.0  0.78870  0.22334  0.37183  1.0000
  C   C287      1.0  0.77523  0.22198  0.29321  1.0000
  C   C288      1.0  0.76240  0.23469  0.28688  1.0000
  H   H187      1.0  0.76112  0.33135  0.48461  1.0000
  H   H188      1.0  0.75295  0.29069  0.49223  1.0000
  H   H189      1.0  0.76812  0.29226  0.21399  1.0000
  H   H190      1.0  0.77571  0.33256  0.20426  1.0000
  H   H191      1.0  0.71622  0.24488  0.48612  1.0000
  H   H192      1.0  0.67516  0.23600  0.47675  1.0000
  H   H193      1.0  0.77738  0.26228  0.48891  1.0000
  H   H194      1.0  0.79967  0.24153  0.49866  1.0000
  H   H195      1.0  0.77408  0.21108  0.24028  1.0000
  H   H196      1.0  0.75262  0.23289  0.22954  1.0000
  H   H197      1.0  0.72386  0.25648  0.20424  1.0000
  H   H198      1.0  0.68358  0.24892  0.19462  1.0000
  C   C289      1.0  0.19198  0.36615  0.38033  1.0000
  C   C290      1.0  0.19144  0.37917  0.45735  1.0000
  C   C291      1.0  0.20452  0.40484  0.46008  1.0000
  C   C292      1.0  0.21815  0.41790  0.38251  1.0000
  H   H199      1.0  0.18080  0.36998  0.51152  1.0000
  C   C293      1.0  0.20220  0.41669  0.53531  1.0000
  C   C294      1.0  0.21058  0.41362  0.62323  1.0000
  H   H200      1.0  0.19751  0.39637  0.65364  1.0000
  H   H201      1.0  0.22793  0.41429  0.61720  1.0000
  O   O13       1.0  0.18410  0.41862  0.53546  1.0000
  C   C295      1.0  0.64457  0.81791  0.38042  1.0000
  C   C296      1.0  0.63155  0.80440  0.45753  1.0000
  C   C297      1.0  0.60588  0.79175  0.46016  1.0000
  C   C298      1.0  0.59282  0.79226  0.38249  1.0000
  H   H202      1.0  0.64074  0.80301  0.51183  1.0000
  C   C299      1.0  0.59405  0.77767  0.53551  1.0000
  C   C300      1.0  0.59711  0.78881  0.62399  1.0000
  H   H203      1.0  0.61426  0.79268  0.65446  1.0000
  H   H204      1.0  0.59669  0.80563  0.61872  1.0000
  O   O14       1.0  0.59189  0.75753  0.53496  1.0000
  C   C301      1.0  0.19288  0.81868  0.38035  1.0000
  C   C302      1.0  0.20644  0.81922  0.45738  1.0000
  C   C303      1.0  0.21905  0.80615  0.46007  1.0000
  C   C304      1.0  0.21849  0.79253  0.38248  1.0000
  H   H205      1.0  0.20786  0.82982  0.51163  1.0000
  C   C305      1.0  0.23317  0.80844  0.53527  1.0000
  C   C306      1.0  0.22184  0.80013  0.62347  1.0000
  H   H206      1.0  0.21779  0.81327  0.65408  1.0000
  H   H207      1.0  0.20509  0.78284  0.61762  1.0000
  O   O15       1.0  0.25322  0.82652  0.53630  1.0000
  C   C307      1.0  0.82754  0.63554  0.37953  1.0000
  C   C308      1.0  0.82803  0.62249  0.45655  1.0000
  C   C309      1.0  0.81494  0.59681  0.45917  1.0000
  C   C310      1.0  0.80136  0.58378  0.38147  1.0000
  H   H208      1.0  0.83862  0.63165  0.51085  1.0000
  C   C311      1.0  0.81719  0.58493  0.53443  1.0000
  C   C312      1.0  0.80873  0.58796  0.62224  1.0000
  H   H209      1.0  0.82177  0.60521  0.65278  1.0000
  H   H210      1.0  0.79138  0.58729  0.61596  1.0000
  O   O16       1.0  0.83529  0.58301  0.53484  1.0000
  C   C313      1.0  0.37516  0.18399  0.37981  1.0000
  C   C314      1.0  0.38821  0.19750  0.45688  1.0000
  C   C315      1.0  0.41389  0.21011  0.45941  1.0000
  C   C316      1.0  0.42692  0.20960  0.38162  1.0000
  H   H211      1.0  0.37906  0.19886  0.51133  1.0000
  C   C317      1.0  0.42574  0.22414  0.53480  1.0000
  C   C318      1.0  0.42271  0.21296  0.62318  1.0000
  H   H212      1.0  0.40558  0.20909  0.65380  1.0000
  H   H213      1.0  0.42312  0.19614  0.61770  1.0000
  O   O17       1.0  0.42792  0.24429  0.53448  1.0000
  C   C319      1.0  0.82652  0.18329  0.37830  1.0000
  C   C320      1.0  0.81324  0.18312  0.45568  1.0000
  C   C321      1.0  0.80065  0.19621  0.45806  1.0000
  C   C322      1.0  0.80091  0.20947  0.37976  1.0000
  H   H214      1.0  0.81202  0.17278  0.51055  1.0000
  C   C323      1.0  0.78685  0.19428  0.53383  1.0000
  C   C324      1.0  0.79856  0.20308  0.62116  1.0000
  H   H215      1.0  0.80277  0.19012  0.65241  1.0000
  H   H216      1.0  0.81526  0.22035  0.61375  1.0000
  O   O18       1.0  0.76682  0.17619  0.53658  1.0000
  N   N25       1.0  0.20395  0.20573  0.40129  1.0000
  N   N26       1.0  0.21575  0.19375  0.40273  1.0000
  N   N27       1.0  0.80490  0.99041  0.40088  1.0000
  N   N28       1.0  0.81687  0.01419  0.40224  1.0000
  N   N29       1.0  0.02043  0.80662  0.40096  1.0000
  N   N30       1.0  0.99666  0.79485  0.40241  1.0000
  N   N31       1.0  0.81561  0.79609  0.40113  1.0000
  N   N32       1.0  0.80385  0.80810  0.40263  1.0000
  N   N33       1.0  0.21474  0.01158  0.40108  1.0000
  N   N34       1.0  0.20274  0.98780  0.40258  1.0000
  N   N35       1.0  0.99901  0.19531  0.40060  1.0000
  N   N36       1.0  0.02279  0.20705  0.40220  1.0000
  N   N37       1.0  0.25831  0.61398  0.39593  1.0000
  N   N38       1.0  0.25831  0.63445  0.39935  1.0000
  N   N39       1.0  0.39670  0.63630  0.39574  1.0000
  N   N40       1.0  0.37622  0.61583  0.39922  1.0000
  N   N41       1.0  0.37442  0.75238  0.39585  1.0000
  N   N42       1.0  0.39489  0.75237  0.39930  1.0000
  N   N43       1.0  0.76029  0.38741  0.39614  1.0000
  N   N44       1.0  0.76015  0.36686  0.39878  1.0000
  N   N45       1.0  0.62289  0.36528  0.39500  1.0000
  N   N46       1.0  0.64336  0.38577  0.39836  1.0000
  N   N47       1.0  0.64521  0.24945  0.39604  1.0000
  N   N48       1.0  0.62475  0.24950  0.39936  1.0000
