data_image0
_chemical_formula_structural       HNHNC7H4CHC7H4CHN2HN2HC7H4CHC7H4CHN2H3N2H3C6H5C6H5C6HOC6OH5N4C6HOC6OH5N4C6HOC6OH5N4C6HOC6OH4N3C6HOC6OH4N3CN2CHCN2CHC8H4CHC9H4CHC2N2CHCN2CHC8H2CHC9H2CHC3N2C2HC2N2C2H
_chemical_formula_sum              "H90 N40 C160 O10"
_cell_length_a       32.8719
_cell_length_b       41.1295
_cell_length_c       14.8517
_cell_angle_alpha    88.6196
_cell_angle_beta     91.0805
_cell_angle_gamma    89.7158

_space_group_name_H-M_alt    "P 1"
_space_group_IT_number       1

loop_
  _space_group_symop_operation_xyz
  'x, y, z'

loop_
  _atom_site_type_symbol
  _atom_site_label
  _atom_site_symmetry_multiplicity
  _atom_site_fract_x
  _atom_site_fract_y
  _atom_site_fract_z
  _atom_site_occupancy
  H   H1        1.0  0.77884  0.35773  0.39434  1.0000
  N   N1        1.0  0.84944  0.33153  0.38018  1.0000
  H   H2        1.0  0.16043  0.67053  0.39400  1.0000
  N   N2        1.0  0.08954  0.69692  0.38002  1.0000
  C   C1        1.0  0.12246  0.11740  0.31909  1.0000
  C   C2        1.0  0.15641  0.13398  0.28152  1.0000
  C   C3        1.0  0.16484  0.16673  0.30796  1.0000
  C   C4        1.0  0.19788  0.18326  0.26753  1.0000
  C   C5        1.0  0.22160  0.16855  0.20210  1.0000
  C   C6        1.0  0.21305  0.13682  0.17576  1.0000
  C   C7        1.0  0.18091  0.11969  0.21523  1.0000
  H   H3        1.0  0.20539  0.20634  0.28381  1.0000
  H   H4        1.0  0.24500  0.18103  0.17322  1.0000
  H   H5        1.0  0.23009  0.12625  0.12747  1.0000
  H   H6        1.0  0.17530  0.09694  0.19241  1.0000
  C   C8        1.0  0.11134  0.08475  0.30598  1.0000
  H   H7        1.0  0.13058  0.06936  0.27496  1.0000
  C   C9        1.0  0.81570  0.91226  0.31937  1.0000
  C   C10       1.0  0.78108  0.89638  0.28178  1.0000
  C   C11       1.0  0.77307  0.86316  0.30815  1.0000
  C   C12       1.0  0.73931  0.84737  0.26770  1.0000
  C   C13       1.0  0.71448  0.86326  0.20232  1.0000
  C   C14       1.0  0.72262  0.89545  0.17604  1.0000
  C   C15       1.0  0.75544  0.91187  0.21559  1.0000
  H   H8        1.0  0.73207  0.82401  0.28392  1.0000
  H   H9        1.0  0.69058  0.85130  0.17341  1.0000
  H   H10       1.0  0.70476  0.90688  0.12778  1.0000
  H   H11       1.0  0.76070  0.93500  0.19275  1.0000
  C   C16       1.0  0.82664  0.94513  0.30628  1.0000
  H   H12       1.0  0.80688  0.96108  0.27529  1.0000
  N   N3        1.0  0.78205  0.15040  0.34251  1.0000
  N   N4        1.0  0.80775  0.12632  0.35361  1.0000
  H   H13       1.0  0.73255  0.19869  0.32027  1.0000
  N   N5        1.0  0.15658  0.87873  0.34286  1.0000
  N   N6        1.0  0.13111  0.90266  0.35386  1.0000
  H   H14       1.0  0.20549  0.83064  0.32053  1.0000
  C   C17       1.0  0.25011  0.55065  0.32171  1.0000
  C   C18       1.0  0.25022  0.53183  0.24253  1.0000
  C   C19       1.0  0.24954  0.49709  0.25187  1.0000
  C   C20       1.0  0.24901  0.47839  0.17270  1.0000
  C   C21       1.0  0.25137  0.49322  0.08684  1.0000
  C   C22       1.0  0.25382  0.52713  0.07805  1.0000
  C   C23       1.0  0.25314  0.54624  0.15504  1.0000
  H   H15       1.0  0.24633  0.45372  0.17557  1.0000
  H   H16       1.0  0.25121  0.47933  0.03069  1.0000
  H   H17       1.0  0.25584  0.53792  0.01558  1.0000
  H   H18       1.0  0.25549  0.57080  0.14562  1.0000
  C   C24       1.0  0.24625  0.58461  0.32375  1.0000
  H   H19       1.0  0.23381  0.59678  0.26909  1.0000
  C   C25       1.0  0.68811  0.47899  0.32179  1.0000
  C   C26       1.0  0.68670  0.49920  0.24259  1.0000
  C   C27       1.0  0.68746  0.53378  0.25196  1.0000
  C   C28       1.0  0.68672  0.55386  0.17280  1.0000
  C   C29       1.0  0.68304  0.54054  0.08692  1.0000
  C   C30       1.0  0.68051  0.50678  0.07808  1.0000
  C   C31       1.0  0.68245  0.48632  0.15506  1.0000
  H   H20       1.0  0.68940  0.57849  0.17571  1.0000
  H   H21       1.0  0.68230  0.55542  0.03077  1.0000
  H   H22       1.0  0.67754  0.49709  0.01558  1.0000
  H   H23       1.0  0.67998  0.46192  0.14559  1.0000
  C   C32       1.0  0.69189  0.44499  0.32379  1.0000
  H   H24       1.0  0.70340  0.43374  0.26918  1.0000
  N   N7        1.0  0.95776  0.33130  0.32757  1.0000
  N   N8        1.0  0.99640  0.33325  0.34994  1.0000
  H   H25       1.0  0.89516  0.34359  0.02020  1.0000
  H   H26       1.0  0.96647  0.34686  0.06213  1.0000
  H   H27       1.0  0.88733  0.31449  0.28638  1.0000
  N   N9        1.0  0.98031  0.69805  0.32753  1.0000
  N   N10       1.0  0.94206  0.69574  0.34996  1.0000
  H   H28       1.0  0.04344  0.68549  0.02016  1.0000
  H   H29       1.0  0.97285  0.68158  0.06220  1.0000
  H   H30       1.0  0.05002  0.71559  0.28627  1.0000
  C   C33       1.0  0.45443  0.32699  0.25189  1.0000
  C   C34       1.0  0.49689  0.32728  0.27800  1.0000
  C   C35       1.0  0.52625  0.32382  0.20988  1.0000
  C   C36       1.0  0.51479  0.31913  0.11964  1.0000
  C   C37       1.0  0.47357  0.31782  0.09490  1.0000
  C   C38       1.0  0.44380  0.32163  0.16025  1.0000
  H   H31       1.0  0.55659  0.32447  0.22386  1.0000
  H   H32       1.0  0.53651  0.31644  0.07197  1.0000
  H   H33       1.0  0.46523  0.31398  0.02937  1.0000
  H   H34       1.0  0.41418  0.31967  0.13937  1.0000
  H   H35       1.0  0.37540  0.34716  0.23592  1.0000
  C   C39       1.0  0.48239  0.70384  0.25173  1.0000
  C   C40       1.0  0.44037  0.70312  0.27782  1.0000
  C   C41       1.0  0.40985  0.70772  0.20966  1.0000
  C   C42       1.0  0.41977  0.71393  0.11940  1.0000
  C   C43       1.0  0.46056  0.71566  0.09467  1.0000
  C   C44       1.0  0.49145  0.71074  0.16006  1.0000
  H   H36       1.0  0.37975  0.70683  0.22362  1.0000
  H   H37       1.0  0.39724  0.71741  0.07170  1.0000
  H   H38       1.0  0.46778  0.72060  0.02912  1.0000
  H   H39       1.0  0.52071  0.71308  0.13917  1.0000
  H   H40       1.0  0.56115  0.68401  0.23579  1.0000
  C   C45       1.0  0.99143  0.01457  0.36252  1.0000
  C   C46       1.0  0.01504  0.98558  0.37059  1.0000
  C   C47       1.0  0.05777  0.98454  0.36027  1.0000
  C   C48       1.0  0.07853  0.01379  0.34115  1.0000
  C   C49       1.0  0.05711  0.04374  0.33960  1.0000
  C   C50       1.0  0.01455  0.04357  0.35121  1.0000
  H   H41       1.0  0.00100  0.96426  0.38467  1.0000
  O   O1        1.0  0.11977  0.01291  0.33386  1.0000
  C   C51       1.0  0.94757  0.01429  0.36257  1.0000
  C   C52       1.0  0.92425  0.98549  0.35129  1.0000
  C   C53       1.0  0.88148  0.98553  0.33985  1.0000
  C   C54       1.0  0.86011  0.01546  0.34138  1.0000
  C   C55       1.0  0.88121  0.04437  0.36041  1.0000
  C   C56       1.0  0.92412  0.04315  0.37065  1.0000
  O   O2        1.0  0.81874  0.01648  0.33417  1.0000
  H   H42       1.0  0.93841  0.06422  0.38471  1.0000
  H   H43       1.0  0.13111  0.01574  0.39495  1.0000
  H   H44       1.0  0.80847  0.01258  0.39527  1.0000
  H   H45       1.0  0.00032  0.06555  0.34392  1.0000
  H   H46       1.0  0.93835  0.96363  0.34412  1.0000
  N   N11       1.0  0.85885  0.07197  0.36979  1.0000
  N   N12       1.0  0.86385  0.95595  0.33157  1.0000
  N   N13       1.0  0.07458  0.07346  0.33131  1.0000
  N   N14       1.0  0.08032  0.95680  0.36979  1.0000
  C   C57       1.0  0.19766  0.32399  0.38173  1.0000
  C   C58       1.0  0.19736  0.28930  0.38469  1.0000
  C   C59       1.0  0.16190  0.27048  0.39773  1.0000
  C   C60       1.0  0.12429  0.28671  0.41011  1.0000
  C   C61       1.0  0.12159  0.32099  0.40186  1.0000
  C   C62       1.0  0.15778  0.33848  0.38413  1.0000
  H   H47       1.0  0.22356  0.27667  0.37446  1.0000
  O   O3        1.0  0.08872  0.26979  0.40917  1.0000
  C   C63       1.0  0.23515  0.34215  0.37058  1.0000
  C   C64       1.0  0.27550  0.32836  0.37159  1.0000
  C   C65       1.0  0.31091  0.34569  0.34439  1.0000
  C   C66       1.0  0.30602  0.37891  0.31812  1.0000
  C   C67       1.0  0.26886  0.39492  0.33337  1.0000
  C   C68       1.0  0.23464  0.37661  0.35942  1.0000
  O   O4        1.0  0.33879  0.39769  0.29675  1.0000
  H   H48       1.0  0.20840  0.38938  0.36432  1.0000
  H   H49       1.0  0.08063  0.26732  0.34552  1.0000
  H   H50       1.0  0.35138  0.40440  0.35399  1.0000
  H   H51       1.0  0.15394  0.36290  0.37737  1.0000
  H   H52       1.0  0.27978  0.30447  0.38905  1.0000
  N   N15       1.0  0.26776  0.42782  0.32411  1.0000
  N   N16       1.0  0.34893  0.33159  0.35063  1.0000
  N   N17       1.0  0.08433  0.33631  0.40087  1.0000
  N   N18       1.0  0.16508  0.23771  0.38723  1.0000
  C   C69       1.0  0.74139  0.70459  0.38172  1.0000
  C   C70       1.0  0.74176  0.73923  0.38468  1.0000
  C   C71       1.0  0.77746  0.75781  0.39769  1.0000
  C   C72       1.0  0.81528  0.74134  0.41003  1.0000
  C   C73       1.0  0.81782  0.70720  0.40181  1.0000
  C   C74       1.0  0.78131  0.69004  0.38410  1.0000
  H   H53       1.0  0.71540  0.75205  0.37448  1.0000
  O   O5        1.0  0.85084  0.75826  0.40901  1.0000
  C   C75       1.0  0.70370  0.68664  0.37056  1.0000
  C   C76       1.0  0.66337  0.70043  0.37150  1.0000
  C   C77       1.0  0.62750  0.68358  0.34426  1.0000
  C   C78       1.0  0.63192  0.65082  0.31799  1.0000
  C   C79       1.0  0.66933  0.63453  0.33333  1.0000
  C   C80       1.0  0.70400  0.65237  0.35946  1.0000
  O   O6        1.0  0.59879  0.63242  0.29657  1.0000
  H   H54       1.0  0.73031  0.63950  0.36445  1.0000
  H   H55       1.0  0.85782  0.76184  0.34534  1.0000
  H   H56       1.0  0.58715  0.62472  0.35378  1.0000
  H   H57       1.0  0.78500  0.66573  0.37736  1.0000
  H   H58       1.0  0.65940  0.72401  0.38894  1.0000
  N   N19       1.0  0.67026  0.60179  0.32406  1.0000
  N   N20       1.0  0.58958  0.69758  0.35049  1.0000
  N   N21       1.0  0.85504  0.69188  0.40086  1.0000
  N   N22       1.0  0.77413  0.79077  0.38724  1.0000
  C   C81       1.0  0.73571  0.32100  0.35925  1.0000
  C   C82       1.0  0.73541  0.28698  0.34357  1.0000
  C   C83       1.0  0.77155  0.26846  0.34039  1.0000
  C   C84       1.0  0.80990  0.28371  0.34340  1.0000
  C   C85       1.0  0.81265  0.31712  0.36252  1.0000
  C   C86       1.0  0.77563  0.33441  0.37407  1.0000
  H   H59       1.0  0.70883  0.27445  0.33993  1.0000
  O   O7        1.0  0.84424  0.26488  0.34524  1.0000
  C   C87       1.0  0.69839  0.33966  0.36582  1.0000
  C   C88       1.0  0.65786  0.32676  0.36696  1.0000
  C   C89       1.0  0.62256  0.34553  0.38571  1.0000
  C   C90       1.0  0.62776  0.37915  0.40214  1.0000
  C   C91       1.0  0.66559  0.39393  0.38448  1.0000
  C   C92       1.0  0.69964  0.37414  0.36690  1.0000
  O   O8        1.0  0.59494  0.39897  0.41377  1.0000
  H   H60       1.0  0.72613  0.38594  0.35457  1.0000
  H   H61       1.0  0.84806  0.25762  0.28334  1.0000
  H   H62       1.0  0.58417  0.40500  0.35330  1.0000
  H   H63       1.0  0.65329  0.30258  0.35808  1.0000
  N   N23       1.0  0.66705  0.42692  0.37649  1.0000
  N   N24       1.0  0.58459  0.33218  0.37513  1.0000
  N   N25       1.0  0.77129  0.23576  0.34796  1.0000
  C   C93       1.0  0.20290  0.70795  0.35909  1.0000
  C   C94       1.0  0.20286  0.74226  0.34359  1.0000
  C   C95       1.0  0.16664  0.76078  0.34051  1.0000
  C   C96       1.0  0.12836  0.74543  0.34347  1.0000
  C   C97       1.0  0.12601  0.71167  0.36238  1.0000
  C   C98       1.0  0.16325  0.69423  0.37383  1.0000
  H   H64       1.0  0.22937  0.75488  0.34012  1.0000
  O   O9        1.0  0.09403  0.76419  0.34567  1.0000
  C   C99       1.0  0.24036  0.68921  0.36563  1.0000
  C   C100      1.0  0.28089  0.70212  0.36677  1.0000
  C   C101      1.0  0.31654  0.68305  0.38554  1.0000
  C   C102      1.0  0.31167  0.64914  0.40199  1.0000
  C   C103      1.0  0.27355  0.63464  0.38431  1.0000
  C   C104      1.0  0.23918  0.65470  0.36670  1.0000
  O   O10       1.0  0.34471  0.62914  0.41364  1.0000
  H   H65       1.0  0.21250  0.64309  0.35436  1.0000
  H   H66       1.0  0.08906  0.77259  0.28386  1.0000
  H   H67       1.0  0.35445  0.62417  0.35317  1.0000
  H   H68       1.0  0.28528  0.72646  0.35784  1.0000
  N   N26       1.0  0.27200  0.60179  0.37636  1.0000
  N   N27       1.0  0.35431  0.69661  0.37493  1.0000
  N   N28       1.0  0.16688  0.79333  0.34855  1.0000
  C   C105      1.0  0.13922  0.18137  0.37231  1.0000
  N   N29       1.0  0.10742  0.16337  0.40177  1.0000
  N   N30       1.0  0.09954  0.13392  0.37757  1.0000
  C   C106      1.0  0.13923  0.21308  0.40675  1.0000
  H   H69       1.0  0.11648  0.21825  0.45022  1.0000
  C   C107      1.0  0.79979  0.84736  0.37242  1.0000
  N   N31       1.0  0.83213  0.86481  0.40188  1.0000
  N   N32       1.0  0.83963  0.89468  0.37775  1.0000
  C   C108      1.0  0.80034  0.81503  0.40679  1.0000
  H   H70       1.0  0.82384  0.80907  0.45022  1.0000
  C   C109      1.0  0.84302  0.12828  0.40217  1.0000
  C   C110      1.0  0.85079  0.15767  0.44839  1.0000
  C   C111      1.0  0.82190  0.18377  0.43820  1.0000
  C   C112      1.0  0.78767  0.18003  0.37872  1.0000
  C   C113      1.0  0.82669  0.21121  0.49379  1.0000
  C   C114      1.0  0.86019  0.21425  0.55277  1.0000
  C   C115      1.0  0.88953  0.18954  0.55909  1.0000
  C   C116      1.0  0.88464  0.16146  0.50832  1.0000
  H   H71       1.0  0.80480  0.22873  0.49661  1.0000
  H   H72       1.0  0.86266  0.23405  0.59280  1.0000
  H   H73       1.0  0.91345  0.19132  0.60364  1.0000
  H   H74       1.0  0.90564  0.14349  0.51975  1.0000
  C   C117      1.0  0.86962  0.10135  0.40141  1.0000
  H   H75       1.0  0.89790  0.10348  0.42904  1.0000
  C   C118      1.0  0.75967  0.20448  0.35046  1.0000
  C   C119      1.0  0.09671  0.89994  0.40260  1.0000
  C   C120      1.0  0.08974  0.86981  0.44914  1.0000
  C   C121      1.0  0.11840  0.84385  0.43907  1.0000
  C   C122      1.0  0.15156  0.84852  0.37940  1.0000
  C   C123      1.0  0.11453  0.81548  0.49482  1.0000
  C   C124      1.0  0.08205  0.81149  0.55389  1.0000
  C   C125      1.0  0.05292  0.83616  0.56022  1.0000
  C   C126      1.0  0.05694  0.86507  0.50922  1.0000
  H   H76       1.0  0.13638  0.79785  0.49757  1.0000
  H   H77       1.0  0.08023  0.79101  0.59398  1.0000
  H   H78       1.0  0.02975  0.83364  0.60477  1.0000
  H   H79       1.0  0.03618  0.88287  0.52060  1.0000
  C   C127      1.0  0.07011  0.92690  0.40167  1.0000
  H   H80       1.0  0.04232  0.92432  0.42935  1.0000
  C   C128      1.0  0.17896  0.82446  0.35123  1.0000
  C   C129      1.0  0.24632  0.48296  0.33994  1.0000
  N   N33       1.0  0.24548  0.50324  0.41061  1.0000
  N   N34       1.0  0.24782  0.53478  0.40243  1.0000
  C   C130      1.0  0.24280  0.44967  0.36170  1.0000
  H   H81       1.0  0.23093  0.44295  0.42259  1.0000
  C   C131      1.0  0.69203  0.54637  0.34007  1.0000
  N   N35       1.0  0.69397  0.52485  0.41074  1.0000
  N   N36       1.0  0.69156  0.49346  0.40254  1.0000
  C   C132      1.0  0.69579  0.57929  0.36186  1.0000
  H   H82       1.0  0.70875  0.58484  0.42279  1.0000
  C   C133      1.0  0.01003  0.33550  0.43631  1.0000
  C   C134      1.0  0.97968  0.33690  0.50381  1.0000
  C   C135      1.0  0.93720  0.33616  0.47835  1.0000
  C   C136      1.0  0.92624  0.33211  0.38588  1.0000
  C   C137      1.0  0.90798  0.33706  0.54746  1.0000
  C   C138      1.0  0.91963  0.33980  0.63836  1.0000
  C   C139      1.0  0.96088  0.34157  0.66270  1.0000
  C   C140      1.0  0.99053  0.34015  0.59621  1.0000
  H   H83       1.0  0.87764  0.33589  0.53365  1.0000
  H   H84       1.0  0.02017  0.34228  0.61682  1.0000
  C   C141      1.0  0.05194  0.32917  0.45401  1.0000
  H   H85       1.0  0.05900  0.31702  0.51317  1.0000
  C   C142      1.0  0.88725  0.32520  0.34794  1.0000
  C   C143      1.0  0.92995  0.69199  0.43637  1.0000
  C   C144      1.0  0.96146  0.68945  0.50384  1.0000
  C   C145      1.0  0.00350  0.69062  0.47831  1.0000
  C   C146      1.0  0.01286  0.69619  0.38580  1.0000
  C   C147      1.0  0.03392  0.68852  0.54739  1.0000
  C   C148      1.0  0.02385  0.68429  0.63834  1.0000
  C   C149      1.0  0.98301  0.68214  0.66274  1.0000
  C   C150      1.0  0.95221  0.68467  0.59626  1.0000
  H   H86       1.0  0.06402  0.68990  0.53354  1.0000
  H   H87       1.0  0.92292  0.68223  0.61691  1.0000
  C   C151      1.0  0.88835  0.69810  0.45395  1.0000
  H   H88       1.0  0.88232  0.70925  0.51307  1.0000
  C   C152      1.0  0.05117  0.70379  0.34781  1.0000
  C   C153      1.0  0.42385  0.33089  0.31811  1.0000
  C   C154      1.0  0.50786  0.33327  0.36960  1.0000
  N   N37       1.0  0.47611  0.33650  0.42666  1.0000
  N   N38       1.0  0.43742  0.33501  0.40392  1.0000
  C   C155      1.0  0.38203  0.33733  0.29830  1.0000
  C   C156      1.0  0.54712  0.34005  0.40677  1.0000
  H   H89       1.0  0.54750  0.35245  0.46572  1.0000
  C   C157      1.0  0.51410  0.69882  0.31800  1.0000
  C   C158      1.0  0.43096  0.69561  0.36945  1.0000
  N   N39       1.0  0.46367  0.69144  0.42655  1.0000
  N   N40       1.0  0.50198  0.69330  0.40383  1.0000
  C   C159      1.0  0.55559  0.69276  0.29816  1.0000
  C   C160      1.0  0.39232  0.68821  0.40664  1.0000
  H   H90       1.0  0.39295  0.67482  0.46565  1.0000
