data_image0
_chemical_formula_structural       COHCOH3C6HC2HC3OH4C6O2H4C6O2H4CNCHCNCHCNCHCNCHCNCHCNCHC3HOCOC3HOC3OHC3HOC3OHNC3H2NC3H3NC3H3NC3H3NC3H3NC3H3C3OH4C6O2H4C6O2H4CNCHCNCHCNCHCNCHCNCHCNCHC3HOCOC3HOC3OHC3HOC3OHNC3H2NC3H3NC3H3NC3H3NC3H3NC3H3C6O2H3C6O2H4C6O2H4CNCHCNCHCNCHCNCHCNCHCNCHC3HOC3OHC3HOC3OHC3HOC3OHNC3H3NC3H3NC3H3NC3H3NC3H3NC3H3C6O2H3C6O2H4C6O2H4CNCHCNCHCNCHCNCHCNCHCNCHC3HOC3OHC3HOC3OHC3HOC3OHNC3H3NC3H3NC3H3NC3H3NC3H3NC3H3
_chemical_formula_sum              "C264 O48 H168 N48"
_cell_length_a       46.1381
_cell_length_b       46.1381
_cell_length_c       14.9477
_cell_angle_alpha    90
_cell_angle_beta     90
_cell_angle_gamma    120

_space_group_name_H-M_alt    "P 1"
_space_group_IT_number       1

loop_
  _space_group_symop_operation_xyz
  'x, y, z'

loop_
  _atom_site_type_symbol
  _atom_site_label
  _atom_site_symmetry_multiplicity
  _atom_site_fract_x
  _atom_site_fract_y
  _atom_site_fract_z
  _atom_site_occupancy
  C   C1        1.0  0.02070  0.26097  0.32028  1.0000
  O   O1        1.0  0.02781  0.31593  0.27904  1.0000
  H   H1        1.0  0.02789  0.21960  0.35026  1.0000
  C   C2        1.0  0.02069  0.76096  0.32028  1.0000
  O   O2        1.0  0.02781  0.81593  0.27904  1.0000
  H   H2        1.0  0.02789  0.71960  0.35026  1.0000
  H   H3        1.0  0.02347  0.31075  0.21496  1.0000
  H   H4        1.0  0.02347  0.81075  0.21496  1.0000
  C   C3        1.0  0.04042  0.29679  0.31076  1.0000
  C   C4        1.0  0.03948  0.24449  0.33675  1.0000
  C   C5        1.0  0.04042  0.79679  0.31076  1.0000
  C   C6        1.0  0.03948  0.74449  0.33675  1.0000
  C   C7        1.0  0.07511  0.31478  0.33083  1.0000
  C   C8        1.0  0.07460  0.26143  0.34473  1.0000
  H   H5        1.0  0.07880  0.23426  0.53738  1.0000
  C   C9        1.0  0.07511  0.81478  0.33083  1.0000
  C   C10       1.0  0.07460  0.76143  0.34473  1.0000
  H   H6        1.0  0.07880  0.73426  0.53738  1.0000
  C   C11       1.0  0.48447  0.24241  0.32047  1.0000
  C   C12       1.0  0.43007  0.18860  0.33180  1.0000
  C   C13       1.0  0.46473  0.20657  0.31126  1.0000
  O   O3        1.0  0.47732  0.18741  0.27956  1.0000
  H   H7        1.0  0.98158  0.19252  0.21544  1.0000
  H   H8        1.0  0.52347  0.31075  0.21496  1.0000
  H   H9        1.0  0.37126  0.18667  0.28829  1.0000
  H   H10       1.0  0.13392  0.31666  0.28710  1.0000
  C   C14       1.0  0.26193  0.24299  0.32042  1.0000
  C   C15       1.0  0.31575  0.24237  0.33020  1.0000
  C   C16       1.0  0.29775  0.25911  0.31063  1.0000
  C   C17       1.0  0.24336  0.26065  0.32071  1.0000
  C   C18       1.0  0.20754  0.24454  0.31116  1.0000
  C   C19       1.0  0.18953  0.26119  0.33175  1.0000
  O   O4        1.0  0.31687  0.29091  0.27925  1.0000
  O   O5        1.0  0.18843  0.21280  0.27935  1.0000
  H   H11       1.0  0.31171  0.29015  0.21518  1.0000
  H   H12       1.0  0.19359  0.21368  0.21525  1.0000
  H   H13       1.0  0.31765  0.18551  0.28526  1.0000
  H   H14       1.0  0.18753  0.31799  0.28784  1.0000
  C   C20       1.0  0.26157  0.01986  0.32043  1.0000
  C   C21       1.0  0.26223  0.07429  0.33128  1.0000
  C   C22       1.0  0.24551  0.03963  0.31086  1.0000
  C   C23       1.0  0.24386  0.48363  0.32029  1.0000
  C   C24       1.0  0.25993  0.46388  0.31064  1.0000
  C   C25       1.0  0.24314  0.42915  0.33028  1.0000
  O   O6        1.0  0.21376  0.02704  0.27917  1.0000
  O   O7        1.0  0.29172  0.47651  0.27920  1.0000
  H   H15       1.0  0.21460  0.52271  0.21509  1.0000
  H   H16       1.0  0.29095  0.98087  0.21511  1.0000
  H   H17       1.0  0.31907  0.13312  0.28805  1.0000
  H   H18       1.0  0.18628  0.37039  0.28588  1.0000
  C   C26       1.0  0.15425  0.24486  0.33890  1.0000
  N   N1        1.0  0.10577  0.24126  0.27183  1.0000
  C   C27       1.0  0.13401  0.23914  0.26278  1.0000
  H   H19       1.0  0.14313  0.24010  0.19989  1.0000
  C   C28       1.0  0.25945  0.41018  0.33793  1.0000
  N   N2        1.0  0.26275  0.36499  0.27173  1.0000
  C   C29       1.0  0.26469  0.39523  0.26197  1.0000
  H   H20       1.0  0.26374  0.40336  0.19900  1.0000
  C   C30       1.0  0.09406  0.35005  0.33845  1.0000
  N   N3        1.0  0.13918  0.39835  0.27119  1.0000
  C   C31       1.0  0.10894  0.37001  0.26207  1.0000
  H   H21       1.0  0.10072  0.36089  0.19917  1.0000
  C   C32       1.0  0.35102  0.25872  0.33765  1.0000
  N   N4        1.0  0.39955  0.26204  0.27142  1.0000
  C   C33       1.0  0.37129  0.26408  0.26180  1.0000
  H   H22       1.0  0.36227  0.26326  0.19885  1.0000
  C   C34       1.0  0.24596  0.09329  0.33886  1.0000
  N   N5        1.0  0.24250  0.13817  0.27119  1.0000
  C   C35       1.0  0.24053  0.10789  0.26238  1.0000
  H   H23       1.0  0.24142  0.09954  0.19966  1.0000
  C   C36       1.0  0.41111  0.15334  0.33962  1.0000
  N   N6        1.0  0.36615  0.10492  0.27240  1.0000
  C   C37       1.0  0.39646  0.13322  0.26329  1.0000
  H   H24       1.0  0.40451  0.14242  0.20040  1.0000
  C   C38       1.0  0.46569  0.25889  0.33692  1.0000
  C   C39       1.0  0.43058  0.24196  0.34533  1.0000
  C   C40       1.0  0.41316  0.20668  0.34519  1.0000
  H   H25       1.0  0.47728  0.28383  0.34985  1.0000
  O   O8        1.0  0.37907  0.18987  0.35061  1.0000
  C   C41       1.0  0.09204  0.29671  0.34415  1.0000
  O   O9        1.0  0.12613  0.31353  0.34944  1.0000
  C   C42       1.0  0.24547  0.20773  0.33682  1.0000
  C   C43       1.0  0.26240  0.18951  0.34371  1.0000
  C   C44       1.0  0.29768  0.20734  0.34282  1.0000
  H   H26       1.0  0.22059  0.19443  0.35048  1.0000
  O   O10       1.0  0.31449  0.19004  0.34769  1.0000
  C   C45       1.0  0.20760  0.29620  0.34500  1.0000
  C   C46       1.0  0.24288  0.31407  0.34522  1.0000
  C   C47       1.0  0.25982  0.29590  0.33733  1.0000
  O   O11       1.0  0.19080  0.31349  0.35020  1.0000
  H   H27       1.0  0.28474  0.30921  0.35057  1.0000
  C   C48       1.0  0.29682  0.03859  0.33703  1.0000
  C   C49       1.0  0.31504  0.07372  0.34498  1.0000
  C   C50       1.0  0.29722  0.09117  0.34474  1.0000
  H   H28       1.0  0.31008  0.02696  0.35061  1.0000
  O   O12       1.0  0.31455  0.12526  0.35033  1.0000
  C   C51       1.0  0.20812  0.41224  0.34308  1.0000
  C   C52       1.0  0.19033  0.42973  0.34372  1.0000
  C   C53       1.0  0.20860  0.46488  0.33671  1.0000
  O   O13       1.0  0.19079  0.37815  0.34826  1.0000
  H   H29       1.0  0.19533  0.47651  0.35030  1.0000
  N   N7        1.0  0.14220  0.24958  0.41738  1.0000
  C   C54       1.0  0.11231  0.24821  0.42852  1.0000
  C   C55       1.0  0.09292  0.24444  0.35100  1.0000
  C   C56       1.0  0.10359  0.25455  0.51893  1.0000
  H   H30       1.0  0.12149  0.25583  0.56882  1.0000
  H   H31       1.0  0.10353  0.27815  0.52047  1.0000
  N   N8        1.0  0.25489  0.39373  0.41687  1.0000
  C   C57       1.0  0.25625  0.36523  0.42861  1.0000
  C   C58       1.0  0.25990  0.34939  0.35149  1.0000
  C   C59       1.0  0.24999  0.35039  0.51925  1.0000
  H   H32       1.0  0.24873  0.36711  0.56882  1.0000
  H   H33       1.0  0.27031  0.34595  0.53787  1.0000
  H   H34       1.0  0.22640  0.32672  0.52110  1.0000
  N   N9        1.0  0.11071  0.36228  0.41695  1.0000
  C   C60       1.0  0.13924  0.39218  0.42791  1.0000
  C   C61       1.0  0.15506  0.41150  0.35046  1.0000
  C   C62       1.0  0.15425  0.40103  0.51833  1.0000
  H   H35       1.0  0.13762  0.38321  0.56833  1.0000
  H   H36       1.0  0.15874  0.42585  0.53644  1.0000
  H   H37       1.0  0.17791  0.40110  0.52007  1.0000
  N   N10       1.0  0.36293  0.25404  0.41645  1.0000
  C   C63       1.0  0.39275  0.25530  0.42813  1.0000
  C   C64       1.0  0.41226  0.25895  0.35094  1.0000
  C   C65       1.0  0.40132  0.24906  0.51883  1.0000
  H   H38       1.0  0.38337  0.24788  0.56840  1.0000
  H   H39       1.0  0.42610  0.26936  0.53738  1.0000
  H   H40       1.0  0.40134  0.22545  0.52083  1.0000
  N   N11       1.0  0.25047  0.11006  0.41718  1.0000
  C   C66       1.0  0.24905  0.13856  0.42789  1.0000
  C   C67       1.0  0.24542  0.15423  0.35024  1.0000
  C   C68       1.0  0.25526  0.15367  0.51821  1.0000
  H   H41       1.0  0.25649  0.13709  0.56832  1.0000
  H   H42       1.0  0.23494  0.15817  0.53630  1.0000
  H   H43       1.0  0.27885  0.17734  0.51979  1.0000
  N   N12       1.0  0.39447  0.14117  0.41818  1.0000
  C   C69       1.0  0.36601  0.11124  0.42933  1.0000
  C   C70       1.0  0.35035  0.09194  0.35180  1.0000
  C   C71       1.0  0.35098  0.10239  0.51973  1.0000
  H   H44       1.0  0.36758  0.12026  0.56969  1.0000
  H   H45       1.0  0.34655  0.07760  0.53792  1.0000
  H   H46       1.0  0.32728  0.10225  0.52141  1.0000
  C   C72       1.0  0.48447  0.74241  0.32047  1.0000
  C   C73       1.0  0.43007  0.68860  0.33180  1.0000
  C   C74       1.0  0.46473  0.70657  0.31126  1.0000
  O   O14       1.0  0.47731  0.68741  0.27956  1.0000
  H   H47       1.0  0.98158  0.69252  0.21544  1.0000
  H   H48       1.0  0.52347  0.81075  0.21496  1.0000
  H   H49       1.0  0.37126  0.68668  0.28829  1.0000
  H   H50       1.0  0.13392  0.81666  0.28710  1.0000
  C   C75       1.0  0.26193  0.74299  0.32042  1.0000
  C   C76       1.0  0.31575  0.74237  0.33020  1.0000
  C   C77       1.0  0.29775  0.75911  0.31063  1.0000
  C   C78       1.0  0.24336  0.76065  0.32071  1.0000
  C   C79       1.0  0.20754  0.74454  0.31116  1.0000
  C   C80       1.0  0.18953  0.76119  0.33175  1.0000
  O   O15       1.0  0.31687  0.79091  0.27925  1.0000
  O   O16       1.0  0.18843  0.71280  0.27935  1.0000
  H   H51       1.0  0.31171  0.79015  0.21518  1.0000
  H   H52       1.0  0.19359  0.71368  0.21525  1.0000
  H   H53       1.0  0.31765  0.68551  0.28526  1.0000
  H   H54       1.0  0.18753  0.81799  0.28784  1.0000
  C   C81       1.0  0.26157  0.51986  0.32043  1.0000
  C   C82       1.0  0.26223  0.57429  0.33128  1.0000
  C   C83       1.0  0.24552  0.53963  0.31086  1.0000
  C   C84       1.0  0.24386  0.98364  0.32029  1.0000
  C   C85       1.0  0.25993  0.96388  0.31064  1.0000
  C   C86       1.0  0.24314  0.92915  0.33028  1.0000
  O   O17       1.0  0.21376  0.52704  0.27917  1.0000
  O   O18       1.0  0.29172  0.97651  0.27920  1.0000
  H   H55       1.0  0.21460  0.02271  0.21509  1.0000
  H   H56       1.0  0.29095  0.48087  0.21511  1.0000
  H   H57       1.0  0.31907  0.63312  0.28805  1.0000
  H   H58       1.0  0.18628  0.87039  0.28588  1.0000
  C   C87       1.0  0.15425  0.74486  0.33890  1.0000
  N   N13       1.0  0.10577  0.74126  0.27183  1.0000
  C   C88       1.0  0.13400  0.73914  0.26278  1.0000
  H   H59       1.0  0.14313  0.74010  0.19989  1.0000
  C   C89       1.0  0.25945  0.91018  0.33793  1.0000
  N   N14       1.0  0.26275  0.86499  0.27173  1.0000
  C   C90       1.0  0.26469  0.89523  0.26197  1.0000
  H   H60       1.0  0.26374  0.90336  0.19900  1.0000
  C   C91       1.0  0.09406  0.85005  0.33845  1.0000
  N   N15       1.0  0.13918  0.89835  0.27119  1.0000
  C   C92       1.0  0.10894  0.87001  0.26207  1.0000
  H   H61       1.0  0.10072  0.86089  0.19917  1.0000
  C   C93       1.0  0.35102  0.75872  0.33765  1.0000
  N   N16       1.0  0.39955  0.76204  0.27141  1.0000
  C   C94       1.0  0.37130  0.76408  0.26180  1.0000
  H   H62       1.0  0.36227  0.76326  0.19885  1.0000
  C   C95       1.0  0.24596  0.59329  0.33886  1.0000
  N   N17       1.0  0.24250  0.63817  0.27119  1.0000
  C   C96       1.0  0.24053  0.60789  0.26238  1.0000
  H   H63       1.0  0.24142  0.59954  0.19966  1.0000
  C   C97       1.0  0.41111  0.65334  0.33962  1.0000
  N   N18       1.0  0.36615  0.60492  0.27240  1.0000
  C   C98       1.0  0.39646  0.63321  0.26329  1.0000
  H   H64       1.0  0.40451  0.64242  0.20040  1.0000
  C   C99       1.0  0.46569  0.75889  0.33692  1.0000
  C   C100      1.0  0.43059  0.74196  0.34533  1.0000
  C   C101      1.0  0.41316  0.70668  0.34519  1.0000
  H   H65       1.0  0.47728  0.78383  0.34985  1.0000
  O   O19       1.0  0.37907  0.68987  0.35061  1.0000
  C   C102      1.0  0.09204  0.79671  0.34415  1.0000
  O   O20       1.0  0.12613  0.81353  0.34944  1.0000
  C   C103      1.0  0.24547  0.70773  0.33682  1.0000
  C   C104      1.0  0.26240  0.68951  0.34371  1.0000
  C   C105      1.0  0.29768  0.70734  0.34282  1.0000
  H   H66       1.0  0.22059  0.69443  0.35048  1.0000
  O   O21       1.0  0.31449  0.69004  0.34769  1.0000
  C   C106      1.0  0.20760  0.79620  0.34500  1.0000
  C   C107      1.0  0.24288  0.81407  0.34522  1.0000
  C   C108      1.0  0.25983  0.79590  0.33733  1.0000
  O   O22       1.0  0.19080  0.81349  0.35020  1.0000
  H   H67       1.0  0.28474  0.80921  0.35057  1.0000
  C   C109      1.0  0.29682  0.53860  0.33703  1.0000
  C   C110      1.0  0.31504  0.57371  0.34498  1.0000
  C   C111      1.0  0.29722  0.59117  0.34474  1.0000
  H   H68       1.0  0.31008  0.52696  0.35061  1.0000
  O   O23       1.0  0.31455  0.62526  0.35033  1.0000
  C   C112      1.0  0.20812  0.91224  0.34308  1.0000
  C   C113      1.0  0.19034  0.92974  0.34372  1.0000
  C   C114      1.0  0.20860  0.96488  0.33671  1.0000
  O   O24       1.0  0.19079  0.87815  0.34826  1.0000
  H   H69       1.0  0.19534  0.97651  0.35030  1.0000
  N   N19       1.0  0.14220  0.74958  0.41738  1.0000
  C   C115      1.0  0.11231  0.74821  0.42852  1.0000
  C   C116      1.0  0.09292  0.74444  0.35100  1.0000
  C   C117      1.0  0.10359  0.75455  0.51893  1.0000
  H   H70       1.0  0.12148  0.75582  0.56882  1.0000
  H   H71       1.0  0.10353  0.77815  0.52047  1.0000
  N   N20       1.0  0.25489  0.89373  0.41687  1.0000
  C   C118      1.0  0.25625  0.86523  0.42861  1.0000
  C   C119      1.0  0.25991  0.84939  0.35149  1.0000
  C   C120      1.0  0.24999  0.85039  0.51925  1.0000
  H   H72       1.0  0.24873  0.86711  0.56882  1.0000
  H   H73       1.0  0.27031  0.84595  0.53787  1.0000
  H   H74       1.0  0.22641  0.82672  0.52110  1.0000
  N   N21       1.0  0.11071  0.86228  0.41695  1.0000
  C   C121      1.0  0.13924  0.89218  0.42791  1.0000
  C   C122      1.0  0.15506  0.91150  0.35046  1.0000
  C   C123      1.0  0.15425  0.90103  0.51833  1.0000
  H   H75       1.0  0.13762  0.88321  0.56833  1.0000
  H   H76       1.0  0.15874  0.92585  0.53644  1.0000
  H   H77       1.0  0.17791  0.90110  0.52007  1.0000
  N   N22       1.0  0.36293  0.75404  0.41645  1.0000
  C   C124      1.0  0.39275  0.75530  0.42813  1.0000
  C   C125      1.0  0.41226  0.75895  0.35094  1.0000
  C   C126      1.0  0.40132  0.74906  0.51883  1.0000
  H   H78       1.0  0.38337  0.74789  0.56840  1.0000
  H   H79       1.0  0.42610  0.76936  0.53738  1.0000
  H   H80       1.0  0.40134  0.72545  0.52083  1.0000
  N   N23       1.0  0.25047  0.61006  0.41718  1.0000
  C   C127      1.0  0.24905  0.63856  0.42789  1.0000
  C   C128      1.0  0.24542  0.65423  0.35024  1.0000
  C   C129      1.0  0.25526  0.65367  0.51821  1.0000
  H   H81       1.0  0.25649  0.63709  0.56832  1.0000
  H   H82       1.0  0.23494  0.65817  0.53630  1.0000
  H   H83       1.0  0.27885  0.67734  0.51979  1.0000
  N   N24       1.0  0.39447  0.64117  0.41818  1.0000
  C   C130      1.0  0.36601  0.61124  0.42933  1.0000
  C   C131      1.0  0.35035  0.59195  0.35180  1.0000
  C   C132      1.0  0.35098  0.60239  0.51973  1.0000
  H   H84       1.0  0.36758  0.62026  0.56969  1.0000
  H   H85       1.0  0.34655  0.57760  0.53792  1.0000
  H   H86       1.0  0.32728  0.60225  0.52141  1.0000
  C   C133      1.0  0.98446  0.24241  0.32047  1.0000
  C   C134      1.0  0.93007  0.18860  0.33180  1.0000
  C   C135      1.0  0.96473  0.20657  0.31126  1.0000
  C   C136      1.0  0.52070  0.26097  0.32028  1.0000
  C   C137      1.0  0.54042  0.29679  0.31076  1.0000
  C   C138      1.0  0.57511  0.31478  0.33083  1.0000
  O   O25       1.0  0.97731  0.18741  0.27956  1.0000
  O   O26       1.0  0.52781  0.31593  0.27904  1.0000
  H   H87       1.0  0.48158  0.19252  0.21544  1.0000
  H   H88       1.0  0.87126  0.18667  0.28829  1.0000
  H   H89       1.0  0.63392  0.31666  0.28710  1.0000
  C   C139      1.0  0.76193  0.24299  0.32042  1.0000
  C   C140      1.0  0.81575  0.24237  0.33020  1.0000
  C   C141      1.0  0.79775  0.25911  0.31063  1.0000
  C   C142      1.0  0.74336  0.26065  0.32071  1.0000
  C   C143      1.0  0.70754  0.24454  0.31116  1.0000
  C   C144      1.0  0.68953  0.26119  0.33175  1.0000
  O   O27       1.0  0.81687  0.29091  0.27925  1.0000
  O   O28       1.0  0.68843  0.21280  0.27935  1.0000
  H   H90       1.0  0.81171  0.29015  0.21518  1.0000
  H   H91       1.0  0.69359  0.21368  0.21525  1.0000
  H   H92       1.0  0.81765  0.18551  0.28526  1.0000
  H   H93       1.0  0.68753  0.31799  0.28784  1.0000
  C   C145      1.0  0.76157  0.01986  0.32043  1.0000
  C   C146      1.0  0.76223  0.07429  0.33128  1.0000
  C   C147      1.0  0.74551  0.03963  0.31086  1.0000
  C   C148      1.0  0.74386  0.48363  0.32029  1.0000
  C   C149      1.0  0.75993  0.46388  0.31064  1.0000
  C   C150      1.0  0.74314  0.42915  0.33028  1.0000
  O   O29       1.0  0.71376  0.02704  0.27917  1.0000
  O   O30       1.0  0.79171  0.47651  0.27920  1.0000
  H   H94       1.0  0.71460  0.52271  0.21509  1.0000
  H   H95       1.0  0.79095  0.98087  0.21511  1.0000
  H   H96       1.0  0.81907  0.13312  0.28805  1.0000
  H   H97       1.0  0.68628  0.37039  0.28588  1.0000
  C   C151      1.0  0.65425  0.24486  0.33890  1.0000
  N   N25       1.0  0.60577  0.24126  0.27183  1.0000
  C   C152      1.0  0.63401  0.23914  0.26278  1.0000
  H   H98       1.0  0.64313  0.24010  0.19989  1.0000
  C   C153      1.0  0.75945  0.41018  0.33793  1.0000
  N   N26       1.0  0.76275  0.36499  0.27173  1.0000
  C   C154      1.0  0.76469  0.39523  0.26197  1.0000
  H   H99       1.0  0.76374  0.40336  0.19900  1.0000
  C   C155      1.0  0.59406  0.35005  0.33845  1.0000
  N   N27       1.0  0.63918  0.39835  0.27119  1.0000
  C   C156      1.0  0.60894  0.37001  0.26207  1.0000
  H   H100      1.0  0.60072  0.36089  0.19917  1.0000
  C   C157      1.0  0.85102  0.25872  0.33765  1.0000
  N   N28       1.0  0.89955  0.26204  0.27142  1.0000
  C   C158      1.0  0.87130  0.26408  0.26180  1.0000
  H   H101      1.0  0.86227  0.26326  0.19885  1.0000
  C   C159      1.0  0.74596  0.09329  0.33886  1.0000
  N   N29       1.0  0.74250  0.13817  0.27119  1.0000
  C   C160      1.0  0.74053  0.10789  0.26238  1.0000
  H   H102      1.0  0.74142  0.09954  0.19966  1.0000
  C   C161      1.0  0.91111  0.15334  0.33962  1.0000
  N   N30       1.0  0.86615  0.10492  0.27240  1.0000
  C   C162      1.0  0.89646  0.13322  0.26329  1.0000
  H   H103      1.0  0.90451  0.14242  0.20040  1.0000
  C   C163      1.0  0.96569  0.25889  0.33692  1.0000
  C   C164      1.0  0.93059  0.24196  0.34533  1.0000
  C   C165      1.0  0.91316  0.20668  0.34519  1.0000
  H   H104      1.0  0.97728  0.28383  0.34985  1.0000
  O   O31       1.0  0.87907  0.18987  0.35061  1.0000
  C   C166      1.0  0.59204  0.29671  0.34415  1.0000
  C   C167      1.0  0.57460  0.26143  0.34473  1.0000
  C   C168      1.0  0.53948  0.24449  0.33675  1.0000
  O   O32       1.0  0.62613  0.31353  0.34944  1.0000
  H   H105      1.0  0.52789  0.21960  0.35026  1.0000
  C   C169      1.0  0.74547  0.20773  0.33682  1.0000
  C   C170      1.0  0.76240  0.18951  0.34371  1.0000
  C   C171      1.0  0.79768  0.20734  0.34282  1.0000
  H   H106      1.0  0.72059  0.19443  0.35048  1.0000
  O   O33       1.0  0.81449  0.19004  0.34769  1.0000
  C   C172      1.0  0.70760  0.29620  0.34500  1.0000
  C   C173      1.0  0.74288  0.31407  0.34522  1.0000
  C   C174      1.0  0.75982  0.29590  0.33733  1.0000
  O   O34       1.0  0.69080  0.31349  0.35020  1.0000
  H   H107      1.0  0.78474  0.30921  0.35057  1.0000
  C   C175      1.0  0.79682  0.03859  0.33703  1.0000
  C   C176      1.0  0.81504  0.07372  0.34498  1.0000
  C   C177      1.0  0.79722  0.09117  0.34474  1.0000
  H   H108      1.0  0.81008  0.02696  0.35061  1.0000
  O   O35       1.0  0.81455  0.12526  0.35033  1.0000
  C   C178      1.0  0.70812  0.41224  0.34308  1.0000
  C   C179      1.0  0.69033  0.42973  0.34372  1.0000
  C   C180      1.0  0.70860  0.46488  0.33671  1.0000
  O   O36       1.0  0.69079  0.37815  0.34826  1.0000
  H   H109      1.0  0.69534  0.47651  0.35030  1.0000
  N   N31       1.0  0.64220  0.24958  0.41738  1.0000
  C   C181      1.0  0.61231  0.24821  0.42852  1.0000
  C   C182      1.0  0.59292  0.24444  0.35100  1.0000
  C   C183      1.0  0.60359  0.25455  0.51893  1.0000
  H   H110      1.0  0.62149  0.25583  0.56882  1.0000
  H   H111      1.0  0.57880  0.23426  0.53738  1.0000
  H   H112      1.0  0.60353  0.27815  0.52047  1.0000
  N   N32       1.0  0.75489  0.39373  0.41687  1.0000
  C   C184      1.0  0.75625  0.36523  0.42861  1.0000
  C   C185      1.0  0.75991  0.34939  0.35149  1.0000
  C   C186      1.0  0.74999  0.35039  0.51925  1.0000
  H   H113      1.0  0.74873  0.36711  0.56882  1.0000
  H   H114      1.0  0.77031  0.34595  0.53787  1.0000
  H   H115      1.0  0.72640  0.32672  0.52110  1.0000
  N   N33       1.0  0.61071  0.36228  0.41695  1.0000
  C   C187      1.0  0.63924  0.39218  0.42791  1.0000
  C   C188      1.0  0.65506  0.41150  0.35046  1.0000
  C   C189      1.0  0.65425  0.40103  0.51833  1.0000
  H   H116      1.0  0.63762  0.38321  0.56833  1.0000
  H   H117      1.0  0.65874  0.42585  0.53644  1.0000
  H   H118      1.0  0.67791  0.40110  0.52007  1.0000
  N   N34       1.0  0.86293  0.25404  0.41645  1.0000
  C   C190      1.0  0.89275  0.25530  0.42813  1.0000
  C   C191      1.0  0.91226  0.25895  0.35094  1.0000
  C   C192      1.0  0.90132  0.24906  0.51883  1.0000
  H   H119      1.0  0.88337  0.24788  0.56840  1.0000
  H   H120      1.0  0.92610  0.26936  0.53738  1.0000
  H   H121      1.0  0.90134  0.22545  0.52083  1.0000
  N   N35       1.0  0.75047  0.11006  0.41718  1.0000
  C   C193      1.0  0.74905  0.13856  0.42789  1.0000
  C   C194      1.0  0.74542  0.15423  0.35024  1.0000
  C   C195      1.0  0.75526  0.15367  0.51821  1.0000
  H   H122      1.0  0.75649  0.13709  0.56832  1.0000
  H   H123      1.0  0.73494  0.15817  0.53630  1.0000
  H   H124      1.0  0.77885  0.17734  0.51979  1.0000
  N   N36       1.0  0.89447  0.14117  0.41818  1.0000
  C   C196      1.0  0.86601  0.11124  0.42933  1.0000
  C   C197      1.0  0.85035  0.09194  0.35180  1.0000
  C   C198      1.0  0.85098  0.10239  0.51973  1.0000
  H   H125      1.0  0.86758  0.12026  0.56969  1.0000
  H   H126      1.0  0.84655  0.07760  0.53792  1.0000
  H   H127      1.0  0.82728  0.10225  0.52141  1.0000
  C   C199      1.0  0.98447  0.74241  0.32047  1.0000
  C   C200      1.0  0.93007  0.68860  0.33180  1.0000
  C   C201      1.0  0.96473  0.70657  0.31126  1.0000
  C   C202      1.0  0.52069  0.76096  0.32028  1.0000
  C   C203      1.0  0.54042  0.79679  0.31076  1.0000
  C   C204      1.0  0.57511  0.81478  0.33083  1.0000
  O   O37       1.0  0.97731  0.68741  0.27956  1.0000
  O   O38       1.0  0.52781  0.81593  0.27904  1.0000
  H   H128      1.0  0.48158  0.69252  0.21544  1.0000
  H   H129      1.0  0.87126  0.68668  0.28829  1.0000
  H   H130      1.0  0.63392  0.81666  0.28710  1.0000
  C   C205      1.0  0.76193  0.74299  0.32042  1.0000
  C   C206      1.0  0.81575  0.74237  0.33020  1.0000
  C   C207      1.0  0.79775  0.75911  0.31063  1.0000
  C   C208      1.0  0.74337  0.76065  0.32071  1.0000
  C   C209      1.0  0.70754  0.74454  0.31116  1.0000
  C   C210      1.0  0.68954  0.76119  0.33175  1.0000
  O   O39       1.0  0.81687  0.79091  0.27925  1.0000
  O   O40       1.0  0.68843  0.71280  0.27935  1.0000
  H   H131      1.0  0.81171  0.79015  0.21518  1.0000
  H   H132      1.0  0.69359  0.71368  0.21525  1.0000
  H   H133      1.0  0.81765  0.68551  0.28526  1.0000
  H   H134      1.0  0.68753  0.81799  0.28784  1.0000
  C   C211      1.0  0.76157  0.51986  0.32043  1.0000
  C   C212      1.0  0.76223  0.57429  0.33128  1.0000
  C   C213      1.0  0.74552  0.53963  0.31086  1.0000
  C   C214      1.0  0.74386  0.98364  0.32029  1.0000
  C   C215      1.0  0.75993  0.96388  0.31064  1.0000
  C   C216      1.0  0.74314  0.92915  0.33028  1.0000
  O   O41       1.0  0.71376  0.52704  0.27917  1.0000
  O   O42       1.0  0.79172  0.97651  0.27920  1.0000
  H   H135      1.0  0.71460  0.02271  0.21509  1.0000
  H   H136      1.0  0.79095  0.48087  0.21511  1.0000
  H   H137      1.0  0.81907  0.63312  0.28805  1.0000
  H   H138      1.0  0.68628  0.87039  0.28588  1.0000
  C   C217      1.0  0.65425  0.74486  0.33890  1.0000
  N   N37       1.0  0.60577  0.74126  0.27183  1.0000
  C   C218      1.0  0.63401  0.73914  0.26278  1.0000
  H   H139      1.0  0.64313  0.74010  0.19989  1.0000
  C   C219      1.0  0.75945  0.91018  0.33793  1.0000
  N   N38       1.0  0.76275  0.86499  0.27173  1.0000
  C   C220      1.0  0.76469  0.89523  0.26197  1.0000
  H   H140      1.0  0.76374  0.90336  0.19900  1.0000
  C   C221      1.0  0.59407  0.85005  0.33845  1.0000
  N   N39       1.0  0.63918  0.89835  0.27119  1.0000
  C   C222      1.0  0.60894  0.87001  0.26207  1.0000
  H   H141      1.0  0.60072  0.86089  0.19917  1.0000
  C   C223      1.0  0.85102  0.75872  0.33765  1.0000
  N   N40       1.0  0.89955  0.76204  0.27141  1.0000
  C   C224      1.0  0.87130  0.76408  0.26180  1.0000
  H   H142      1.0  0.86227  0.76326  0.19885  1.0000
  C   C225      1.0  0.74596  0.59329  0.33886  1.0000
  N   N41       1.0  0.74250  0.63817  0.27119  1.0000
  C   C226      1.0  0.74053  0.60789  0.26238  1.0000
  H   H143      1.0  0.74142  0.59954  0.19966  1.0000
  C   C227      1.0  0.91111  0.65334  0.33962  1.0000
  N   N42       1.0  0.86615  0.60492  0.27240  1.0000
  C   C228      1.0  0.89646  0.63321  0.26329  1.0000
  H   H144      1.0  0.90451  0.64242  0.20040  1.0000
  C   C229      1.0  0.96569  0.75889  0.33692  1.0000
  C   C230      1.0  0.93058  0.74196  0.34533  1.0000
  C   C231      1.0  0.91316  0.70668  0.34519  1.0000
  H   H145      1.0  0.97728  0.78383  0.34985  1.0000
  O   O43       1.0  0.87907  0.68987  0.35061  1.0000
  C   C232      1.0  0.59204  0.79671  0.34415  1.0000
  C   C233      1.0  0.57460  0.76143  0.34473  1.0000
  C   C234      1.0  0.53948  0.74449  0.33675  1.0000
  O   O44       1.0  0.62613  0.81353  0.34944  1.0000
  H   H146      1.0  0.52789  0.71960  0.35026  1.0000
  C   C235      1.0  0.74547  0.70773  0.33682  1.0000
  C   C236      1.0  0.76240  0.68951  0.34371  1.0000
  C   C237      1.0  0.79768  0.70734  0.34282  1.0000
  H   H147      1.0  0.72059  0.69443  0.35048  1.0000
  O   O45       1.0  0.81449  0.69004  0.34769  1.0000
  C   C238      1.0  0.70760  0.79620  0.34500  1.0000
  C   C239      1.0  0.74288  0.81407  0.34522  1.0000
  C   C240      1.0  0.75983  0.79590  0.33733  1.0000
  O   O46       1.0  0.69080  0.81349  0.35020  1.0000
  H   H148      1.0  0.78474  0.80921  0.35057  1.0000
  C   C241      1.0  0.79682  0.53860  0.33703  1.0000
  C   C242      1.0  0.81504  0.57371  0.34498  1.0000
  C   C243      1.0  0.79722  0.59117  0.34474  1.0000
  H   H149      1.0  0.81008  0.52696  0.35061  1.0000
  O   O47       1.0  0.81455  0.62526  0.35033  1.0000
  C   C244      1.0  0.70812  0.91224  0.34308  1.0000
  C   C245      1.0  0.69034  0.92974  0.34372  1.0000
  C   C246      1.0  0.70860  0.96488  0.33671  1.0000
  O   O48       1.0  0.69079  0.87815  0.34826  1.0000
  H   H150      1.0  0.69534  0.97651  0.35030  1.0000
  N   N43       1.0  0.64220  0.74958  0.41738  1.0000
  C   C247      1.0  0.61231  0.74821  0.42852  1.0000
  C   C248      1.0  0.59292  0.74444  0.35100  1.0000
  C   C249      1.0  0.60359  0.75455  0.51893  1.0000
  H   H151      1.0  0.62149  0.75582  0.56882  1.0000
  H   H152      1.0  0.57880  0.73426  0.53738  1.0000
  H   H153      1.0  0.60353  0.77815  0.52047  1.0000
  N   N44       1.0  0.75489  0.89373  0.41687  1.0000
  C   C250      1.0  0.75625  0.86523  0.42861  1.0000
  C   C251      1.0  0.75991  0.84939  0.35149  1.0000
  C   C252      1.0  0.74999  0.85039  0.51925  1.0000
  H   H154      1.0  0.74873  0.86711  0.56882  1.0000
  H   H155      1.0  0.77031  0.84595  0.53787  1.0000
  H   H156      1.0  0.72641  0.82672  0.52110  1.0000
  N   N45       1.0  0.61071  0.86228  0.41695  1.0000
  C   C253      1.0  0.63924  0.89218  0.42791  1.0000
  C   C254      1.0  0.65506  0.91150  0.35046  1.0000
  C   C255      1.0  0.65425  0.90103  0.51833  1.0000
  H   H157      1.0  0.63762  0.88321  0.56833  1.0000
  H   H158      1.0  0.65874  0.92585  0.53644  1.0000
  H   H159      1.0  0.67791  0.90110  0.52007  1.0000
  N   N46       1.0  0.86293  0.75404  0.41645  1.0000
  C   C256      1.0  0.89275  0.75530  0.42813  1.0000
  C   C257      1.0  0.91226  0.75895  0.35094  1.0000
  C   C258      1.0  0.90132  0.74906  0.51883  1.0000
  H   H160      1.0  0.88337  0.74789  0.56840  1.0000
  H   H161      1.0  0.92610  0.76936  0.53738  1.0000
  H   H162      1.0  0.90134  0.72545  0.52083  1.0000
  N   N47       1.0  0.75047  0.61006  0.41718  1.0000
  C   C259      1.0  0.74906  0.63856  0.42789  1.0000
  C   C260      1.0  0.74542  0.65423  0.35024  1.0000
  C   C261      1.0  0.75526  0.65367  0.51821  1.0000
  H   H163      1.0  0.75649  0.63709  0.56832  1.0000
  H   H164      1.0  0.73494  0.65817  0.53630  1.0000
  H   H165      1.0  0.77885  0.67734  0.51979  1.0000
  N   N48       1.0  0.89447  0.64117  0.41818  1.0000
  C   C262      1.0  0.86601  0.61124  0.42933  1.0000
  C   C263      1.0  0.85035  0.59195  0.35180  1.0000
  C   C264      1.0  0.85098  0.60239  0.51973  1.0000
  H   H166      1.0  0.86758  0.62026  0.56969  1.0000
  H   H167      1.0  0.84655  0.57760  0.53792  1.0000
  H   H168      1.0  0.82728  0.60225  0.52141  1.0000
