data_image0
_chemical_formula_structural       C4NC4NH4N2C3HCH3CHC3HCH3CHC2HC2H3N2C3HCH3CHC3HCH3CHC4NC4NH4N2C3HCH3CHC3HCH3CHC2HC2H3N2C3HCH3CHC3HCH3CHC4NC4NH4N2C3HCH3CHC3HCH3CHC2HC2H3N2C3HCH3CHC3HCH3CHC4NC4NH4N2C3HCH3CHC3HCH3CHC2HC2H3N2C3HCH3CHC3HCH3CH
_chemical_formula_sum              "C128 N24 H112"
_cell_length_a       31.5142
_cell_length_b       31.5142
_cell_length_c       14.968
_cell_angle_alpha    90
_cell_angle_beta     90
_cell_angle_gamma    90

_space_group_name_H-M_alt    "P 1"
_space_group_IT_number       1

loop_
  _space_group_symop_operation_xyz
  'x, y, z'

loop_
  _atom_site_type_symbol
  _atom_site_label
  _atom_site_symmetry_multiplicity
  _atom_site_fract_x
  _atom_site_fract_y
  _atom_site_fract_z
  _atom_site_occupancy
  C   C1        1.0  0.01672  0.48511  0.33483  1.0000
  C   C2        1.0  0.08189  0.42009  0.31521  1.0000
  C   C3        1.0  0.09306  0.46343  0.32470  1.0000
  C   C4        1.0  0.06102  0.49454  0.33442  1.0000
  N   N1        1.0  0.11238  0.38969  0.30301  1.0000
  C   C5        1.0  0.48424  0.01761  0.33458  1.0000
  C   C6        1.0  0.43990  0.00816  0.33487  1.0000
  C   C7        1.0  0.40788  0.03932  0.32552  1.0000
  C   C8        1.0  0.41938  0.08234  0.31287  1.0000
  N   N2        1.0  0.38995  0.11162  0.28622  1.0000
  H   H1        1.0  0.36191  0.10284  0.26692  1.0000
  H   H2        1.0  0.14222  0.39672  0.29699  1.0000
  H   H3        1.0  0.07135  0.02493  0.33922  1.0000
  H   H4        1.0  0.42956  0.47792  0.34299  1.0000
  N   N3        1.0  0.36582  0.03037  0.33059  1.0000
  N   N4        1.0  0.13498  0.47309  0.32638  1.0000
  C   C9        1.0  0.50339  0.20607  0.33663  1.0000
  C   C10       1.0  0.53815  0.23140  0.30550  1.0000
  C   C11       1.0  0.53482  0.27621  0.30659  1.0000
  H   H5        1.0  0.55953  0.29389  0.28264  1.0000
  C   C12       1.0  0.57789  0.21279  0.26758  1.0000
  H   H6        1.0  0.57017  0.19270  0.21044  1.0000
  H   H7        1.0  0.09387  0.19376  0.31837  1.0000
  H   H8        1.0  0.60054  0.23663  0.24454  1.0000
  C   C13       1.0  0.50615  0.16103  0.33206  1.0000
  H   H9        1.0  0.53449  0.14653  0.31990  1.0000
  C   C14       1.0  0.29574  0.49860  0.33994  1.0000
  C   C15       1.0  0.27041  0.46405  0.30783  1.0000
  C   C16       1.0  0.22561  0.46737  0.30901  1.0000
  H   H10       1.0  0.20793  0.44282  0.28434  1.0000
  C   C17       1.0  0.28903  0.42470  0.26812  1.0000
  H   H11       1.0  0.30925  0.43301  0.21155  1.0000
  H   H12       1.0  0.26519  0.90237  0.24372  1.0000
  H   H13       1.0  0.30793  0.40812  0.31825  1.0000
  C   C18       1.0  0.34077  0.49576  0.33554  1.0000
  H   H14       1.0  0.35521  0.46734  0.32394  1.0000
  C   C19       1.0  0.00727  0.44082  0.33230  1.0000
  C   C20       1.0  0.03848  0.40885  0.32298  1.0000
  H   H15       1.0  0.47680  0.43050  0.33439  1.0000
  C   C21       1.0  0.46250  0.09391  0.32367  1.0000
  C   C22       1.0  0.49371  0.06193  0.33268  1.0000
  H   H16       1.0  0.02405  0.07233  0.33811  1.0000
  H   H17       1.0  0.39872  0.13941  0.26539  1.0000
  H   H18       1.0  0.10539  0.35991  0.29564  1.0000
  N   N5        1.0  0.47149  0.13598  0.32797  1.0000
  N   N6        1.0  0.02891  0.36690  0.32390  1.0000
  C   C23       1.0  0.99803  0.29741  0.33642  1.0000
  C   C24       1.0  0.96444  0.27228  0.36860  1.0000
  C   C25       1.0  0.96687  0.22744  0.37222  1.0000
  H   H19       1.0  0.93813  0.28728  0.39362  1.0000
  C   C26       1.0  0.93233  0.20551  0.42264  1.0000
  H   H20       1.0  0.91288  0.22720  0.46227  1.0000
  H   H21       1.0  0.94580  0.18252  0.46934  1.0000
  H   H22       1.0  0.41122  0.18946  0.37646  1.0000
  C   C27       1.0  0.99461  0.34214  0.33779  1.0000
  H   H23       1.0  0.96688  0.35614  0.35766  1.0000
  C   C28       1.0  0.20440  0.00396  0.33995  1.0000
  C   C29       1.0  0.22954  0.03742  0.37267  1.0000
  C   C30       1.0  0.27439  0.03506  0.37590  1.0000
  H   H24       1.0  0.21454  0.06365  0.39808  1.0000
  C   C31       1.0  0.29642  0.06958  0.42616  1.0000
  H   H25       1.0  0.27478  0.08918  0.46557  1.0000
  H   H26       1.0  0.31260  0.09056  0.37989  1.0000
  H   H27       1.0  0.31933  0.55608  0.47298  1.0000
  C   C32       1.0  0.15967  0.00734  0.34132  1.0000
  H   H28       1.0  0.14564  0.03490  0.36203  1.0000
  C   C33       1.0  0.01672  0.98511  0.33483  1.0000
  C   C34       1.0  0.08189  0.92009  0.31521  1.0000
  C   C35       1.0  0.09306  0.96343  0.32470  1.0000
  C   C36       1.0  0.06102  0.99454  0.33442  1.0000
  N   N7        1.0  0.11238  0.88969  0.30301  1.0000
  C   C37       1.0  0.48424  0.51760  0.33458  1.0000
  C   C38       1.0  0.43990  0.50816  0.33487  1.0000
  C   C39       1.0  0.40788  0.53932  0.32552  1.0000
  C   C40       1.0  0.41938  0.58234  0.31287  1.0000
  N   N8        1.0  0.38995  0.61162  0.28622  1.0000
  H   H29       1.0  0.36191  0.60284  0.26692  1.0000
  H   H30       1.0  0.14222  0.89672  0.29699  1.0000
  H   H31       1.0  0.07135  0.52494  0.33922  1.0000
  H   H32       1.0  0.42956  0.97792  0.34299  1.0000
  N   N9        1.0  0.36582  0.53037  0.33059  1.0000
  N   N10       1.0  0.13498  0.97309  0.32638  1.0000
  C   C41       1.0  0.50339  0.70607  0.33663  1.0000
  C   C42       1.0  0.53815  0.73140  0.30550  1.0000
  C   C43       1.0  0.53482  0.77621  0.30659  1.0000
  H   H33       1.0  0.55953  0.79389  0.28264  1.0000
  C   C44       1.0  0.57789  0.71279  0.26758  1.0000
  H   H34       1.0  0.57017  0.69270  0.21044  1.0000
  H   H35       1.0  0.09387  0.69376  0.31837  1.0000
  H   H36       1.0  0.60054  0.73663  0.24454  1.0000
  C   C45       1.0  0.50615  0.66103  0.33206  1.0000
  H   H37       1.0  0.53449  0.64653  0.31990  1.0000
  C   C46       1.0  0.29574  0.99860  0.33994  1.0000
  C   C47       1.0  0.27041  0.96405  0.30783  1.0000
  C   C48       1.0  0.22561  0.96737  0.30901  1.0000
  H   H38       1.0  0.20793  0.94282  0.28434  1.0000
  C   C49       1.0  0.28903  0.92470  0.26812  1.0000
  H   H39       1.0  0.30925  0.93301  0.21155  1.0000
  H   H40       1.0  0.26519  0.40237  0.24372  1.0000
  H   H41       1.0  0.30793  0.90812  0.31825  1.0000
  C   C50       1.0  0.34077  0.99576  0.33554  1.0000
  H   H42       1.0  0.35521  0.96733  0.32394  1.0000
  C   C51       1.0  0.00727  0.94082  0.33230  1.0000
  C   C52       1.0  0.03848  0.90885  0.32298  1.0000
  H   H43       1.0  0.47680  0.93050  0.33439  1.0000
  C   C53       1.0  0.46250  0.59390  0.32367  1.0000
  C   C54       1.0  0.49371  0.56193  0.33268  1.0000
  H   H44       1.0  0.02405  0.57233  0.33811  1.0000
  H   H45       1.0  0.39872  0.63941  0.26539  1.0000
  H   H46       1.0  0.10539  0.85991  0.29564  1.0000
  N   N11       1.0  0.47149  0.63598  0.32797  1.0000
  N   N12       1.0  0.02891  0.86690  0.32390  1.0000
  C   C55       1.0  0.99803  0.79741  0.33642  1.0000
  C   C56       1.0  0.96444  0.77228  0.36860  1.0000
  C   C57       1.0  0.96687  0.72744  0.37222  1.0000
  H   H47       1.0  0.93813  0.78728  0.39362  1.0000
  C   C58       1.0  0.93233  0.70551  0.42264  1.0000
  H   H48       1.0  0.91288  0.72720  0.46227  1.0000
  H   H49       1.0  0.94580  0.68252  0.46934  1.0000
  H   H50       1.0  0.41122  0.68946  0.37646  1.0000
  C   C59       1.0  0.99461  0.84214  0.33779  1.0000
  H   H51       1.0  0.96688  0.85614  0.35766  1.0000
  C   C60       1.0  0.20440  0.50396  0.33995  1.0000
  C   C61       1.0  0.22954  0.53742  0.37267  1.0000
  C   C62       1.0  0.27439  0.53505  0.37590  1.0000
  H   H52       1.0  0.21454  0.56365  0.39808  1.0000
  C   C63       1.0  0.29642  0.56958  0.42616  1.0000
  H   H53       1.0  0.27478  0.58918  0.46557  1.0000
  H   H54       1.0  0.31260  0.59056  0.37989  1.0000
  H   H55       1.0  0.31933  0.05608  0.47298  1.0000
  C   C64       1.0  0.15967  0.50734  0.34132  1.0000
  H   H56       1.0  0.14564  0.53490  0.36203  1.0000
  C   C65       1.0  0.51672  0.48511  0.33483  1.0000
  C   C66       1.0  0.58189  0.42009  0.31521  1.0000
  C   C67       1.0  0.59306  0.46343  0.32470  1.0000
  C   C68       1.0  0.56102  0.49454  0.33442  1.0000
  N   N13       1.0  0.61238  0.38969  0.30301  1.0000
  C   C69       1.0  0.98424  0.01761  0.33458  1.0000
  C   C70       1.0  0.93990  0.00816  0.33487  1.0000
  C   C71       1.0  0.90788  0.03932  0.32552  1.0000
  C   C72       1.0  0.91938  0.08234  0.31287  1.0000
  N   N14       1.0  0.88994  0.11162  0.28622  1.0000
  H   H57       1.0  0.86191  0.10284  0.26692  1.0000
  H   H58       1.0  0.64222  0.39672  0.29699  1.0000
  H   H59       1.0  0.57135  0.02493  0.33922  1.0000
  H   H60       1.0  0.92956  0.47792  0.34299  1.0000
  N   N15       1.0  0.86582  0.03037  0.33059  1.0000
  N   N16       1.0  0.63498  0.47309  0.32638  1.0000
  C   C73       1.0  0.00339  0.20607  0.33663  1.0000
  C   C74       1.0  0.03814  0.23140  0.30550  1.0000
  C   C75       1.0  0.03482  0.27621  0.30659  1.0000
  H   H61       1.0  0.05953  0.29389  0.28264  1.0000
  C   C76       1.0  0.07789  0.21279  0.26758  1.0000
  H   H62       1.0  0.07017  0.19270  0.21044  1.0000
  H   H63       1.0  0.59387  0.19376  0.31837  1.0000
  H   H64       1.0  0.10053  0.23663  0.24454  1.0000
  C   C77       1.0  0.00615  0.16103  0.33206  1.0000
  H   H65       1.0  0.03449  0.14653  0.31990  1.0000
  C   C78       1.0  0.79574  0.49860  0.33994  1.0000
  C   C79       1.0  0.77041  0.46405  0.30783  1.0000
  C   C80       1.0  0.72561  0.46737  0.30901  1.0000
  H   H66       1.0  0.70793  0.44282  0.28434  1.0000
  C   C81       1.0  0.78903  0.42470  0.26812  1.0000
  H   H67       1.0  0.80925  0.43301  0.21155  1.0000
  H   H68       1.0  0.76519  0.90237  0.24372  1.0000
  H   H69       1.0  0.80793  0.40812  0.31825  1.0000
  C   C82       1.0  0.84077  0.49576  0.33554  1.0000
  H   H70       1.0  0.85521  0.46734  0.32394  1.0000
  C   C83       1.0  0.50727  0.44082  0.33230  1.0000
  C   C84       1.0  0.53848  0.40885  0.32298  1.0000
  H   H71       1.0  0.97680  0.43050  0.33439  1.0000
  C   C85       1.0  0.96250  0.09391  0.32367  1.0000
  C   C86       1.0  0.99371  0.06193  0.33268  1.0000
  H   H72       1.0  0.52405  0.07233  0.33811  1.0000
  H   H73       1.0  0.89872  0.13941  0.26539  1.0000
  H   H74       1.0  0.60539  0.35991  0.29564  1.0000
  N   N17       1.0  0.97149  0.13598  0.32797  1.0000
  N   N18       1.0  0.52890  0.36690  0.32390  1.0000
  C   C87       1.0  0.49803  0.29741  0.33642  1.0000
  C   C88       1.0  0.46444  0.27228  0.36860  1.0000
  C   C89       1.0  0.46687  0.22744  0.37222  1.0000
  H   H75       1.0  0.43813  0.28728  0.39362  1.0000
  C   C90       1.0  0.43233  0.20551  0.42264  1.0000
  H   H76       1.0  0.41288  0.22720  0.46227  1.0000
  H   H77       1.0  0.44580  0.18252  0.46934  1.0000
  H   H78       1.0  0.91122  0.18946  0.37646  1.0000
  C   C91       1.0  0.49461  0.34214  0.33779  1.0000
  H   H79       1.0  0.46688  0.35614  0.35766  1.0000
  C   C92       1.0  0.70440  0.00396  0.33995  1.0000
  C   C93       1.0  0.72954  0.03742  0.37267  1.0000
  C   C94       1.0  0.77439  0.03506  0.37590  1.0000
  H   H80       1.0  0.71454  0.06365  0.39808  1.0000
  C   C95       1.0  0.79642  0.06958  0.42616  1.0000
  H   H81       1.0  0.77478  0.08918  0.46557  1.0000
  H   H82       1.0  0.81260  0.09056  0.37989  1.0000
  H   H83       1.0  0.81933  0.55608  0.47298  1.0000
  C   C96       1.0  0.65967  0.00734  0.34132  1.0000
  H   H84       1.0  0.64564  0.03490  0.36203  1.0000
  C   C97       1.0  0.51672  0.98511  0.33483  1.0000
  C   C98       1.0  0.58189  0.92009  0.31521  1.0000
  C   C99       1.0  0.59306  0.96343  0.32470  1.0000
  C   C100      1.0  0.56102  0.99454  0.33442  1.0000
  N   N19       1.0  0.61238  0.88969  0.30301  1.0000
  C   C101      1.0  0.98424  0.51760  0.33458  1.0000
  C   C102      1.0  0.93990  0.50816  0.33487  1.0000
  C   C103      1.0  0.90788  0.53932  0.32552  1.0000
  C   C104      1.0  0.91938  0.58234  0.31287  1.0000
  N   N20       1.0  0.88994  0.61162  0.28622  1.0000
  H   H85       1.0  0.86191  0.60284  0.26692  1.0000
  H   H86       1.0  0.64222  0.89672  0.29699  1.0000
  H   H87       1.0  0.57135  0.52494  0.33922  1.0000
  H   H88       1.0  0.92956  0.97792  0.34299  1.0000
  N   N21       1.0  0.86582  0.53037  0.33059  1.0000
  N   N22       1.0  0.63498  0.97309  0.32638  1.0000
  C   C105      1.0  0.00339  0.70607  0.33663  1.0000
  C   C106      1.0  0.03814  0.73140  0.30550  1.0000
  C   C107      1.0  0.03482  0.77621  0.30659  1.0000
  H   H89       1.0  0.05953  0.79389  0.28264  1.0000
  C   C108      1.0  0.07789  0.71279  0.26758  1.0000
  H   H90       1.0  0.07017  0.69270  0.21044  1.0000
  H   H91       1.0  0.59387  0.69376  0.31837  1.0000
  H   H92       1.0  0.10053  0.73663  0.24454  1.0000
  C   C109      1.0  0.00615  0.66103  0.33206  1.0000
  H   H93       1.0  0.03449  0.64653  0.31990  1.0000
  C   C110      1.0  0.79574  0.99860  0.33994  1.0000
  C   C111      1.0  0.77041  0.96405  0.30783  1.0000
  C   C112      1.0  0.72561  0.96737  0.30901  1.0000
  H   H94       1.0  0.70793  0.94282  0.28434  1.0000
  C   C113      1.0  0.78903  0.92470  0.26812  1.0000
  H   H95       1.0  0.80925  0.93301  0.21155  1.0000
  H   H96       1.0  0.76519  0.40237  0.24372  1.0000
  H   H97       1.0  0.80793  0.90812  0.31825  1.0000
  C   C114      1.0  0.84077  0.99576  0.33554  1.0000
  H   H98       1.0  0.85521  0.96733  0.32394  1.0000
  C   C115      1.0  0.50727  0.94082  0.33230  1.0000
  C   C116      1.0  0.53848  0.90885  0.32298  1.0000
  H   H99       1.0  0.97680  0.93050  0.33439  1.0000
  C   C117      1.0  0.96250  0.59390  0.32367  1.0000
  C   C118      1.0  0.99371  0.56193  0.33268  1.0000
  H   H100      1.0  0.52405  0.57233  0.33811  1.0000
  H   H101      1.0  0.89872  0.63941  0.26539  1.0000
  H   H102      1.0  0.60539  0.85991  0.29564  1.0000
  N   N23       1.0  0.97149  0.63598  0.32797  1.0000
  N   N24       1.0  0.52890  0.86690  0.32390  1.0000
  C   C119      1.0  0.49803  0.79741  0.33642  1.0000
  C   C120      1.0  0.46444  0.77228  0.36860  1.0000
  C   C121      1.0  0.46687  0.72744  0.37222  1.0000
  H   H103      1.0  0.43813  0.78728  0.39362  1.0000
  C   C122      1.0  0.43233  0.70551  0.42264  1.0000
  H   H104      1.0  0.41288  0.72720  0.46227  1.0000
  H   H105      1.0  0.44580  0.68252  0.46934  1.0000
  H   H106      1.0  0.91122  0.68946  0.37646  1.0000
  C   C123      1.0  0.49461  0.84214  0.33779  1.0000
  H   H107      1.0  0.46688  0.85614  0.35766  1.0000
  C   C124      1.0  0.70440  0.50396  0.33995  1.0000
  C   C125      1.0  0.72954  0.53742  0.37267  1.0000
  C   C126      1.0  0.77439  0.53505  0.37590  1.0000
  H   H108      1.0  0.71454  0.56365  0.39808  1.0000
  C   C127      1.0  0.79642  0.56958  0.42616  1.0000
  H   H109      1.0  0.77478  0.58918  0.46557  1.0000
  H   H110      1.0  0.81260  0.59056  0.37989  1.0000
  H   H111      1.0  0.81933  0.05608  0.47298  1.0000
  C   C128      1.0  0.65967  0.50734  0.34132  1.0000
  H   H112      1.0  0.64564  0.53490  0.36203  1.0000
