data_image0
_chemical_formula_structural       CNCNCNCNCNCNC7NC12H12C7NC12H12C14H12C14H12CNCNCNCNCNCNCNC2NC4NC18H14CNC2NC4NC18H14C3NC2NC5NC3NC17H14C3NC2NC5NC3NC17H14CNCNCNCNCNCNC7NC12H12C7NC12H12C14H12C14H12CNCNCNCNCNCNCNC2NC4NC18H14CNC2NC4NC18H14C3NC2NC5NC3NC17H14C3NC2NC5NC3NC17H14
_chemical_formula_sum              "C376 N56 H208"
_cell_length_a       57.7265
_cell_length_b       41.5748
_cell_length_c       14.9848
_cell_angle_alpha    90
_cell_angle_beta     89.9788
_cell_angle_gamma    90.0347

_space_group_name_H-M_alt    "P 1"
_space_group_IT_number       1

loop_
  _space_group_symop_operation_xyz
  'x, y, z'

loop_
  _atom_site_type_symbol
  _atom_site_label
  _atom_site_symmetry_multiplicity
  _atom_site_fract_x
  _atom_site_fract_y
  _atom_site_fract_z
  _atom_site_occupancy
  C   C1        1.0  0.67943  0.22152  0.35763  1.0000
  N   N1        1.0  0.66776  0.24945  0.33577  1.0000
  C   C2        1.0  0.67933  0.27735  0.31288  1.0000
  N   N2        1.0  0.70283  0.27572  0.31157  1.0000
  C   C3        1.0  0.71501  0.24941  0.33382  1.0000
  N   N3        1.0  0.70292  0.22312  0.35709  1.0000
  C   C4        1.0  0.35236  0.27915  0.35742  1.0000
  N   N4        1.0  0.36405  0.25125  0.33549  1.0000
  C   C5        1.0  0.35250  0.22334  0.31245  1.0000
  N   N5        1.0  0.32901  0.22492  0.31133  1.0000
  C   C6        1.0  0.31680  0.25120  0.33370  1.0000
  N   N6        1.0  0.32887  0.27751  0.35696  1.0000
  C   C7        1.0  0.41287  0.08412  0.29208  1.0000
  C   C8        1.0  0.41850  0.03137  0.32075  1.0000
  C   C9        1.0  0.34969  0.07107  0.34175  1.0000
  C   C10       1.0  0.32480  0.47168  0.31842  1.0000
  C   C11       1.0  0.33101  0.41939  0.28976  1.0000
  C   C12       1.0  0.37165  0.41393  0.34519  1.0000
  C   C13       1.0  0.39313  0.43053  0.35013  1.0000
  N   N7        1.0  0.39680  0.46235  0.33467  1.0000
  C   C14       1.0  0.43066  0.44190  0.36790  1.0000
  C   C15       1.0  0.41450  0.41761  0.37378  1.0000
  C   C16       1.0  0.49071  0.00644  0.25411  1.0000
  C   C17       1.0  0.46647  0.00549  0.25308  1.0000
  C   C18       1.0  0.36997  0.37972  0.35758  1.0000
  C   C19       1.0  0.36095  0.31099  0.36994  1.0000
  C   C20       1.0  0.38103  0.32286  0.32671  1.0000
  C   C21       1.0  0.38518  0.35646  0.31969  1.0000
  C   C22       1.0  0.27583  0.51686  0.26601  1.0000
  C   C23       1.0  0.25153  0.51694  0.26719  1.0000
  C   C24       1.0  0.35181  0.13549  0.25810  1.0000
  C   C25       1.0  0.34764  0.16864  0.25264  1.0000
  H   H1        1.0  0.33373  0.17584  0.21524  1.0000
  H   H2        1.0  0.34106  0.12052  0.22299  1.0000
  H   H3        1.0  0.41621  0.10713  0.27198  1.0000
  H   H4        1.0  0.28432  0.52926  0.21682  1.0000
  H   H5        1.0  0.24289  0.52919  0.21815  1.0000
  H   H6        1.0  0.32820  0.39623  0.26951  1.0000
  H   H7        1.0  0.44784  0.43874  0.38145  1.0000
  H   H8        1.0  0.41818  0.39464  0.39321  1.0000
  H   H9        1.0  0.39827  0.36384  0.27847  1.0000
  H   H10       1.0  0.39120  0.30751  0.29043  1.0000
  H   H11       1.0  0.45788  0.00890  0.19400  1.0000
  H   H12       1.0  0.49868  0.01153  0.19498  1.0000
  C   C26       1.0  0.61900  0.41659  0.29153  1.0000
  C   C27       1.0  0.61334  0.46931  0.32040  1.0000
  C   C28       1.0  0.68213  0.42962  0.34182  1.0000
  C   C29       1.0  0.70702  0.02904  0.31875  1.0000
  C   C30       1.0  0.70083  0.08136  0.29033  1.0000
  C   C31       1.0  0.66013  0.08678  0.34537  1.0000
  C   C32       1.0  0.63866  0.07016  0.35024  1.0000
  N   N8        1.0  0.63501  0.03833  0.33473  1.0000
  C   C33       1.0  0.60113  0.05875  0.36791  1.0000
  C   C34       1.0  0.61727  0.08306  0.37373  1.0000
  C   C35       1.0  0.54112  0.49421  0.25406  1.0000
  C   C36       1.0  0.56536  0.49521  0.25296  1.0000
  C   C37       1.0  0.66180  0.12099  0.35783  1.0000
  C   C38       1.0  0.67081  0.18971  0.37020  1.0000
  C   C39       1.0  0.65072  0.17786  0.32703  1.0000
  C   C40       1.0  0.64662  0.14425  0.31978  1.0000
  C   C41       1.0  0.75598  0.98388  0.26580  1.0000
  C   C42       1.0  0.78028  0.98381  0.26687  1.0000
  C   C43       1.0  0.68005  0.36518  0.25830  1.0000
  C   C44       1.0  0.68422  0.33202  0.25295  1.0000
  H   H13       1.0  0.69815  0.32481  0.21561  1.0000
  H   H14       1.0  0.69082  0.38013  0.22319  1.0000
  H   H15       1.0  0.61568  0.39359  0.27135  1.0000
  H   H16       1.0  0.74748  0.97151  0.21657  1.0000
  H   H17       1.0  0.78892  0.97157  0.21779  1.0000
  H   H18       1.0  0.70363  0.10452  0.27002  1.0000
  H   H19       1.0  0.58392  0.06193  0.38090  1.0000
  H   H20       1.0  0.61356  0.10605  0.39288  1.0000
  H   H21       1.0  0.63357  0.13688  0.27842  1.0000
  H   H22       1.0  0.64065  0.19318  0.29031  1.0000
  H   H23       1.0  0.57395  0.49176  0.19389  1.0000
  H   H24       1.0  0.53315  0.48912  0.19494  1.0000
  C   C45       1.0  0.84968  0.32088  0.34239  1.0000
  C   C46       1.0  0.87168  0.16370  0.34600  1.0000
  C   C47       1.0  0.89316  0.18033  0.35077  1.0000
  C   C48       1.0  0.93069  0.19174  0.36816  1.0000
  C   C49       1.0  0.91456  0.16742  0.37407  1.0000
  C   C50       1.0  0.99069  0.25638  0.25418  1.0000
  C   C51       1.0  0.96646  0.25534  0.25313  1.0000
  C   C52       1.0  0.87002  0.12948  0.35840  1.0000
  C   C53       1.0  0.88107  0.07264  0.32733  1.0000
  C   C54       1.0  0.88523  0.10624  0.32037  1.0000
  C   C55       1.0  0.77589  0.26667  0.26610  1.0000
  C   C56       1.0  0.75159  0.26675  0.26704  1.0000
  C   C57       1.0  0.85177  0.38530  0.25868  1.0000
  C   C58       1.0  0.84760  0.41846  0.25325  1.0000
  H   H25       1.0  0.83371  0.42567  0.21573  1.0000
  H   H26       1.0  0.84101  0.37034  0.22360  1.0000
  H   H27       1.0  0.91614  0.35692  0.27184  1.0000
  H   H28       1.0  0.78441  0.27903  0.21692  1.0000
  H   H29       1.0  0.74297  0.27897  0.21786  1.0000
  H   H30       1.0  0.82822  0.14599  0.27055  1.0000
  H   H31       1.0  0.94791  0.18856  0.38091  1.0000
  H   H32       1.0  0.91828  0.14444  0.39317  1.0000
  H   H33       1.0  0.89824  0.11362  0.27882  1.0000
  H   H34       1.0  0.89117  0.05728  0.29076  1.0000
  H   H35       1.0  0.95786  0.25874  0.19406  1.0000
  H   H36       1.0  0.99866  0.26148  0.19505  1.0000
  C   C59       1.0  0.18211  0.17973  0.34219  1.0000
  C   C60       1.0  0.16015  0.33695  0.34606  1.0000
  C   C61       1.0  0.13867  0.32034  0.35065  1.0000
  C   C62       1.0  0.10112  0.30896  0.36791  1.0000
  C   C63       1.0  0.11726  0.33327  0.37376  1.0000
  C   C64       1.0  0.04113  0.24428  0.25424  1.0000
  C   C65       1.0  0.06536  0.24531  0.25321  1.0000
  C   C66       1.0  0.16181  0.37116  0.35845  1.0000
  C   C67       1.0  0.15080  0.42801  0.32726  1.0000
  C   C68       1.0  0.14666  0.39441  0.32019  1.0000
  C   C69       1.0  0.25595  0.23399  0.26590  1.0000
  C   C70       1.0  0.28024  0.23389  0.26686  1.0000
  C   C71       1.0  0.17997  0.11532  0.25843  1.0000
  C   C72       1.0  0.18417  0.08216  0.25314  1.0000
  H   H37       1.0  0.19807  0.07496  0.21565  1.0000
  H   H38       1.0  0.19075  0.13028  0.22333  1.0000
  H   H39       1.0  0.11561  0.14371  0.27244  1.0000
  H   H40       1.0  0.24743  0.22167  0.21665  1.0000
  H   H41       1.0  0.28887  0.22173  0.21759  1.0000
  H   H42       1.0  0.20366  0.35466  0.27091  1.0000
  H   H43       1.0  0.08389  0.31216  0.38062  1.0000
  H   H44       1.0  0.11354  0.35626  0.39292  1.0000
  H   H45       1.0  0.13364  0.38702  0.27869  1.0000
  H   H46       1.0  0.14068  0.44335  0.29076  1.0000
  H   H47       1.0  0.07398  0.24186  0.19418  1.0000
  H   H48       1.0  0.03317  0.23913  0.19514  1.0000
  C   C73       1.0  0.17941  0.47174  0.35858  1.0000
  N   N9        1.0  0.16774  0.99962  0.33629  1.0000
  C   C74       1.0  0.17931  0.02749  0.31304  1.0000
  N   N10       1.0  0.20280  0.02587  0.31179  1.0000
  C   C75       1.0  0.21499  0.99959  0.33425  1.0000
  N   N11       1.0  0.20290  0.47332  0.35780  1.0000
  C   C76       1.0  0.85240  0.02894  0.35822  1.0000
  N   N12       1.0  0.86407  0.50105  0.33610  1.0000
  C   C77       1.0  0.85250  0.47318  0.31288  1.0000
  N   N13       1.0  0.82900  0.47481  0.31159  1.0000
  C   C78       1.0  0.81682  0.50111  0.33395  1.0000
  N   N14       1.0  0.82890  0.02737  0.35745  1.0000
  C   C79       1.0  0.42930  0.06012  0.29529  1.0000
  N   N15       1.0  0.39613  0.03929  0.33535  1.0000
  C   C80       1.0  0.39181  0.07110  0.31980  1.0000
  C   C81       1.0  0.37061  0.08847  0.32665  1.0000
  N   N16       1.0  0.34577  0.03929  0.32819  1.0000
  C   C82       1.0  0.32368  0.03130  0.34725  1.0000
  C   C83       1.0  0.31279  0.05944  0.37596  1.0000
  C   C84       1.0  0.32889  0.08391  0.37325  1.0000
  C   C85       1.0  0.31291  0.00107  0.33342  1.0000
  N   N17       1.0  0.34694  0.46406  0.33910  1.0000
  C   C86       1.0  0.35121  0.43214  0.32703  1.0000
  C   C87       1.0  0.31471  0.44355  0.28542  1.0000
  C   C88       1.0  0.41922  0.47053  0.34590  1.0000
  C   C89       1.0  0.42971  0.00120  0.33336  1.0000
  C   C90       1.0  0.45417  0.00168  0.33351  1.0000
  C   C91       1.0  0.46635  0.49760  0.41408  1.0000
  C   C92       1.0  0.49056  0.49569  0.41314  1.0000
  C   C93       1.0  0.50348  0.00070  0.33360  1.0000
  C   C94       1.0  0.35165  0.36723  0.41004  1.0000
  C   C95       1.0  0.34716  0.33413  0.41525  1.0000
  C   C96       1.0  0.28833  0.00033  0.33278  1.0000
  C   C97       1.0  0.23932  0.99962  0.33336  1.0000
  C   C98       1.0  0.25187  0.98249  0.39890  1.0000
  C   C99       1.0  0.27617  0.98322  0.39941  1.0000
  C   C100      1.0  0.36943  0.12268  0.31334  1.0000
  C   C101      1.0  0.38458  0.14563  0.35305  1.0000
  C   C102      1.0  0.38078  0.17932  0.34578  1.0000
  C   C103      1.0  0.36111  0.19150  0.30044  1.0000
  H   H49       1.0  0.39066  0.19448  0.38378  1.0000
  H   H50       1.0  0.39732  0.13795  0.39543  1.0000
  H   H51       1.0  0.44631  0.06368  0.27940  1.0000
  H   H52       1.0  0.38530  0.02415  0.36098  1.0000
  H   H53       1.0  0.35679  0.47831  0.37346  1.0000
  H   H54       1.0  0.32579  0.10706  0.39284  1.0000
  H   H55       1.0  0.29598  0.06202  0.39631  1.0000
  H   H56       1.0  0.28491  0.97122  0.44869  1.0000
  H   H57       1.0  0.24347  0.97011  0.44838  1.0000
  H   H58       1.0  0.29812  0.44060  0.26300  1.0000
  H   H59       1.0  0.34067  0.38240  0.44342  1.0000
  H   H60       1.0  0.33286  0.32718  0.45090  1.0000
  H   H61       1.0  0.49837  0.49007  0.47219  1.0000
  H   H62       1.0  0.45767  0.49407  0.47293  1.0000
  C   C104      1.0  0.60257  0.44057  0.29480  1.0000
  N   N18       1.0  0.63573  0.46143  0.33485  1.0000
  C   C105      1.0  0.64003  0.42959  0.31960  1.0000
  C   C106      1.0  0.66122  0.41222  0.32664  1.0000
  N   N19       1.0  0.68604  0.46140  0.32825  1.0000
  C   C107      1.0  0.70814  0.46940  0.34725  1.0000
  C   C108      1.0  0.71903  0.44126  0.37591  1.0000
  C   C109      1.0  0.70293  0.41679  0.37333  1.0000
  C   C110      1.0  0.71890  0.49963  0.33340  1.0000
  N   N20       1.0  0.68490  0.03670  0.33958  1.0000
  C   C111      1.0  0.68059  0.06859  0.32737  1.0000
  C   C112      1.0  0.71711  0.05718  0.28578  1.0000
  C   C113      1.0  0.61258  0.03014  0.34577  1.0000
  C   C114      1.0  0.60211  0.49947  0.33320  1.0000
  C   C115      1.0  0.57765  0.49896  0.33340  1.0000
  C   C116      1.0  0.56547  0.00302  0.41399  1.0000
  C   C117      1.0  0.54126  0.00494  0.41310  1.0000
  C   C118      1.0  0.52835  0.49993  0.33358  1.0000
  C   C119      1.0  0.68007  0.13347  0.41046  1.0000
  C   C120      1.0  0.68457  0.16657  0.41565  1.0000
  C   C121      1.0  0.74348  0.50036  0.33269  1.0000
  C   C122      1.0  0.79248  0.50108  0.33310  1.0000
  C   C123      1.0  0.77994  0.51819  0.39875  1.0000
  C   C124      1.0  0.75564  0.51742  0.39938  1.0000
  C   C125      1.0  0.66239  0.37801  0.31341  1.0000
  C   C126      1.0  0.64723  0.35507  0.35314  1.0000
  C   C127      1.0  0.65104  0.32139  0.34596  1.0000
  C   C128      1.0  0.67071  0.30918  0.30071  1.0000
  H   H63       1.0  0.64108  0.30625  0.38383  1.0000
  H   H64       1.0  0.63444  0.36279  0.39525  1.0000
  H   H65       1.0  0.58558  0.43704  0.27860  1.0000
  H   H66       1.0  0.64647  0.47645  0.36154  1.0000
  H   H67       1.0  0.67499  0.02226  0.37315  1.0000
  H   H68       1.0  0.70604  0.39363  0.39278  1.0000
  H   H69       1.0  0.73584  0.43867  0.39616  1.0000
  H   H70       1.0  0.74691  0.52938  0.44878  1.0000
  H   H71       1.0  0.78834  0.53048  0.44835  1.0000
  H   H72       1.0  0.73371  0.06016  0.26347  1.0000
  H   H73       1.0  0.69102  0.11830  0.44395  1.0000
  H   H74       1.0  0.69885  0.17352  0.45134  1.0000
  H   H75       1.0  0.53345  0.01054  0.47217  1.0000
  H   H76       1.0  0.57415  0.00654  0.47284  1.0000
  C   C129      1.0  0.91282  0.33392  0.29204  1.0000
  C   C130      1.0  0.92925  0.30994  0.29531  1.0000
  C   C131      1.0  0.91847  0.28119  0.32088  1.0000
  N   N21       1.0  0.89609  0.28909  0.33541  1.0000
  C   C132      1.0  0.89178  0.32091  0.32008  1.0000
  C   C133      1.0  0.87059  0.33828  0.32710  1.0000
  N   N22       1.0  0.84577  0.28910  0.32892  1.0000
  C   C134      1.0  0.82369  0.28109  0.34813  1.0000
  C   C135      1.0  0.81277  0.30925  0.37654  1.0000
  C   C136      1.0  0.82887  0.33372  0.37389  1.0000
  C   C137      1.0  0.81292  0.25088  0.33393  1.0000
  C   C138      1.0  0.82480  0.22147  0.31924  1.0000
  N   N23       1.0  0.84686  0.21375  0.34077  1.0000
  C   C139      1.0  0.85121  0.18188  0.32821  1.0000
  C   C140      1.0  0.83099  0.16912  0.29109  1.0000
  C   C141      1.0  0.81471  0.19330  0.28648  1.0000
  N   N24       1.0  0.89680  0.21215  0.33521  1.0000
  C   C142      1.0  0.91923  0.22034  0.34602  1.0000
  C   C143      1.0  0.92970  0.25102  0.33345  1.0000
  C   C144      1.0  0.95416  0.25154  0.33357  1.0000
  C   C145      1.0  0.96635  0.24749  0.41415  1.0000
  C   C146      1.0  0.99055  0.24565  0.41323  1.0000
  C   C147      1.0  0.00347  0.25070  0.33369  1.0000
  C   C148      1.0  0.85174  0.11698  0.41102  1.0000
  C   C149      1.0  0.84726  0.08388  0.41626  1.0000
  C   C150      1.0  0.86101  0.06076  0.37067  1.0000
  C   C151      1.0  0.78834  0.25016  0.33305  1.0000
  C   C152      1.0  0.73934  0.24945  0.33314  1.0000
  C   C153      1.0  0.75184  0.23234  0.39887  1.0000
  C   C154      1.0  0.77613  0.23310  0.39966  1.0000
  C   C155      1.0  0.86941  0.37249  0.31384  1.0000
  C   C156      1.0  0.88458  0.39543  0.35346  1.0000
  C   C157      1.0  0.88072  0.42910  0.34642  1.0000
  C   C158      1.0  0.86111  0.44133  0.30086  1.0000
  H   H77       1.0  0.89069  0.44429  0.38405  1.0000
  H   H78       1.0  0.89732  0.38772  0.39577  1.0000
  H   H79       1.0  0.94624  0.31347  0.27903  1.0000
  H   H80       1.0  0.88533  0.27399  0.36171  1.0000
  H   H81       1.0  0.85687  0.22823  0.37365  1.0000
  H   H82       1.0  0.82575  0.35690  0.39319  1.0000
  H   H83       1.0  0.79595  0.31185  0.39668  1.0000
  H   H84       1.0  0.78484  0.22114  0.44911  1.0000
  H   H85       1.0  0.74341  0.22003  0.44839  1.0000
  H   H86       1.0  0.79814  0.19036  0.26378  1.0000
  H   H87       1.0  0.84079  0.13214  0.44455  1.0000
  H   H88       1.0  0.83297  0.07692  0.45194  1.0000
  H   H89       1.0  0.99837  0.24007  0.47229  1.0000
  H   H90       1.0  0.95766  0.24395  0.47301  1.0000
  C   C159      1.0  0.11894  0.16670  0.29270  1.0000
  C   C160      1.0  0.10251  0.19069  0.29596  1.0000
  C   C161      1.0  0.11330  0.21945  0.32138  1.0000
  N   N25       1.0  0.13567  0.21154  0.33587  1.0000
  C   C162      1.0  0.13999  0.17972  0.32040  1.0000
  C   C163      1.0  0.16120  0.16235  0.32708  1.0000
  N   N26       1.0  0.18604  0.21152  0.32877  1.0000
  C   C164      1.0  0.20814  0.21950  0.34775  1.0000
  C   C165      1.0  0.21904  0.19133  0.37611  1.0000
  C   C166      1.0  0.20292  0.16687  0.37357  1.0000
  C   C167      1.0  0.21890  0.24972  0.33380  1.0000
  C   C168      1.0  0.20703  0.27915  0.31931  1.0000
  N   N27       1.0  0.18497  0.28688  0.34080  1.0000
  C   C169      1.0  0.18063  0.31876  0.32841  1.0000
  C   C170      1.0  0.20087  0.33153  0.29140  1.0000
  C   C171      1.0  0.21714  0.30734  0.28673  1.0000
  N   N28       1.0  0.13502  0.28851  0.33525  1.0000
  C   C172      1.0  0.11258  0.28034  0.34597  1.0000
  C   C173      1.0  0.10210  0.24966  0.33356  1.0000
  C   C174      1.0  0.07763  0.24917  0.33365  1.0000
  C   C175      1.0  0.06543  0.25326  0.41420  1.0000
  C   C176      1.0  0.04123  0.25515  0.41321  1.0000
  C   C177      1.0  0.02833  0.25003  0.33370  1.0000
  C   C178      1.0  0.18006  0.38367  0.41122  1.0000
  C   C179      1.0  0.18453  0.41678  0.41646  1.0000
  C   C180      1.0  0.17079  0.43991  0.37094  1.0000
  C   C181      1.0  0.24348  0.25043  0.33297  1.0000
  C   C182      1.0  0.29247  0.25113  0.33309  1.0000
  C   C183      1.0  0.27996  0.26817  0.39897  1.0000
  C   C184      1.0  0.25567  0.26742  0.39973  1.0000
  C   C185      1.0  0.16237  0.12814  0.31376  1.0000
  C   C186      1.0  0.14723  0.10520  0.35359  1.0000
  C   C187      1.0  0.15103  0.07152  0.34636  1.0000
  C   C188      1.0  0.17067  0.05931  0.30089  1.0000
  H   H91       1.0  0.14115  0.05636  0.38442  1.0000
  H   H92       1.0  0.13450  0.11289  0.39605  1.0000
  H   H93       1.0  0.08552  0.18716  0.27976  1.0000
  H   H94       1.0  0.14651  0.22670  0.36131  1.0000
  H   H95       1.0  0.17493  0.27238  0.37354  1.0000
  H   H96       1.0  0.20604  0.14369  0.39278  1.0000
  H   H97       1.0  0.23586  0.18871  0.39623  1.0000
  H   H98       1.0  0.24695  0.27934  0.44924  1.0000
  H   H99       1.0  0.28839  0.28046  0.44852  1.0000
  H   H100      1.0  0.23372  0.31028  0.26405  1.0000
  H   H101      1.0  0.19100  0.36851  0.44475  1.0000
  H   H102      1.0  0.19880  0.42373  0.45226  1.0000
  H   H103      1.0  0.03339  0.26077  0.47223  1.0000
  H   H104      1.0  0.07410  0.25688  0.47302  1.0000
  C   C189      1.0  0.67943  0.72153  0.35763  1.0000
  N   N29       1.0  0.66776  0.74945  0.33577  1.0000
  C   C190      1.0  0.67933  0.77735  0.31288  1.0000
  N   N30       1.0  0.70283  0.77572  0.31157  1.0000
  C   C191      1.0  0.71501  0.74941  0.33382  1.0000
  N   N31       1.0  0.70292  0.72312  0.35709  1.0000
  C   C192      1.0  0.35236  0.77915  0.35742  1.0000
  N   N32       1.0  0.36405  0.75125  0.33549  1.0000
  C   C193      1.0  0.35250  0.72334  0.31245  1.0000
  N   N33       1.0  0.32901  0.72492  0.31133  1.0000
  C   C194      1.0  0.31680  0.75120  0.33370  1.0000
  N   N34       1.0  0.32887  0.77751  0.35696  1.0000
  C   C195      1.0  0.41287  0.58412  0.29208  1.0000
  C   C196      1.0  0.41850  0.53137  0.32075  1.0000
  C   C197      1.0  0.34969  0.57107  0.34175  1.0000
  C   C198      1.0  0.32480  0.97168  0.31842  1.0000
  C   C199      1.0  0.33101  0.91939  0.28976  1.0000
  C   C200      1.0  0.37165  0.91393  0.34519  1.0000
  C   C201      1.0  0.39313  0.93053  0.35013  1.0000
  N   N35       1.0  0.39680  0.96235  0.33467  1.0000
  C   C202      1.0  0.43066  0.94190  0.36790  1.0000
  C   C203      1.0  0.41450  0.91761  0.37378  1.0000
  C   C204      1.0  0.49071  0.50644  0.25411  1.0000
  C   C205      1.0  0.46647  0.50549  0.25308  1.0000
  C   C206      1.0  0.36997  0.87972  0.35758  1.0000
  C   C207      1.0  0.36095  0.81099  0.36994  1.0000
  C   C208      1.0  0.38103  0.82286  0.32671  1.0000
  C   C209      1.0  0.38518  0.85646  0.31969  1.0000
  C   C210      1.0  0.27583  0.01686  0.26601  1.0000
  C   C211      1.0  0.25153  0.01694  0.26719  1.0000
  C   C212      1.0  0.35181  0.63549  0.25810  1.0000
  C   C213      1.0  0.34764  0.66864  0.25264  1.0000
  H   H105      1.0  0.33373  0.67584  0.21524  1.0000
  H   H106      1.0  0.34106  0.62052  0.22299  1.0000
  H   H107      1.0  0.41621  0.60712  0.27198  1.0000
  H   H108      1.0  0.28432  0.02927  0.21682  1.0000
  H   H109      1.0  0.24289  0.02920  0.21815  1.0000
  H   H110      1.0  0.32820  0.89623  0.26951  1.0000
  H   H111      1.0  0.44784  0.93874  0.38145  1.0000
  H   H112      1.0  0.41818  0.89464  0.39321  1.0000
  H   H113      1.0  0.39827  0.86384  0.27847  1.0000
  H   H114      1.0  0.39120  0.80751  0.29043  1.0000
  H   H115      1.0  0.45788  0.50890  0.19400  1.0000
  H   H116      1.0  0.49868  0.51153  0.19498  1.0000
  C   C214      1.0  0.61900  0.91659  0.29153  1.0000
  C   C215      1.0  0.61334  0.96931  0.32040  1.0000
  C   C216      1.0  0.68212  0.92962  0.34182  1.0000
  C   C217      1.0  0.70702  0.52904  0.31875  1.0000
  C   C218      1.0  0.70083  0.58136  0.29033  1.0000
  C   C219      1.0  0.66013  0.58678  0.34537  1.0000
  C   C220      1.0  0.63866  0.57016  0.35024  1.0000
  N   N36       1.0  0.63501  0.53833  0.33473  1.0000
  C   C221      1.0  0.60113  0.55875  0.36791  1.0000
  C   C222      1.0  0.61727  0.58306  0.37373  1.0000
  C   C223      1.0  0.54112  0.99421  0.25406  1.0000
  C   C224      1.0  0.56536  0.99521  0.25296  1.0000
  C   C225      1.0  0.66180  0.62099  0.35783  1.0000
  C   C226      1.0  0.67081  0.68971  0.37020  1.0000
  C   C227      1.0  0.65072  0.67786  0.32703  1.0000
  C   C228      1.0  0.64662  0.64425  0.31978  1.0000
  C   C229      1.0  0.75598  0.48388  0.26580  1.0000
  C   C230      1.0  0.78028  0.48381  0.26687  1.0000
  C   C231      1.0  0.68005  0.86518  0.25830  1.0000
  C   C232      1.0  0.68422  0.83202  0.25295  1.0000
  H   H117      1.0  0.69815  0.82481  0.21561  1.0000
  H   H118      1.0  0.69082  0.88013  0.22319  1.0000
  H   H119      1.0  0.61568  0.89359  0.27135  1.0000
  H   H120      1.0  0.74748  0.47151  0.21657  1.0000
  H   H121      1.0  0.78892  0.47157  0.21779  1.0000
  H   H122      1.0  0.70363  0.60452  0.27002  1.0000
  H   H123      1.0  0.58392  0.56193  0.38090  1.0000
  H   H124      1.0  0.61356  0.60605  0.39288  1.0000
  H   H125      1.0  0.63357  0.63688  0.27842  1.0000
  H   H126      1.0  0.64065  0.69318  0.29031  1.0000
  H   H127      1.0  0.57395  0.99176  0.19389  1.0000
  H   H128      1.0  0.53315  0.98912  0.19494  1.0000
  C   C233      1.0  0.84968  0.82088  0.34239  1.0000
  C   C234      1.0  0.87168  0.66370  0.34600  1.0000
  C   C235      1.0  0.89316  0.68033  0.35077  1.0000
  C   C236      1.0  0.93069  0.69175  0.36816  1.0000
  C   C237      1.0  0.91456  0.66742  0.37407  1.0000
  C   C238      1.0  0.99069  0.75638  0.25418  1.0000
  C   C239      1.0  0.96646  0.75534  0.25313  1.0000
  C   C240      1.0  0.87002  0.62948  0.35840  1.0000
  C   C241      1.0  0.88107  0.57264  0.32733  1.0000
  C   C242      1.0  0.88523  0.60624  0.32037  1.0000
  C   C243      1.0  0.77589  0.76667  0.26610  1.0000
  C   C244      1.0  0.75159  0.76675  0.26704  1.0000
  C   C245      1.0  0.85177  0.88530  0.25868  1.0000
  C   C246      1.0  0.84760  0.91846  0.25325  1.0000
  H   H129      1.0  0.83371  0.92567  0.21573  1.0000
  H   H130      1.0  0.84100  0.87034  0.22360  1.0000
  H   H131      1.0  0.91614  0.85692  0.27184  1.0000
  H   H132      1.0  0.78441  0.77903  0.21692  1.0000
  H   H133      1.0  0.74297  0.77897  0.21786  1.0000
  H   H134      1.0  0.82822  0.64599  0.27055  1.0000
  H   H135      1.0  0.94791  0.68856  0.38091  1.0000
  H   H136      1.0  0.91828  0.64444  0.39317  1.0000
  H   H137      1.0  0.89824  0.61362  0.27882  1.0000
  H   H138      1.0  0.89117  0.55728  0.29076  1.0000
  H   H139      1.0  0.95786  0.75874  0.19406  1.0000
  H   H140      1.0  0.99866  0.76148  0.19505  1.0000
  C   C247      1.0  0.18211  0.67974  0.34219  1.0000
  C   C248      1.0  0.16015  0.83695  0.34606  1.0000
  C   C249      1.0  0.13867  0.82034  0.35065  1.0000
  C   C250      1.0  0.10112  0.80896  0.36791  1.0000
  C   C251      1.0  0.11726  0.83327  0.37376  1.0000
  C   C252      1.0  0.04113  0.74428  0.25424  1.0000
  C   C253      1.0  0.06536  0.74531  0.25321  1.0000
  C   C254      1.0  0.16181  0.87116  0.35845  1.0000
  C   C255      1.0  0.15080  0.92801  0.32726  1.0000
  C   C256      1.0  0.14666  0.89441  0.32019  1.0000
  C   C257      1.0  0.25595  0.73399  0.26590  1.0000
  C   C258      1.0  0.28024  0.73389  0.26686  1.0000
  C   C259      1.0  0.17997  0.61532  0.25843  1.0000
  C   C260      1.0  0.18417  0.58216  0.25314  1.0000
  H   H141      1.0  0.19807  0.57496  0.21565  1.0000
  H   H142      1.0  0.19075  0.63028  0.22333  1.0000
  H   H143      1.0  0.11561  0.64371  0.27244  1.0000
  H   H144      1.0  0.24743  0.72166  0.21665  1.0000
  H   H145      1.0  0.28887  0.72173  0.21759  1.0000
  H   H146      1.0  0.20366  0.85466  0.27091  1.0000
  H   H147      1.0  0.08389  0.81216  0.38062  1.0000
  H   H148      1.0  0.11354  0.85626  0.39292  1.0000
  H   H149      1.0  0.13364  0.88701  0.27869  1.0000
  H   H150      1.0  0.14068  0.94335  0.29076  1.0000
  H   H151      1.0  0.07398  0.74186  0.19418  1.0000
  H   H152      1.0  0.03317  0.73913  0.19514  1.0000
  C   C261      1.0  0.17941  0.97174  0.35858  1.0000
  N   N37       1.0  0.16774  0.49962  0.33629  1.0000
  C   C262      1.0  0.17931  0.52749  0.31304  1.0000
  N   N38       1.0  0.20280  0.52587  0.31179  1.0000
  C   C263      1.0  0.21499  0.49959  0.33425  1.0000
  N   N39       1.0  0.20290  0.97332  0.35780  1.0000
  C   C264      1.0  0.85240  0.52894  0.35822  1.0000
  N   N40       1.0  0.86407  0.00104  0.33610  1.0000
  C   C265      1.0  0.85250  0.97318  0.31288  1.0000
  N   N41       1.0  0.82900  0.97481  0.31159  1.0000
  C   C266      1.0  0.81682  0.00110  0.33395  1.0000
  N   N42       1.0  0.82890  0.52737  0.35745  1.0000
  C   C267      1.0  0.42930  0.56012  0.29529  1.0000
  N   N43       1.0  0.39613  0.53929  0.33535  1.0000
  C   C268      1.0  0.39181  0.57110  0.31980  1.0000
  C   C269      1.0  0.37061  0.58847  0.32665  1.0000
  N   N44       1.0  0.34577  0.53929  0.32819  1.0000
  C   C270      1.0  0.32368  0.53130  0.34725  1.0000
  C   C271      1.0  0.31279  0.55944  0.37596  1.0000
  C   C272      1.0  0.32889  0.58391  0.37325  1.0000
  C   C273      1.0  0.31291  0.50107  0.33342  1.0000
  N   N45       1.0  0.34694  0.96406  0.33910  1.0000
  C   C274      1.0  0.35121  0.93214  0.32703  1.0000
  C   C275      1.0  0.31471  0.94355  0.28542  1.0000
  C   C276      1.0  0.41922  0.97053  0.34590  1.0000
  C   C277      1.0  0.42971  0.50120  0.33336  1.0000
  C   C278      1.0  0.45417  0.50168  0.33351  1.0000
  C   C279      1.0  0.46635  0.99760  0.41408  1.0000
  C   C280      1.0  0.49056  0.99569  0.41314  1.0000
  C   C281      1.0  0.50348  0.50070  0.33360  1.0000
  C   C282      1.0  0.35165  0.86723  0.41004  1.0000
  C   C283      1.0  0.34716  0.83413  0.41525  1.0000
  C   C284      1.0  0.28833  0.50033  0.33278  1.0000
  C   C285      1.0  0.23932  0.49962  0.33336  1.0000
  C   C286      1.0  0.25187  0.48249  0.39890  1.0000
  C   C287      1.0  0.27617  0.48322  0.39941  1.0000
  C   C288      1.0  0.36943  0.62268  0.31334  1.0000
  C   C289      1.0  0.38458  0.64563  0.35305  1.0000
  C   C290      1.0  0.38078  0.67932  0.34578  1.0000
  C   C291      1.0  0.36111  0.69150  0.30044  1.0000
  H   H153      1.0  0.39066  0.69448  0.38378  1.0000
  H   H154      1.0  0.39732  0.63795  0.39543  1.0000
  H   H155      1.0  0.44631  0.56367  0.27940  1.0000
  H   H156      1.0  0.38530  0.52415  0.36098  1.0000
  H   H157      1.0  0.35679  0.97831  0.37346  1.0000
  H   H158      1.0  0.32579  0.60706  0.39284  1.0000
  H   H159      1.0  0.29598  0.56202  0.39631  1.0000
  H   H160      1.0  0.28491  0.47122  0.44869  1.0000
  H   H161      1.0  0.24347  0.47011  0.44838  1.0000
  H   H162      1.0  0.29812  0.94060  0.26300  1.0000
  H   H163      1.0  0.34067  0.88241  0.44342  1.0000
  H   H164      1.0  0.33286  0.82718  0.45090  1.0000
  H   H165      1.0  0.49837  0.99007  0.47219  1.0000
  H   H166      1.0  0.45767  0.99407  0.47293  1.0000
  C   C292      1.0  0.60257  0.94057  0.29480  1.0000
  N   N46       1.0  0.63573  0.96143  0.33485  1.0000
  C   C293      1.0  0.64003  0.92959  0.31960  1.0000
  C   C294      1.0  0.66122  0.91222  0.32664  1.0000
  N   N47       1.0  0.68604  0.96140  0.32825  1.0000
  C   C295      1.0  0.70814  0.96940  0.34725  1.0000
  C   C296      1.0  0.71903  0.94126  0.37591  1.0000
  C   C297      1.0  0.70293  0.91679  0.37333  1.0000
  C   C298      1.0  0.71890  0.99963  0.33340  1.0000
  N   N48       1.0  0.68490  0.53670  0.33958  1.0000
  C   C299      1.0  0.68059  0.56859  0.32737  1.0000
  C   C300      1.0  0.71711  0.55718  0.28578  1.0000
  C   C301      1.0  0.61258  0.53014  0.34577  1.0000
  C   C302      1.0  0.60211  0.99947  0.33320  1.0000
  C   C303      1.0  0.57765  0.99896  0.33340  1.0000
  C   C304      1.0  0.56547  0.50302  0.41399  1.0000
  C   C305      1.0  0.54126  0.50493  0.41310  1.0000
  C   C306      1.0  0.52835  0.99993  0.33358  1.0000
  C   C307      1.0  0.68007  0.63347  0.41046  1.0000
  C   C308      1.0  0.68457  0.66657  0.41565  1.0000
  C   C309      1.0  0.74348  0.00036  0.33269  1.0000
  C   C310      1.0  0.79248  0.00108  0.33310  1.0000
  C   C311      1.0  0.77994  0.01819  0.39875  1.0000
  C   C312      1.0  0.75564  0.01742  0.39938  1.0000
  C   C313      1.0  0.66240  0.87801  0.31341  1.0000
  C   C314      1.0  0.64723  0.85507  0.35314  1.0000
  C   C315      1.0  0.65104  0.82139  0.34596  1.0000
  C   C316      1.0  0.67071  0.80918  0.30071  1.0000
  H   H167      1.0  0.64108  0.80625  0.38383  1.0000
  H   H168      1.0  0.63444  0.86279  0.39525  1.0000
  H   H169      1.0  0.58558  0.93704  0.27860  1.0000
  H   H170      1.0  0.64647  0.97645  0.36154  1.0000
  H   H171      1.0  0.67499  0.52226  0.37315  1.0000
  H   H172      1.0  0.70604  0.89363  0.39278  1.0000
  H   H173      1.0  0.73584  0.93867  0.39616  1.0000
  H   H174      1.0  0.74691  0.02937  0.44878  1.0000
  H   H175      1.0  0.78834  0.03048  0.44835  1.0000
  H   H176      1.0  0.73371  0.56016  0.26347  1.0000
  H   H177      1.0  0.69102  0.61830  0.44395  1.0000
  H   H178      1.0  0.69885  0.67352  0.45134  1.0000
  H   H179      1.0  0.53345  0.51054  0.47217  1.0000
  H   H180      1.0  0.57415  0.50654  0.47284  1.0000
  C   C317      1.0  0.91282  0.83392  0.29204  1.0000
  C   C318      1.0  0.92925  0.80994  0.29531  1.0000
  C   C319      1.0  0.91847  0.78119  0.32088  1.0000
  N   N49       1.0  0.89609  0.78909  0.33541  1.0000
  C   C320      1.0  0.89178  0.82091  0.32008  1.0000
  C   C321      1.0  0.87059  0.83828  0.32710  1.0000
  N   N50       1.0  0.84577  0.78910  0.32892  1.0000
  C   C322      1.0  0.82369  0.78109  0.34813  1.0000
  C   C323      1.0  0.81277  0.80925  0.37654  1.0000
  C   C324      1.0  0.82887  0.83372  0.37389  1.0000
  C   C325      1.0  0.81292  0.75088  0.33393  1.0000
  C   C326      1.0  0.82480  0.72147  0.31924  1.0000
  N   N51       1.0  0.84686  0.71375  0.34077  1.0000
  C   C327      1.0  0.85121  0.68188  0.32821  1.0000
  C   C328      1.0  0.83099  0.66912  0.29109  1.0000
  C   C329      1.0  0.81471  0.69330  0.28648  1.0000
  N   N52       1.0  0.89680  0.71215  0.33521  1.0000
  C   C330      1.0  0.91923  0.72034  0.34602  1.0000
  C   C331      1.0  0.92970  0.75102  0.33345  1.0000
  C   C332      1.0  0.95416  0.75154  0.33357  1.0000
  C   C333      1.0  0.96635  0.74749  0.41415  1.0000
  C   C334      1.0  0.99055  0.74565  0.41323  1.0000
  C   C335      1.0  0.00347  0.75070  0.33369  1.0000
  C   C336      1.0  0.85174  0.61698  0.41102  1.0000
  C   C337      1.0  0.84726  0.58388  0.41626  1.0000
  C   C338      1.0  0.86101  0.56076  0.37067  1.0000
  C   C339      1.0  0.78834  0.75016  0.33305  1.0000
  C   C340      1.0  0.73934  0.74945  0.33314  1.0000
  C   C341      1.0  0.75184  0.73234  0.39887  1.0000
  C   C342      1.0  0.77613  0.73310  0.39966  1.0000
  C   C343      1.0  0.86941  0.87249  0.31384  1.0000
  C   C344      1.0  0.88458  0.89543  0.35346  1.0000
  C   C345      1.0  0.88072  0.92910  0.34642  1.0000
  C   C346      1.0  0.86111  0.94133  0.30086  1.0000
  H   H181      1.0  0.89069  0.94429  0.38405  1.0000
  H   H182      1.0  0.89732  0.88772  0.39577  1.0000
  H   H183      1.0  0.94624  0.81347  0.27903  1.0000
  H   H184      1.0  0.88533  0.77399  0.36171  1.0000
  H   H185      1.0  0.85687  0.72823  0.37365  1.0000
  H   H186      1.0  0.82575  0.85690  0.39319  1.0000
  H   H187      1.0  0.79595  0.81185  0.39668  1.0000
  H   H188      1.0  0.78484  0.72115  0.44911  1.0000
  H   H189      1.0  0.74341  0.72003  0.44839  1.0000
  H   H190      1.0  0.79814  0.69036  0.26378  1.0000
  H   H191      1.0  0.84079  0.63214  0.44455  1.0000
  H   H192      1.0  0.83297  0.57692  0.45194  1.0000
  H   H193      1.0  0.99837  0.74007  0.47229  1.0000
  H   H194      1.0  0.95766  0.74395  0.47301  1.0000
  C   C347      1.0  0.11894  0.66670  0.29270  1.0000
  C   C348      1.0  0.10251  0.69069  0.29596  1.0000
  C   C349      1.0  0.11330  0.71945  0.32138  1.0000
  N   N53       1.0  0.13567  0.71154  0.33587  1.0000
  C   C350      1.0  0.13999  0.67972  0.32040  1.0000
  C   C351      1.0  0.16120  0.66235  0.32708  1.0000
  N   N54       1.0  0.18604  0.71152  0.32877  1.0000
  C   C352      1.0  0.20814  0.71950  0.34775  1.0000
  C   C353      1.0  0.21904  0.69132  0.37611  1.0000
  C   C354      1.0  0.20292  0.66687  0.37357  1.0000
  C   C355      1.0  0.21890  0.74972  0.33380  1.0000
  C   C356      1.0  0.20703  0.77915  0.31931  1.0000
  N   N55       1.0  0.18497  0.78688  0.34080  1.0000
  C   C357      1.0  0.18063  0.81876  0.32841  1.0000
  C   C358      1.0  0.20087  0.83153  0.29140  1.0000
  C   C359      1.0  0.21714  0.80734  0.28673  1.0000
  N   N56       1.0  0.13502  0.78851  0.33525  1.0000
  C   C360      1.0  0.11258  0.78034  0.34597  1.0000
  C   C361      1.0  0.10210  0.74966  0.33356  1.0000
  C   C362      1.0  0.07763  0.74917  0.33365  1.0000
  C   C363      1.0  0.06543  0.75326  0.41420  1.0000
  C   C364      1.0  0.04123  0.75515  0.41321  1.0000
  C   C365      1.0  0.02833  0.75003  0.33370  1.0000
  C   C366      1.0  0.18006  0.88367  0.41122  1.0000
  C   C367      1.0  0.18453  0.91678  0.41646  1.0000
  C   C368      1.0  0.17079  0.93991  0.37094  1.0000
  C   C369      1.0  0.24348  0.75043  0.33297  1.0000
  C   C370      1.0  0.29247  0.75113  0.33309  1.0000
  C   C371      1.0  0.27996  0.76817  0.39897  1.0000
  C   C372      1.0  0.25567  0.76742  0.39973  1.0000
  C   C373      1.0  0.16237  0.62814  0.31376  1.0000
  C   C374      1.0  0.14723  0.60520  0.35359  1.0000
  C   C375      1.0  0.15103  0.57152  0.34636  1.0000
  C   C376      1.0  0.17067  0.55931  0.30089  1.0000
  H   H195      1.0  0.14115  0.55636  0.38442  1.0000
  H   H196      1.0  0.13450  0.61289  0.39605  1.0000
  H   H197      1.0  0.08552  0.68716  0.27976  1.0000
  H   H198      1.0  0.14651  0.72670  0.36131  1.0000
  H   H199      1.0  0.17493  0.77238  0.37354  1.0000
  H   H200      1.0  0.20604  0.64369  0.39278  1.0000
  H   H201      1.0  0.23585  0.68871  0.39623  1.0000
  H   H202      1.0  0.24695  0.77934  0.44924  1.0000
  H   H203      1.0  0.28839  0.78046  0.44852  1.0000
  H   H204      1.0  0.23372  0.81028  0.26405  1.0000
  H   H205      1.0  0.19100  0.86851  0.44475  1.0000
  H   H206      1.0  0.19880  0.92373  0.45226  1.0000
  H   H207      1.0  0.03339  0.76078  0.47223  1.0000
  H   H208      1.0  0.07410  0.75688  0.47302  1.0000
