data_image0
_chemical_formula_structural       C4N2O4C4N2O4C4N2O4C2H2C2H2C2H2C2H2C2H2C2H2NC18H12NC18H12NC18H12NC18H12NC18H12NC18H12C2H2C2H2C2H2C4N2O4C4N2O4C4N2O4C4N2O4C4N2O4C4N2O4
_chemical_formula_sum              "C162 N24 O36 H90"
_cell_length_a       52.7503
_cell_length_b       52.7504
_cell_length_c       14.9261
_cell_angle_alpha    90
_cell_angle_beta     90
_cell_angle_gamma    120

_space_group_name_H-M_alt    "P 1"
_space_group_IT_number       1

loop_
  _space_group_symop_operation_xyz
  'x, y, z'

loop_
  _atom_site_type_symbol
  _atom_site_label
  _atom_site_symmetry_multiplicity
  _atom_site_fract_x
  _atom_site_fract_y
  _atom_site_fract_z
  _atom_site_occupancy
  C   C1        1.0  0.97176  0.48639  0.31355  1.0000
  C   C2        1.0  0.03564  0.51863  0.31370  1.0000
  C   C3        1.0  0.01934  0.51094  0.23174  1.0000
  C   C4        1.0  0.98809  0.49404  0.23167  1.0000
  N   N1        1.0  0.03238  0.52186  0.14674  1.0000
  N   N2        1.0  0.97512  0.48295  0.14671  1.0000
  O   O1        1.0  0.03905  0.50586  0.10213  1.0000
  O   O2        1.0  0.96842  0.49884  0.10163  1.0000
  O   O3        1.0  0.05055  0.54875  0.14077  1.0000
  O   O4        1.0  0.95699  0.45605  0.14110  1.0000
  C   C5        1.0  0.51979  0.48661  0.31354  1.0000
  C   C6        1.0  0.48755  0.51824  0.31376  1.0000
  C   C7        1.0  0.49523  0.50964  0.23179  1.0000
  C   C8        1.0  0.51214  0.49529  0.23169  1.0000
  N   N3        1.0  0.48431  0.51176  0.14680  1.0000
  N   N4        1.0  0.52321  0.49340  0.14670  1.0000
  O   O5        1.0  0.50030  0.53443  0.10218  1.0000
  O   O6        1.0  0.50731  0.47081  0.10165  1.0000
  O   O7        1.0  0.45742  0.50304  0.14087  1.0000
  O   O8        1.0  0.55011  0.50217  0.14105  1.0000
  C   C9        1.0  0.51956  0.03443  0.31361  1.0000
  C   C10       1.0  0.48793  0.97055  0.31381  1.0000
  C   C11       1.0  0.49649  0.98684  0.23185  1.0000
  C   C12       1.0  0.51083  0.01809  0.23175  1.0000
  N   N5        1.0  0.49445  0.97381  0.14688  1.0000
  N   N6        1.0  0.51280  0.03107  0.14676  1.0000
  O   O9        1.0  0.47181  0.96711  0.10210  1.0000
  O   O10       1.0  0.53540  0.03773  0.10177  1.0000
  O   O11       1.0  0.50322  0.95568  0.14103  1.0000
  O   O12       1.0  0.50406  0.04922  0.14101  1.0000
  C   C13       1.0  0.26353  0.55543  0.28388  1.0000
  C   C14       1.0  0.28918  0.55412  0.27134  1.0000
  H   H1        1.0  0.29596  0.55421  0.20695  1.0000
  H   H2        1.0  0.25320  0.55698  0.22779  1.0000
  C   C15       1.0  0.45087  0.70941  0.28398  1.0000
  C   C16       1.0  0.45219  0.73638  0.27144  1.0000
  H   H3        1.0  0.45212  0.74308  0.20704  1.0000
  H   H4        1.0  0.44934  0.69754  0.22789  1.0000
  C   C17       1.0  0.29687  0.74263  0.28370  1.0000
  C   C18       1.0  0.26991  0.71697  0.27112  1.0000
  H   H5        1.0  0.26322  0.71020  0.20672  1.0000
  H   H6        1.0  0.30875  0.75298  0.22762  1.0000
  C   C19       1.0  0.74385  0.44951  0.28262  1.0000
  C   C20       1.0  0.71818  0.45079  0.27008  1.0000
  H   H7        1.0  0.71132  0.45055  0.20569  1.0000
  H   H8        1.0  0.75410  0.44782  0.22656  1.0000
  C   C21       1.0  0.55660  0.29552  0.28264  1.0000
  C   C22       1.0  0.55532  0.26857  0.27012  1.0000
  H   H9        1.0  0.55557  0.26197  0.20573  1.0000
  H   H10       1.0  0.55829  0.30747  0.22658  1.0000
  C   C23       1.0  0.71066  0.26231  0.28274  1.0000
  C   C24       1.0  0.73762  0.28797  0.27024  1.0000
  H   H11       1.0  0.74424  0.29483  0.20586  1.0000
  H   H12       1.0  0.69872  0.25205  0.22666  1.0000
  N   N7        1.0  0.16207  0.58265  0.33674  1.0000
  C   C25       1.0  0.17925  0.61334  0.31592  1.0000
  C   C26       1.0  0.13076  0.56682  0.33143  1.0000
  C   C27       1.0  0.17856  0.56898  0.36435  1.0000
  C   C28       1.0  0.20055  0.58266  0.43053  1.0000
  C   C29       1.0  0.22459  0.57795  0.43320  1.0000
  C   C30       1.0  0.22612  0.55710  0.37713  1.0000
  C   C31       1.0  0.20207  0.54077  0.31916  1.0000
  C   C32       1.0  0.17934  0.54726  0.31087  1.0000
  C   C33       1.0  0.17726  0.63458  0.36845  1.0000
  C   C34       1.0  0.20015  0.66388  0.37052  1.0000
  C   C35       1.0  0.22698  0.67254  0.32637  1.0000
  C   C36       1.0  0.22782  0.65201  0.26690  1.0000
  C   C37       1.0  0.20398  0.62328  0.25928  1.0000
  C   C38       1.0  0.11321  0.57036  0.39606  1.0000
  C   C39       1.0  0.08243  0.55552  0.38841  1.0000
  C   C40       1.0  0.06738  0.53471  0.31955  1.0000
  C   C41       1.0  0.08527  0.52990  0.25903  1.0000
  C   C42       1.0  0.11607  0.54653  0.26194  1.0000
  H   H13       1.0  0.19778  0.67830  0.41025  1.0000
  H   H14       1.0  0.16015  0.62868  0.41112  1.0000
  H   H15       1.0  0.20676  0.60850  0.22233  1.0000
  H   H16       1.0  0.24672  0.65703  0.23354  1.0000
  H   H17       1.0  0.20189  0.59978  0.46658  1.0000
  H   H18       1.0  0.24226  0.59213  0.47042  1.0000
  H   H19       1.0  0.12270  0.58391  0.44955  1.0000
  H   H20       1.0  0.07107  0.56014  0.43490  1.0000
  H   H21       1.0  0.07615  0.51384  0.21196  1.0000
  H   H22       1.0  0.12766  0.54336  0.21288  1.0000
  H   H23       1.0  0.16479  0.53752  0.25999  1.0000
  H   H24       1.0  0.20221  0.52574  0.27609  1.0000
  N   N8        1.0  0.42353  0.58066  0.33700  1.0000
  C   C43       1.0  0.39284  0.56713  0.31620  1.0000
  C   C44       1.0  0.43936  0.56518  0.33162  1.0000
  C   C45       1.0  0.43723  0.61083  0.36442  1.0000
  C   C46       1.0  0.42350  0.61917  0.43037  1.0000
  C   C47       1.0  0.42829  0.64793  0.43338  1.0000
  C   C48       1.0  0.44915  0.67031  0.37728  1.0000
  C   C49       1.0  0.46543  0.66255  0.31921  1.0000
  C   C50       1.0  0.45897  0.63333  0.31102  1.0000
  C   C51       1.0  0.37161  0.54392  0.36882  1.0000
  C   C52       1.0  0.34232  0.53755  0.37101  1.0000
  C   C53       1.0  0.33363  0.55565  0.32664  1.0000
  C   C54       1.0  0.35415  0.57700  0.26712  1.0000
  C   C55       1.0  0.38288  0.58190  0.25951  1.0000
  C   C56       1.0  0.43584  0.54409  0.39624  1.0000
  C   C57       1.0  0.45067  0.52814  0.38855  1.0000
  C   C58       1.0  0.47147  0.53391  0.31964  1.0000
  C   C59       1.0  0.47626  0.55660  0.25914  1.0000
  C   C60       1.0  0.45963  0.57077  0.26210  1.0000
  H   H25       1.0  0.32789  0.52072  0.41062  1.0000
  H   H26       1.0  0.37752  0.53272  0.41151  1.0000
  H   H27       1.0  0.39765  0.59944  0.22251  1.0000
  H   H28       1.0  0.34911  0.59085  0.23366  1.0000
  H   H29       1.0  0.40648  0.60340  0.46681  1.0000
  H   H30       1.0  0.41416  0.65145  0.47073  1.0000
  H   H31       1.0  0.42229  0.54002  0.44976  1.0000
  H   H32       1.0  0.44606  0.51217  0.43504  1.0000
  H   H33       1.0  0.49232  0.56354  0.21204  1.0000
  H   H34       1.0  0.46280  0.58553  0.21305  1.0000
  H   H35       1.0  0.46866  0.62853  0.25999  1.0000
  H   H36       1.0  0.48046  0.67771  0.27610  1.0000
  N   N9        1.0  0.42555  0.84411  0.33695  1.0000
  C   C61       1.0  0.43909  0.82694  0.31623  1.0000
  C   C62       1.0  0.44102  0.87542  0.33161  1.0000
  C   C63       1.0  0.39536  0.82760  0.36425  1.0000
  C   C64       1.0  0.38704  0.80559  0.43033  1.0000
  C   C65       1.0  0.35830  0.78159  0.43313  1.0000
  C   C66       1.0  0.33592  0.78005  0.37703  1.0000
  C   C67       1.0  0.34368  0.80408  0.31890  1.0000
  C   C68       1.0  0.37289  0.82685  0.31070  1.0000
  C   C69       1.0  0.46231  0.82897  0.36892  1.0000
  C   C70       1.0  0.46869  0.80607  0.37112  1.0000
  C   C71       1.0  0.45060  0.77926  0.32672  1.0000
  C   C72       1.0  0.42928  0.77844  0.26707  1.0000
  C   C73       1.0  0.42436  0.80226  0.25942  1.0000
  C   C74       1.0  0.46207  0.89298  0.39630  1.0000
  C   C75       1.0  0.47801  0.92376  0.38863  1.0000
  C   C76       1.0  0.47228  0.93880  0.31968  1.0000
  C   C77       1.0  0.44961  0.92090  0.25909  1.0000
  C   C78       1.0  0.43545  0.89010  0.26202  1.0000
  H   H37       1.0  0.48552  0.80846  0.41077  1.0000
  H   H38       1.0  0.47348  0.84608  0.41163  1.0000
  H   H39       1.0  0.40683  0.79949  0.22235  1.0000
  H   H40       1.0  0.41545  0.75955  0.23358  1.0000
  H   H41       1.0  0.40282  0.80438  0.46690  1.0000
  H   H42       1.0  0.35475  0.76398  0.47079  1.0000
  H   H43       1.0  0.46612  0.88350  0.44986  1.0000
  H   H44       1.0  0.49397  0.93512  0.43518  1.0000
  H   H45       1.0  0.44268  0.93001  0.21194  1.0000
  H   H46       1.0  0.42071  0.87851  0.21291  1.0000
  H   H47       1.0  0.37772  0.84133  0.25960  1.0000
  H   H48       1.0  0.32854  0.80394  0.27565  1.0000
  N   N10       1.0  0.84531  0.42235  0.33601  1.0000
  C   C79       1.0  0.82812  0.39166  0.31519  1.0000
  C   C80       1.0  0.87663  0.43819  0.33082  1.0000
  C   C81       1.0  0.82882  0.43604  0.36328  1.0000
  C   C82       1.0  0.80683  0.42242  0.42946  1.0000
  C   C83       1.0  0.78286  0.42722  0.43224  1.0000
  C   C84       1.0  0.78134  0.44803  0.37590  1.0000
  C   C85       1.0  0.80536  0.46425  0.31768  1.0000
  C   C86       1.0  0.82807  0.45772  0.30950  1.0000
  C   C87       1.0  0.83023  0.37047  0.36762  1.0000
  C   C88       1.0  0.80739  0.34114  0.36969  1.0000
  C   C89       1.0  0.78054  0.33240  0.32562  1.0000
  C   C90       1.0  0.77961  0.35291  0.26625  1.0000
  C   C91       1.0  0.80340  0.38166  0.25847  1.0000
  C   C92       1.0  0.89415  0.43474  0.39576  1.0000
  C   C93       1.0  0.92493  0.44957  0.38828  1.0000
  C   C94       1.0  0.94001  0.47030  0.31924  1.0000
  C   C95       1.0  0.92214  0.47503  0.25839  1.0000
  C   C96       1.0  0.89135  0.45839  0.26117  1.0000
  H   H49       1.0  0.80987  0.32675  0.40925  1.0000
  H   H50       1.0  0.84737  0.37643  0.41021  1.0000
  H   H51       1.0  0.80059  0.39645  0.22175  1.0000
  H   H52       1.0  0.76069  0.34784  0.23297  1.0000
  H   H53       1.0  0.80561  0.40546  0.46614  1.0000
  H   H54       1.0  0.76526  0.41322  0.47002  1.0000
  H   H55       1.0  0.88463  0.42124  0.44937  1.0000
  H   H56       1.0  0.93627  0.44502  0.43502  1.0000
  H   H57       1.0  0.93129  0.49104  0.21117  1.0000
  H   H58       1.0  0.87978  0.46152  0.21194  1.0000
  H   H59       1.0  0.84253  0.46730  0.25830  1.0000
  H   H60       1.0  0.80517  0.47916  0.27418  1.0000
  N   N11       1.0  0.58383  0.42419  0.33590  1.0000
  C   C97       1.0  0.61451  0.43768  0.31502  1.0000
  C   C98       1.0  0.56799  0.43968  0.33073  1.0000
  C   C99       1.0  0.57015  0.39402  0.36326  1.0000
  C   C100      1.0  0.58377  0.38563  0.42937  1.0000
  C   C101      1.0  0.57896  0.35686  0.43219  1.0000
  C   C102      1.0  0.55814  0.33454  0.37589  1.0000
  C   C103      1.0  0.54194  0.34235  0.31766  1.0000
  C   C104      1.0  0.54845  0.37158  0.30954  1.0000
  C   C105      1.0  0.63572  0.46102  0.36734  1.0000
  C   C106      1.0  0.66504  0.46747  0.36947  1.0000
  C   C107      1.0  0.67377  0.44935  0.32540  1.0000
  C   C108      1.0  0.65325  0.42792  0.26605  1.0000
  C   C109      1.0  0.62450  0.42296  0.25831  1.0000
  C   C110      1.0  0.57146  0.46065  0.39566  1.0000
  C   C111      1.0  0.55663  0.47660  0.38821  1.0000
  C   C112      1.0  0.53588  0.47095  0.31921  1.0000
  C   C113      1.0  0.53115  0.44835  0.25835  1.0000
  C   C114      1.0  0.54778  0.43419  0.26112  1.0000
  H   H61       1.0  0.67943  0.48433  0.40905  1.0000
  H   H62       1.0  0.62977  0.47216  0.41013  1.0000
  H   H63       1.0  0.60970  0.40535  0.22163  1.0000
  H   H64       1.0  0.65831  0.41405  0.23279  1.0000
  H   H65       1.0  0.60076  0.40138  0.46601  1.0000
  H   H66       1.0  0.59296  0.35326  0.46995  1.0000
  H   H67       1.0  0.58496  0.46464  0.44925  1.0000
  H   H68       1.0  0.56119  0.49250  0.43494  1.0000
  H   H69       1.0  0.51512  0.44148  0.21118  1.0000
  H   H70       1.0  0.54464  0.41948  0.21190  1.0000
  H   H71       1.0  0.53885  0.37646  0.25839  1.0000
  H   H72       1.0  0.52698  0.32725  0.27428  1.0000
  N   N12       1.0  0.58198  0.16087  0.33605  1.0000
  C   C115      1.0  0.56849  0.17806  0.31514  1.0000
  C   C116      1.0  0.56650  0.12956  0.33085  1.0000
  C   C117      1.0  0.61216  0.17737  0.36335  1.0000
  C   C118      1.0  0.62053  0.19935  0.42957  1.0000
  C   C119      1.0  0.64929  0.22333  0.43225  1.0000
  C   C120      1.0  0.67163  0.22484  0.37596  1.0000
  C   C121      1.0  0.66381  0.20084  0.31769  1.0000
  C   C122      1.0  0.63459  0.17808  0.30965  1.0000
  C   C123      1.0  0.54514  0.17593  0.36743  1.0000
  C   C124      1.0  0.53867  0.19878  0.36951  1.0000
  C   C125      1.0  0.55681  0.22564  0.32546  1.0000
  C   C126      1.0  0.57824  0.22656  0.26610  1.0000
  C   C127      1.0  0.58321  0.20277  0.25842  1.0000
  C   C128      1.0  0.54552  0.11204  0.39579  1.0000
  C   C129      1.0  0.52957  0.08126  0.38831  1.0000
  C   C130      1.0  0.53523  0.06617  0.31931  1.0000
  C   C131      1.0  0.55782  0.08404  0.25845  1.0000
  C   C132      1.0  0.57198  0.11483  0.26121  1.0000
  H   H73       1.0  0.52183  0.19633  0.40914  1.0000
  H   H74       1.0  0.53401  0.15884  0.41025  1.0000
  H   H75       1.0  0.60083  0.20560  0.22177  1.0000
  H   H76       1.0  0.59211  0.24549  0.23292  1.0000
  H   H77       1.0  0.60474  0.20056  0.46601  1.0000
  H   H78       1.0  0.65289  0.24094  0.46998  1.0000
  H   H79       1.0  0.54154  0.12156  0.44938  1.0000
  H   H80       1.0  0.51367  0.06992  0.43503  1.0000
  H   H81       1.0  0.56469  0.07489  0.21123  1.0000
  H   H82       1.0  0.58668  0.12640  0.21198  1.0000
  H   H83       1.0  0.62970  0.16361  0.25849  1.0000
  H   H84       1.0  0.67893  0.20096  0.27443  1.0000
  C   C133      1.0  0.98832  0.49525  0.39372  1.0000
  C   C134      1.0  0.01903  0.50987  0.39379  1.0000
  H   H85       1.0  0.02920  0.51425  0.45485  1.0000
  H   H86       1.0  0.97813  0.49092  0.45472  1.0000
  C   C135      1.0  0.51096  0.49433  0.39373  1.0000
  C   C136      1.0  0.49632  0.51040  0.39383  1.0000
  H   H87       1.0  0.49196  0.51620  0.45490  1.0000
  H   H88       1.0  0.51529  0.48845  0.45472  1.0000
  C   C137      1.0  0.51185  0.01787  0.39379  1.0000
  C   C138      1.0  0.49577  0.98716  0.39389  1.0000
  H   H89       1.0  0.48999  0.97700  0.45496  1.0000
  H   H90       1.0  0.51774  0.02807  0.45478  1.0000
  C   C139      1.0  0.25235  0.55517  0.37034  1.0000
  C   C140      1.0  0.30597  0.55383  0.34465  1.0000
  C   C141      1.0  0.29544  0.55421  0.43278  1.0000
  C   C142      1.0  0.26848  0.55390  0.44540  1.0000
  N   N13       1.0  0.31188  0.55808  0.51211  1.0000
  N   N14       1.0  0.25801  0.54994  0.53497  1.0000
  O   O13       1.0  0.33774  0.57914  0.51120  1.0000
  O   O14       1.0  0.23180  0.53038  0.54638  1.0000
  O   O15       1.0  0.31011  0.53512  0.54277  1.0000
  O   O16       1.0  0.26423  0.57311  0.57582  1.0000
  C   C143      1.0  0.45110  0.69848  0.37045  1.0000
  C   C144      1.0  0.45242  0.75342  0.34474  1.0000
  C   C145      1.0  0.45199  0.74250  0.43287  1.0000
  C   C146      1.0  0.45231  0.71586  0.44551  1.0000
  N   N15       1.0  0.44816  0.75510  0.51219  1.0000
  N   N16       1.0  0.45630  0.70937  0.53509  1.0000
  O   O17       1.0  0.42712  0.75993  0.51130  1.0000
  O   O18       1.0  0.47586  0.70271  0.54652  1.0000
  O   O19       1.0  0.47114  0.77627  0.54283  1.0000
  O   O20       1.0  0.43314  0.69245  0.57603  1.0000
  C   C147      1.0  0.30775  0.75382  0.37017  1.0000
  C   C148      1.0  0.25284  0.70019  0.34441  1.0000
  C   C149      1.0  0.26372  0.71071  0.43256  1.0000
  C   C150      1.0  0.29036  0.73768  0.44521  1.0000
  N   N17       1.0  0.25108  0.69429  0.51187  1.0000
  N   N18       1.0  0.29680  0.74817  0.53477  1.0000
  O   O21       1.0  0.24623  0.66842  0.51109  1.0000
  O   O22       1.0  0.30347  0.77439  0.54610  1.0000
  O   O23       1.0  0.22992  0.69613  0.54240  1.0000
  O   O24       1.0  0.31371  0.74193  0.57586  1.0000
  C   C151      1.0  0.75514  0.45000  0.36906  1.0000
  C   C152      1.0  0.70148  0.45126  0.34338  1.0000
  C   C153      1.0  0.71217  0.45118  0.43150  1.0000
  C   C154      1.0  0.73914  0.45152  0.44409  1.0000
  N   N19       1.0  0.69587  0.44756  0.51098  1.0000
  N   N20       1.0  0.74977  0.45577  0.53353  1.0000
  O   O25       1.0  0.67000  0.42652  0.51077  1.0000
  O   O26       1.0  0.77601  0.47536  0.54427  1.0000
  O   O27       1.0  0.69777  0.47063  0.54117  1.0000
  O   O28       1.0  0.74365  0.43273  0.57501  1.0000
  C   C155      1.0  0.55613  0.30634  0.36908  1.0000
  C   C156      1.0  0.55489  0.25144  0.34344  1.0000
  C   C157      1.0  0.55499  0.26221  0.43156  1.0000
  C   C158      1.0  0.55465  0.28885  0.44413  1.0000
  N   N21       1.0  0.55863  0.24955  0.51104  1.0000
  N   N22       1.0  0.55041  0.29524  0.53356  1.0000
  O   O29       1.0  0.57967  0.24471  0.51078  1.0000
  O   O30       1.0  0.53083  0.30190  0.54433  1.0000
  O   O31       1.0  0.53557  0.22838  0.54127  1.0000
  O   O32       1.0  0.57347  0.31217  0.57502  1.0000
  C   C159      1.0  0.69982  0.25103  0.36916  1.0000
  C   C160      1.0  0.75474  0.30468  0.34357  1.0000
  C   C161      1.0  0.74392  0.29403  0.43169  1.0000
  C   C162      1.0  0.71729  0.26706  0.44423  1.0000
  N   N23       1.0  0.75663  0.31032  0.51116  1.0000
  N   N24       1.0  0.71090  0.25642  0.53366  1.0000
  O   O33       1.0  0.76150  0.33620  0.51098  1.0000
  O   O34       1.0  0.70427  0.23019  0.54441  1.0000
  O   O35       1.0  0.77778  0.30838  0.54129  1.0000
  O   O36       1.0  0.69397  0.26253  0.57513  1.0000
