data_image0
_chemical_formula_structural       HNHNC3HCH3CHC3HCH3CHC2H3C2H3C3HCH3CHC3HCH3CHC2H3C2H3C2HCH4C2HCH4C6HOC6OH5N4C6HOC6OH5N4C6HOC6OH5N4C6HOC6OH4N3C6HOC6OH4N3C3H2CHC3H2CHC4HCH3CHC5HCH3CHC4H2CHC3H2CHC4HCH3CHC5HCH3CHC5H2C2HC4H2C2H
_chemical_formula_sum              "H110 N20 C150 O10"
_cell_length_a       32.9164
_cell_length_b       41.1947
_cell_length_c       14.8344
_cell_angle_alpha    88.6234
_cell_angle_beta     91.0779
_cell_angle_gamma    90.2964

_space_group_name_H-M_alt    "P 1"
_space_group_IT_number       1

loop_
  _space_group_symop_operation_xyz
  'x, y, z'

loop_
  _atom_site_type_symbol
  _atom_site_label
  _atom_site_symmetry_multiplicity
  _atom_site_fract_x
  _atom_site_fract_y
  _atom_site_fract_z
  _atom_site_occupancy
  H   H1        1.0  0.79084  0.36908  0.38740  1.0000
  N   N1        1.0  0.85880  0.34503  0.34660  1.0000
  H   H2        1.0  0.15887  0.67820  0.38732  1.0000
  N   N2        1.0  0.09022  0.70297  0.34654  1.0000
  C   C1        1.0  0.15944  0.19174  0.37473  1.0000
  C   C2        1.0  0.17560  0.16071  0.35878  1.0000
  C   C3        1.0  0.15079  0.13234  0.35482  1.0000
  H   H3        1.0  0.20623  0.15883  0.34929  1.0000
  C   C4        1.0  0.17079  0.10086  0.33701  1.0000
  H   H4        1.0  0.20344  0.10331  0.32679  1.0000
  H   H5        1.0  0.15758  0.09036  0.27623  1.0000
  H   H6        1.0  0.16660  0.08411  0.39418  1.0000
  C   C5        1.0  0.18434  0.21985  0.37593  1.0000
  H   H7        1.0  0.21483  0.21862  0.36459  1.0000
  C   C6        1.0  0.79004  0.85574  0.37501  1.0000
  C   C7        1.0  0.77361  0.88704  0.35895  1.0000
  C   C8        1.0  0.79835  0.91547  0.35493  1.0000
  H   H8        1.0  0.74282  0.88908  0.34941  1.0000
  C   C9        1.0  0.77806  0.94725  0.33699  1.0000
  H   H9        1.0  0.74523  0.94497  0.32672  1.0000
  H   H10       1.0  0.79026  0.95877  0.27620  1.0000
  H   H11       1.0  0.78318  0.96304  0.39412  1.0000
  C   C10       1.0  0.76515  0.82761  0.37629  1.0000
  H   H12       1.0  0.73448  0.82903  0.36471  1.0000
  C   C11       1.0  0.81107  0.14833  0.27396  1.0000
  C   C12       1.0  0.79510  0.17966  0.28218  1.0000
  H   H13       1.0  0.81590  0.14020  0.21034  1.0000
  H   H14       1.0  0.78782  0.19278  0.22469  1.0000
  H   H15       1.0  0.83299  0.08756  0.27601  1.0000
  C   C13       1.0  0.13688  0.90094  0.27399  1.0000
  C   C14       1.0  0.15300  0.86947  0.28220  1.0000
  H   H16       1.0  0.13104  0.91019  0.21036  1.0000
  H   H17       1.0  0.15939  0.85735  0.22472  1.0000
  H   H18       1.0  0.11495  0.96161  0.27613  1.0000
  C   C15       1.0  0.25455  0.49241  0.33094  1.0000
  C   C16       1.0  0.24719  0.51764  0.26670  1.0000
  C   C17       1.0  0.24820  0.55075  0.29073  1.0000
  H   H19       1.0  0.24303  0.51180  0.20041  1.0000
  C   C18       1.0  0.24198  0.57615  0.21859  1.0000
  H   H20       1.0  0.23776  0.56599  0.15172  1.0000
  H   H21       1.0  0.26843  0.59219  0.21607  1.0000
  H   H22       1.0  0.21510  0.59048  0.23247  1.0000
  C   C19       1.0  0.25238  0.45966  0.30630  1.0000
  H   H23       1.0  0.23698  0.45347  0.24856  1.0000
  C   C20       1.0  0.69418  0.55584  0.33098  1.0000
  C   C21       1.0  0.70045  0.53171  0.26672  1.0000
  C   C22       1.0  0.69986  0.49819  0.29074  1.0000
  H   H24       1.0  0.70355  0.53870  0.20046  1.0000
  C   C23       1.0  0.70489  0.47404  0.21860  1.0000
  H   H25       1.0  0.70798  0.48535  0.15173  1.0000
  H   H26       1.0  0.67841  0.45803  0.21605  1.0000
  H   H27       1.0  0.73201  0.45948  0.23248  1.0000
  C   C24       1.0  0.69596  0.58901  0.30636  1.0000
  H   H28       1.0  0.71040  0.59619  0.24864  1.0000
  C   C25       1.0  0.96611  0.35023  0.27246  1.0000
  C   C26       1.0  0.00749  0.35207  0.29845  1.0000
  H   H29       1.0  0.95934  0.35033  0.20476  1.0000
  H   H30       1.0  0.02889  0.35224  0.24926  1.0000
  H   H31       1.0  0.89169  0.33297  0.23857  1.0000
  C   C27       1.0  0.98166  0.69905  0.27240  1.0000
  C   C28       1.0  0.94072  0.69673  0.29840  1.0000
  H   H32       1.0  0.98729  0.70014  0.20470  1.0000
  H   H33       1.0  0.91853  0.69745  0.24914  1.0000
  H   H34       1.0  0.05551  0.71690  0.23853  1.0000
  C   C29       1.0  0.46317  0.34112  0.27579  1.0000
  C   C30       1.0  0.50560  0.33866  0.29499  1.0000
  H   H35       1.0  0.45348  0.34320  0.20988  1.0000
  C   C31       1.0  0.53408  0.33947  0.21813  1.0000
  H   H36       1.0  0.51844  0.33946  0.15254  1.0000
  H   H37       1.0  0.55352  0.31809  0.22206  1.0000
  H   H38       1.0  0.55293  0.36131  0.22045  1.0000
  H   H39       1.0  0.38706  0.35967  0.26030  1.0000
  C   C32       1.0  0.48467  0.70807  0.27580  1.0000
  C   C33       1.0  0.44255  0.71021  0.29496  1.0000
  H   H40       1.0  0.49325  0.70710  0.20989  1.0000
  C   C34       1.0  0.41279  0.71071  0.21810  1.0000
  H   H41       1.0  0.42732  0.71184  0.15252  1.0000
  H   H42       1.0  0.39341  0.73202  0.22202  1.0000
  H   H43       1.0  0.39398  0.68883  0.22042  1.0000
  H   H44       1.0  0.56049  0.68976  0.26032  1.0000
  C   C35       1.0  0.95301  0.02427  0.39420  1.0000
  C   C36       1.0  0.92863  0.99624  0.37912  1.0000
  C   C37       1.0  0.88593  0.99724  0.36636  1.0000
  C   C38       1.0  0.86654  0.02773  0.36263  1.0000
  C   C39       1.0  0.88887  0.05630  0.38187  1.0000
  C   C40       1.0  0.93087  0.05372  0.40222  1.0000
  H   H45       1.0  0.94216  0.97443  0.37177  1.0000
  O   O1        1.0  0.82542  0.02879  0.34978  1.0000
  C   C41       1.0  0.99678  0.02287  0.39424  1.0000
  C   C42       1.0  0.01905  0.99329  0.40223  1.0000
  C   C43       1.0  0.06072  0.99106  0.38192  1.0000
  C   C44       1.0  0.08271  0.01996  0.36265  1.0000
  C   C45       1.0  0.06340  0.05038  0.36640  1.0000
  C   C46       1.0  0.02091  0.05117  0.37922  1.0000
  O   O2        1.0  0.12362  0.01912  0.34978  1.0000
  H   H46       1.0  0.00726  0.07310  0.37168  1.0000
  H   H47       1.0  0.81353  0.02904  0.41012  1.0000
  H   H48       1.0  0.13653  0.01781  0.41011  1.0000
  H   H49       1.0  0.94563  0.07468  0.41848  1.0000
  H   H50       1.0  0.00457  0.97206  0.41856  1.0000
  N   N3        1.0  0.08731  0.07738  0.36077  1.0000
  N   N4        1.0  0.07753  0.96094  0.38273  1.0000
  N   N5        1.0  0.87206  0.08640  0.38267  1.0000
  N   N6        1.0  0.86193  0.97034  0.36081  1.0000
  C   C47       1.0  0.20706  0.33388  0.35849  1.0000
  C   C48       1.0  0.20618  0.29936  0.37005  1.0000
  C   C49       1.0  0.16987  0.28177  0.38424  1.0000
  C   C50       1.0  0.13275  0.29830  0.39161  1.0000
  C   C51       1.0  0.13085  0.33214  0.37450  1.0000
  C   C52       1.0  0.16756  0.34872  0.35436  1.0000
  H   H51       1.0  0.23189  0.28595  0.36485  1.0000
  O   O3        1.0  0.09785  0.28055  0.40156  1.0000
  C   C53       1.0  0.24495  0.35187  0.35189  1.0000
  C   C54       1.0  0.28449  0.33795  0.36802  1.0000
  C   C55       1.0  0.32143  0.35583  0.36131  1.0000
  C   C56       1.0  0.31882  0.39003  0.35201  1.0000
  C   C57       1.0  0.28095  0.40524  0.33855  1.0000
  C   C58       1.0  0.24544  0.38599  0.33289  1.0000
  O   O4        1.0  0.35282  0.40903  0.35794  1.0000
  H   H52       1.0  0.21916  0.39845  0.32264  1.0000
  H   H53       1.0  0.08694  0.27677  0.34043  1.0000
  H   H54       1.0  0.35889  0.41134  0.42266  1.0000
  H   H55       1.0  0.16445  0.37303  0.34333  1.0000
  H   H56       1.0  0.28747  0.31374  0.38187  1.0000
  N   N7        1.0  0.27967  0.43812  0.34069  1.0000
  N   N8        1.0  0.35852  0.34100  0.37020  1.0000
  N   N9        1.0  0.09428  0.34785  0.36835  1.0000
  N   N10       1.0  0.16684  0.24912  0.38363  1.0000
  C   C59       1.0  0.74216  0.71390  0.35851  1.0000
  C   C60       1.0  0.74323  0.74821  0.37015  1.0000
  C   C61       1.0  0.77978  0.76555  0.38438  1.0000
  C   C62       1.0  0.81703  0.74889  0.39170  1.0000
  C   C63       1.0  0.81864  0.71535  0.37448  1.0000
  C   C64       1.0  0.78159  0.69913  0.35431  1.0000
  H   H57       1.0  0.71744  0.76171  0.36503  1.0000
  O   O5        1.0  0.85210  0.76647  0.40168  1.0000
  C   C65       1.0  0.70416  0.69601  0.35190  1.0000
  C   C66       1.0  0.66489  0.70966  0.36800  1.0000
  C   C67       1.0  0.62784  0.69190  0.36129  1.0000
  C   C68       1.0  0.63029  0.65786  0.35201  1.0000
  C   C69       1.0  0.66793  0.64288  0.33857  1.0000
  C   C70       1.0  0.70336  0.66222  0.33293  1.0000
  O   O6        1.0  0.59639  0.63875  0.35792  1.0000
  H   H58       1.0  0.72946  0.64994  0.32273  1.0000
  H   H59       1.0  0.86197  0.77133  0.34055  1.0000
  H   H60       1.0  0.59141  0.63533  0.42264  1.0000
  H   H61       1.0  0.78452  0.67501  0.34318  1.0000
  H   H62       1.0  0.66214  0.73363  0.38182  1.0000
  N   N11       1.0  0.66925  0.60996  0.34071  1.0000
  N   N12       1.0  0.59089  0.70658  0.37016  1.0000
  N   N13       1.0  0.85511  0.69976  0.36830  1.0000
  N   N14       1.0  0.78280  0.79822  0.38390  1.0000
  C   C71       1.0  0.74717  0.33078  0.37141  1.0000
  C   C72       1.0  0.74797  0.29648  0.36065  1.0000
  C   C73       1.0  0.78253  0.28002  0.32986  1.0000
  C   C74       1.0  0.81785  0.29785  0.30722  1.0000
  C   C75       1.0  0.82177  0.33012  0.33705  1.0000
  C   C76       1.0  0.78671  0.34560  0.36946  1.0000
  H   H63       1.0  0.72289  0.28267  0.37354  1.0000
  O   O7        1.0  0.85170  0.28123  0.28418  1.0000
  C   C77       1.0  0.70969  0.34842  0.38341  1.0000
  C   C78       1.0  0.66985  0.33444  0.37192  1.0000
  C   C79       1.0  0.63312  0.35212  0.37999  1.0000
  C   C80       1.0  0.63610  0.38625  0.38724  1.0000
  C   C81       1.0  0.67426  0.40153  0.39567  1.0000
  C   C82       1.0  0.70981  0.38247  0.39917  1.0000
  O   O8        1.0  0.60228  0.40528  0.38119  1.0000
  H   H64       1.0  0.73634  0.39505  0.40366  1.0000
  H   H65       1.0  0.84872  0.27720  0.21932  1.0000
  H   H66       1.0  0.59651  0.40900  0.31644  1.0000
  H   H67       1.0  0.66661  0.31040  0.35876  1.0000
  N   N15       1.0  0.67552  0.43440  0.38820  1.0000
  N   N16       1.0  0.59580  0.33754  0.37049  1.0000
  N   N17       1.0  0.78655  0.24728  0.33007  1.0000
  C   C83       1.0  0.20228  0.71678  0.37137  1.0000
  C   C84       1.0  0.20131  0.75125  0.36063  1.0000
  C   C85       1.0  0.16623  0.76825  0.32984  1.0000
  C   C86       1.0  0.13053  0.75082  0.30718  1.0000
  C   C87       1.0  0.12710  0.71803  0.33700  1.0000
  C   C88       1.0  0.16270  0.70199  0.36941  1.0000
  H   H68       1.0  0.22661  0.76484  0.37353  1.0000
  O   O9        1.0  0.09629  0.76785  0.28414  1.0000
  C   C89       1.0  0.23996  0.69892  0.38338  1.0000
  C   C90       1.0  0.27960  0.71309  0.37189  1.0000
  C   C91       1.0  0.31647  0.69528  0.37996  1.0000
  C   C92       1.0  0.31360  0.66102  0.38722  1.0000
  C   C93       1.0  0.27559  0.64559  0.39565  1.0000
  C   C94       1.0  0.24010  0.66460  0.39915  1.0000
  O   O10       1.0  0.34733  0.64209  0.38117  1.0000
  H   H69       1.0  0.21364  0.65194  0.40365  1.0000
  H   H70       1.0  0.09819  0.77299  0.21928  1.0000
  H   H71       1.0  0.35200  0.63949  0.31644  1.0000
  H   H72       1.0  0.28263  0.73736  0.35873  1.0000
  N   N18       1.0  0.27419  0.61286  0.38819  1.0000
  N   N19       1.0  0.35364  0.71002  0.37047  1.0000
  N   N20       1.0  0.16223  0.80100  0.33005  1.0000
  C   C95       1.0  0.10791  0.13499  0.36719  1.0000
  C   C96       1.0  0.09209  0.16622  0.38293  1.0000
  C   C97       1.0  0.11707  0.19371  0.38710  1.0000
  H   H73       1.0  0.06165  0.16956  0.39271  1.0000
  H   H74       1.0  0.10344  0.21534  0.39936  1.0000
  C   C98       1.0  0.07900  0.10934  0.36721  1.0000
  H   H75       1.0  0.04939  0.11516  0.37829  1.0000
  C   C99       1.0  0.84144  0.91262  0.36738  1.0000
  C   C100      1.0  0.85752  0.88113  0.38326  1.0000
  C   C101      1.0  0.83261  0.85356  0.38748  1.0000
  H   H76       1.0  0.88812  0.87762  0.39307  1.0000
  H   H77       1.0  0.84645  0.83173  0.39986  1.0000
  C   C102      1.0  0.87034  0.93827  0.36733  1.0000
  H   H78       1.0  0.90013  0.93226  0.37842  1.0000
  C   C103      1.0  0.78581  0.19166  0.36762  1.0000
  C   C104      1.0  0.79538  0.17202  0.44454  1.0000
  C   C105      1.0  0.81617  0.14205  0.43800  1.0000
  C   C106      1.0  0.82337  0.12952  0.35080  1.0000
  H   H79       1.0  0.78947  0.18079  0.50697  1.0000
  C   C107      1.0  0.82650  0.12339  0.52255  1.0000
  H   H80       1.0  0.81605  0.13520  0.58296  1.0000
  H   H81       1.0  0.85939  0.12081  0.52927  1.0000
  H   H82       1.0  0.81248  0.09933  0.52094  1.0000
  C   C108      1.0  0.76848  0.22267  0.37601  1.0000
  H   H83       1.0  0.75515  0.22835  0.43537  1.0000
  C   C109      1.0  0.83941  0.09836  0.33619  1.0000
  C   C110      1.0  0.16360  0.85595  0.36766  1.0000
  C   C111      1.0  0.15519  0.87421  0.44459  1.0000
  C   C112      1.0  0.13427  0.90429  0.43802  1.0000
  C   C113      1.0  0.12575  0.91838  0.35082  1.0000
  H   H84       1.0  0.16204  0.86433  0.50703  1.0000
  C   C114      1.0  0.12520  0.92142  0.52259  1.0000
  H   H85       1.0  0.13659  0.90854  0.58303  1.0000
  H   H86       1.0  0.09241  0.92386  0.52907  1.0000
  H   H87       1.0  0.13916  0.94552  0.52121  1.0000
  C   C115      1.0  0.18107  0.82479  0.37604  1.0000
  H   H88       1.0  0.19534  0.81807  0.43545  1.0000
  C   C116      1.0  0.10938  0.94977  0.33621  1.0000
  C   C117      1.0  0.25125  0.55845  0.38394  1.0000
  C   C118      1.0  0.25595  0.53296  0.44876  1.0000
  C   C119      1.0  0.26046  0.50066  0.42213  1.0000
  H   H89       1.0  0.25815  0.53786  0.51606  1.0000
  H   H90       1.0  0.26407  0.48291  0.47109  1.0000
  C   C120      1.0  0.24638  0.59042  0.41335  1.0000
  H   H91       1.0  0.23328  0.59436  0.47421  1.0000
  C   C121      1.0  0.69837  0.48888  0.38394  1.0000
  C   C122      1.0  0.69475  0.51325  0.44877  1.0000
  C   C123      1.0  0.68975  0.54600  0.42215  1.0000
  H   H92       1.0  0.69370  0.50719  0.51606  1.0000
  H   H93       1.0  0.68704  0.56292  0.47111  1.0000
  C   C124      1.0  0.70376  0.45641  0.41336  1.0000
  H   H94       1.0  0.71788  0.45142  0.47422  1.0000
  C   C125      1.0  0.01938  0.34833  0.38991  1.0000
  C   C126      1.0  0.98803  0.34650  0.45404  1.0000
  C   C127      1.0  0.94604  0.34745  0.42959  1.0000
  C   C128      1.0  0.93446  0.34767  0.33621  1.0000
  H   H95       1.0  0.99613  0.34378  0.52081  1.0000
  C   C129      1.0  0.91586  0.34439  0.50294  1.0000
  H   H96       1.0  0.92988  0.34405  0.57027  1.0000
  H   H97       1.0  0.89856  0.32188  0.49626  1.0000
  H   H98       1.0  0.89514  0.36498  0.49902  1.0000
  C   C130      1.0  0.06014  0.34184  0.41676  1.0000
  H   H99       1.0  0.06455  0.33056  0.47850  1.0000
  C   C131      1.0  0.89441  0.34141  0.30281  1.0000
  C   C132      1.0  0.93038  0.69889  0.38987  1.0000
  C   C133      1.0  0.96281  0.69962  0.45399  1.0000
  C   C134      1.0  0.00439  0.69908  0.42953  1.0000
  C   C135      1.0  0.01439  0.70050  0.33615  1.0000
  H   H100      1.0  0.95584  0.70117  0.52077  1.0000
  C   C136      1.0  0.03580  0.70088  0.50289  1.0000
  H   H101      1.0  0.02291  0.70005  0.57022  1.0000
  H   H102      1.0  0.05298  0.72352  0.49622  1.0000
  H   H103      1.0  0.05647  0.68037  0.49895  1.0000
  C   C137      1.0  0.89007  0.70493  0.41672  1.0000
  H   H104      1.0  0.88670  0.71512  0.47847  1.0000
  C   C138      1.0  0.05387  0.70734  0.30276  1.0000
  C   C139      1.0  0.43347  0.34106  0.34386  1.0000
  C   C140      1.0  0.51968  0.33939  0.38656  1.0000
  C   C141      1.0  0.48967  0.33911  0.45440  1.0000
  C   C142      1.0  0.44762  0.33810  0.43397  1.0000
  H   H105      1.0  0.49827  0.33981  0.52106  1.0000
  H   H106      1.0  0.42763  0.33930  0.48580  1.0000
  C   C143      1.0  0.39236  0.34839  0.32173  1.0000
  C   C144      1.0  0.56083  0.34498  0.41359  1.0000
  H   H107      1.0  0.56522  0.35574  0.47468  1.0000
  C   C145      1.0  0.51550  0.70697  0.34389  1.0000
  C   C146      1.0  0.43002  0.70790  0.38654  1.0000
  C   C147      1.0  0.46117  0.70703  0.45438  1.0000
  C   C148      1.0  0.50288  0.70845  0.43399  1.0000
  H   H108      1.0  0.45369  0.70517  0.52103  1.0000
  H   H109      1.0  0.52372  0.70628  0.48584  1.0000
  C   C149      1.0  0.55623  0.70001  0.32172  1.0000
  C   C150      1.0  0.38932  0.70183  0.41356  1.0000
  H   H110      1.0  0.38597  0.69002  0.47465  1.0000
