data_image0
_chemical_formula_structural       C2NCHC2NCHC2NCHC2NCHC2NCHC2NCHCNHCNHCNHCNHCNHCNHC2NCHC2NCHC2NCHC2NCHC2NCHC2NCHC6H3C6H3C6H3C6H3C6H3C6H3C6H3C6H3C6H3C6H3C6H3C6H3CNHCNHCNHCNHCNHCNHC2NCHC2NCHC2NCHC2NCHC2NCHC2NCHCNHCNHCNHCNHCNHCNH
_chemical_formula_sum              "C144 N36 H72"
_cell_length_a       39.3272
_cell_length_b       39.3271
_cell_length_c       14.7917
_cell_angle_alpha    90
_cell_angle_beta     90
_cell_angle_gamma    120

_space_group_name_H-M_alt    "P 1"
_space_group_IT_number       1

loop_
  _space_group_symop_operation_xyz
  'x, y, z'

loop_
  _atom_site_type_symbol
  _atom_site_label
  _atom_site_symmetry_multiplicity
  _atom_site_fract_x
  _atom_site_fract_y
  _atom_site_fract_z
  _atom_site_occupancy
  C   C1        1.0  0.20130  0.45962  0.34609  1.0000
  C   C2        1.0  0.22028  0.45969  0.26502  1.0000
  N   N1        1.0  0.25518  0.46039  0.26940  1.0000
  C   C3        1.0  0.27243  0.45966  0.34857  1.0000
  H   H1        1.0  0.20940  0.46135  0.20347  1.0000
  C   C4        1.0  0.57670  0.76392  0.34612  1.0000
  C   C5        1.0  0.57665  0.78284  0.26504  1.0000
  N   N2        1.0  0.57595  0.81703  0.26941  1.0000
  C   C6        1.0  0.57668  0.83502  0.34858  1.0000
  H   H2        1.0  0.57499  0.77029  0.20349  1.0000
  C   C7        1.0  0.27242  0.83503  0.34611  1.0000
  C   C8        1.0  0.25349  0.81607  0.26503  1.0000
  N   N3        1.0  0.21928  0.78119  0.26943  1.0000
  C   C9        1.0  0.20126  0.76392  0.34857  1.0000
  H   H3        1.0  0.26604  0.82696  0.20348  1.0000
  C   C10       1.0  0.83237  0.57949  0.34609  1.0000
  C   C11       1.0  0.81336  0.57940  0.26503  1.0000
  N   N4        1.0  0.77847  0.57870  0.26940  1.0000
  C   C12       1.0  0.76120  0.57944  0.34854  1.0000
  H   H4        1.0  0.82424  0.57773  0.20348  1.0000
  C   C13       1.0  0.45689  0.27515  0.34605  1.0000
  C   C14       1.0  0.45697  0.25624  0.26497  1.0000
  N   N5        1.0  0.45767  0.22204  0.26935  1.0000
  C   C15       1.0  0.45694  0.20404  0.34849  1.0000
  H   H5        1.0  0.45863  0.26879  0.20343  1.0000
  C   C16       1.0  0.76119  0.20403  0.34607  1.0000
  C   C17       1.0  0.78012  0.22301  0.26501  1.0000
  N   N6        1.0  0.81432  0.25790  0.26940  1.0000
  C   C18       1.0  0.83232  0.27516  0.34855  1.0000
  H   H6        1.0  0.76757  0.21213  0.20345  1.0000
  C   C19       1.0  0.15106  0.60303  0.26484  1.0000
  N   N7        1.0  0.15034  0.56818  0.26985  1.0000
  H   H7        1.0  0.14933  0.61373  0.20311  1.0000
  C   C20       1.0  0.43334  0.57028  0.26485  1.0000
  N   N8        1.0  0.46818  0.60440  0.26986  1.0000
  H   H8        1.0  0.42262  0.55783  0.20312  1.0000
  C   C21       1.0  0.46606  0.88530  0.26483  1.0000
  N   N9        1.0  0.43194  0.88602  0.26983  1.0000
  H   H9        1.0  0.47851  0.88704  0.20310  1.0000
  C   C22       1.0  0.88253  0.43605  0.26480  1.0000
  N   N10       1.0  0.88326  0.47090  0.26982  1.0000
  H   H10       1.0  0.88426  0.42534  0.20306  1.0000
  C   C23       1.0  0.60030  0.46877  0.26486  1.0000
  N   N11       1.0  0.56545  0.43466  0.26986  1.0000
  H   H11       1.0  0.61101  0.48121  0.20312  1.0000
  C   C24       1.0  0.56757  0.15379  0.26478  1.0000
  N   N12       1.0  0.60169  0.15307  0.26978  1.0000
  H   H12       1.0  0.55514  0.15209  0.20305  1.0000
  C   C25       1.0  0.05797  0.41118  0.34598  1.0000
  C   C26       1.0  0.03605  0.39990  0.26494  1.0000
  N   N13       1.0  0.99620  0.38119  0.26946  1.0000
  C   C27       1.0  0.97566  0.37006  0.34834  1.0000
  H   H13       1.0  0.04950  0.40918  0.20354  1.0000
  C   C28       1.0  0.62519  0.66907  0.34597  1.0000
  C   C29       1.0  0.63647  0.65844  0.26493  1.0000
  N   N14       1.0  0.65518  0.63730  0.26944  1.0000
  C   C30       1.0  0.66631  0.62788  0.34833  1.0000
  H   H14       1.0  0.62719  0.66260  0.20353  1.0000
  C   C31       1.0  0.36727  0.97836  0.34596  1.0000
  C   C32       1.0  0.37803  0.00033  0.26500  1.0000
  N   N15       1.0  0.39915  0.04018  0.26969  1.0000
  C   C33       1.0  0.40843  0.06071  0.34862  1.0000
  H   H15       1.0  0.37398  0.98693  0.20357  1.0000
  C   C34       1.0  0.97569  0.62790  0.34608  1.0000
  C   C35       1.0  0.99757  0.63911  0.26498  1.0000
  N   N16       1.0  0.03742  0.65783  0.26947  1.0000
  C   C36       1.0  0.05793  0.66900  0.34840  1.0000
  H   H16       1.0  0.98411  0.62978  0.20361  1.0000
  C   C37       1.0  0.40844  0.37004  0.34609  1.0000
  C   C38       1.0  0.39719  0.38065  0.26497  1.0000
  N   N17       1.0  0.37847  0.40178  0.26945  1.0000
  C   C39       1.0  0.36729  0.41117  0.34832  1.0000
  H   H17       1.0  0.40650  0.37649  0.20360  1.0000
  C   C40       1.0  0.66636  0.06071  0.34608  1.0000
  C   C41       1.0  0.65568  0.03879  0.26503  1.0000
  N   N18       1.0  0.63455  0.99894  0.26947  1.0000
  C   C42       1.0  0.62517  0.97837  0.34832  1.0000
  H   H18       1.0  0.65982  0.05224  0.20364  1.0000
  C   C43       1.0  0.14454  0.51260  0.34916  1.0000
  C   C44       1.0  0.10567  0.48080  0.34841  1.0000
  C   C45       1.0  0.09775  0.44157  0.34690  1.0000
  C   C46       1.0  0.12961  0.43437  0.34603  1.0000
  C   C47       1.0  0.16888  0.46596  0.34691  1.0000
  C   C48       1.0  0.17598  0.50497  0.34851  1.0000
  H   H19       1.0  0.12418  0.40606  0.34484  1.0000
  H   H20       1.0  0.20426  0.52804  0.34885  1.0000
  H   H21       1.0  0.08279  0.48634  0.34870  1.0000
  C   C49       1.0  0.52376  0.65420  0.34916  1.0000
  C   C50       1.0  0.55556  0.64713  0.34839  1.0000
  C   C51       1.0  0.59479  0.67845  0.34689  1.0000
  C   C52       1.0  0.60197  0.71750  0.34603  1.0000
  C   C53       1.0  0.57038  0.72517  0.34692  1.0000
  C   C54       1.0  0.53138  0.69326  0.34852  1.0000
  H   H22       1.0  0.63029  0.74040  0.34484  1.0000
  H   H23       1.0  0.50830  0.69846  0.34888  1.0000
  H   H24       1.0  0.55004  0.61872  0.34868  1.0000
  C   C55       1.0  0.38214  0.89181  0.34911  1.0000
  C   C56       1.0  0.38921  0.93068  0.34834  1.0000
  C   C57       1.0  0.35789  0.93859  0.34684  1.0000
  C   C58       1.0  0.31884  0.90672  0.34603  1.0000
  C   C59       1.0  0.31117  0.86745  0.34690  1.0000
  C   C60       1.0  0.34307  0.86036  0.34849  1.0000
  H   H25       1.0  0.29594  0.91214  0.34486  1.0000
  H   H26       1.0  0.33788  0.83209  0.34885  1.0000
  H   H27       1.0  0.41762  0.95356  0.34861  1.0000
  C   C61       1.0  0.88909  0.52649  0.34914  1.0000
  C   C62       1.0  0.92796  0.55828  0.34842  1.0000
  C   C63       1.0  0.93590  0.59751  0.34692  1.0000
  C   C64       1.0  0.90404  0.60472  0.34607  1.0000
  C   C65       1.0  0.86477  0.57314  0.34690  1.0000
  C   C66       1.0  0.85766  0.53413  0.34847  1.0000
  H   H28       1.0  0.90948  0.63304  0.34490  1.0000
  H   H29       1.0  0.82938  0.51106  0.34879  1.0000
  H   H30       1.0  0.95084  0.55273  0.34872  1.0000
  C   C67       1.0  0.50986  0.38487  0.34916  1.0000
  C   C68       1.0  0.47807  0.39195  0.34845  1.0000
  C   C69       1.0  0.43884  0.36064  0.34694  1.0000
  C   C70       1.0  0.43164  0.32158  0.34605  1.0000
  C   C71       1.0  0.46322  0.31390  0.34689  1.0000
  C   C72       1.0  0.50223  0.34580  0.34847  1.0000
  H   H31       1.0  0.40332  0.29869  0.34486  1.0000
  H   H32       1.0  0.52530  0.34060  0.34880  1.0000
  H   H33       1.0  0.48360  0.42037  0.34876  1.0000
  C   C73       1.0  0.65146  0.14725  0.34914  1.0000
  C   C74       1.0  0.64441  0.10838  0.34843  1.0000
  C   C75       1.0  0.67572  0.10048  0.34694  1.0000
  C   C76       1.0  0.71478  0.13235  0.34607  1.0000
  C   C77       1.0  0.72244  0.17161  0.34690  1.0000
  C   C78       1.0  0.69053  0.17870  0.34846  1.0000
  H   H34       1.0  0.73767  0.12693  0.34490  1.0000
  H   H35       1.0  0.69572  0.20697  0.34878  1.0000
  H   H36       1.0  0.61599  0.08549  0.34873  1.0000
  C   C79       1.0  0.50987  0.14724  0.34586  1.0000
  C   C80       1.0  0.47805  0.10837  0.34654  1.0000
  C   C81       1.0  0.43883  0.10047  0.34785  1.0000
  C   C82       1.0  0.43165  0.13235  0.34855  1.0000
  C   C83       1.0  0.46326  0.17161  0.34780  1.0000
  C   C84       1.0  0.50225  0.17869  0.34642  1.0000
  H   H37       1.0  0.40334  0.12694  0.34957  1.0000
  H   H38       1.0  0.52534  0.20696  0.34612  1.0000
  H   H39       1.0  0.48357  0.08548  0.34632  1.0000
  C   C85       1.0  0.65148  0.52646  0.34592  1.0000
  C   C86       1.0  0.64440  0.55826  0.34650  1.0000
  C   C87       1.0  0.67571  0.59749  0.34778  1.0000
  C   C88       1.0  0.71477  0.60470  0.34849  1.0000
  C   C89       1.0  0.72245  0.57311  0.34786  1.0000
  C   C90       1.0  0.69055  0.53410  0.34654  1.0000
  H   H40       1.0  0.73766  0.63302  0.34943  1.0000
  H   H41       1.0  0.69575  0.51103  0.34630  1.0000
  H   H42       1.0  0.61598  0.55273  0.34620  1.0000
  C   C91       1.0  0.88907  0.38488  0.34591  1.0000
  C   C92       1.0  0.92794  0.39196  0.34650  1.0000
  C   C93       1.0  0.93587  0.36066  0.34780  1.0000
  C   C94       1.0  0.90402  0.32159  0.34851  1.0000
  C   C95       1.0  0.86474  0.31391  0.34788  1.0000
  C   C96       1.0  0.85764  0.34581  0.34653  1.0000
  H   H43       1.0  0.90944  0.29870  0.34947  1.0000
  H   H44       1.0  0.82936  0.34060  0.34628  1.0000
  H   H45       1.0  0.95083  0.42038  0.34619  1.0000
  C   C97       1.0  0.52374  0.89181  0.34589  1.0000
  C   C98       1.0  0.55555  0.93068  0.34646  1.0000
  C   C99       1.0  0.59477  0.93859  0.34776  1.0000
  C   C100      1.0  0.60196  0.90672  0.34849  1.0000
  C   C101      1.0  0.57036  0.86745  0.34785  1.0000
  C   C102      1.0  0.53136  0.86036  0.34653  1.0000
  H   H46       1.0  0.63028  0.91214  0.34945  1.0000
  H   H47       1.0  0.50828  0.83209  0.34631  1.0000
  H   H48       1.0  0.55002  0.95356  0.34616  1.0000
  C   C103      1.0  0.38216  0.51260  0.34589  1.0000
  C   C104      1.0  0.38922  0.48079  0.34646  1.0000
  C   C105      1.0  0.35790  0.44156  0.34775  1.0000
  C   C106      1.0  0.31885  0.43437  0.34848  1.0000
  C   C107      1.0  0.31118  0.46597  0.34786  1.0000
  C   C108      1.0  0.34309  0.50498  0.34653  1.0000
  H   H49       1.0  0.29595  0.40606  0.34944  1.0000
  H   H50       1.0  0.33790  0.52806  0.34632  1.0000
  H   H51       1.0  0.41764  0.48631  0.34617  1.0000
  C   C109      1.0  0.14453  0.65419  0.34587  1.0000
  C   C110      1.0  0.10566  0.64711  0.34646  1.0000
  C   C111      1.0  0.09773  0.67841  0.34776  1.0000
  C   C112      1.0  0.12958  0.71748  0.34849  1.0000
  C   C113      1.0  0.16885  0.72517  0.34784  1.0000
  C   C114      1.0  0.17596  0.69327  0.34651  1.0000
  H   H52       1.0  0.12415  0.74036  0.34947  1.0000
  H   H53       1.0  0.20424  0.69847  0.34628  1.0000
  H   H54       1.0  0.08278  0.61869  0.34619  1.0000
  C   C115      1.0  0.25356  0.45980  0.42965  1.0000
  N   N19       1.0  0.21935  0.46048  0.42525  1.0000
  H   H55       1.0  0.26613  0.46155  0.49121  1.0000
  C   C116      1.0  0.57655  0.81602  0.42967  1.0000
  N   N20       1.0  0.57587  0.78113  0.42529  1.0000
  H   H56       1.0  0.57481  0.82686  0.49122  1.0000
  C   C117      1.0  0.22032  0.78278  0.42964  1.0000
  N   N21       1.0  0.25521  0.81698  0.42527  1.0000
  H   H57       1.0  0.20949  0.77020  0.49119  1.0000
  C   C118      1.0  0.78008  0.57930  0.42962  1.0000
  N   N22       1.0  0.81429  0.57863  0.42523  1.0000
  H   H58       1.0  0.76750  0.57754  0.49118  1.0000
  C   C119      1.0  0.45708  0.22306  0.42957  1.0000
  N   N23       1.0  0.45775  0.25794  0.42519  1.0000
  H   H59       1.0  0.45884  0.21224  0.49113  1.0000
  C   C120      1.0  0.81328  0.25629  0.42963  1.0000
  N   N24       1.0  0.77839  0.22209  0.42523  1.0000
  H   H60       1.0  0.82411  0.26887  0.49119  1.0000
  C   C121      1.0  0.15108  0.55127  0.34949  1.0000
  C   C122      1.0  0.15110  0.57031  0.43036  1.0000
  N   N25       1.0  0.15037  0.60443  0.42535  1.0000
  C   C123      1.0  0.15106  0.62205  0.34572  1.0000
  H   H61       1.0  0.14940  0.55787  0.49208  1.0000
  C   C124      1.0  0.48509  0.62205  0.34949  1.0000
  C   C125      1.0  0.46605  0.60304  0.43037  1.0000
  N   N26       1.0  0.43194  0.56820  0.42537  1.0000
  C   C126      1.0  0.41431  0.55126  0.34574  1.0000
  H   H62       1.0  0.47849  0.61379  0.49209  1.0000
  C   C127      1.0  0.41429  0.88528  0.34945  1.0000
  C   C128      1.0  0.43329  0.88525  0.43034  1.0000
  N   N27       1.0  0.46814  0.88598  0.42535  1.0000
  C   C129      1.0  0.48508  0.88530  0.34572  1.0000
  H   H63       1.0  0.42254  0.88694  0.49205  1.0000
  C   C130      1.0  0.88254  0.48781  0.34946  1.0000
  C   C131      1.0  0.88255  0.46879  0.43032  1.0000
  N   N28       1.0  0.88327  0.43466  0.42529  1.0000
  C   C132      1.0  0.88253  0.41702  0.34565  1.0000
  H   H64       1.0  0.88428  0.48123  0.49205  1.0000
  C   C133      1.0  0.54854  0.41701  0.34949  1.0000
  C   C134      1.0  0.56757  0.43603  0.43036  1.0000
  N   N29       1.0  0.60170  0.47087  0.42535  1.0000
  C   C135      1.0  0.61934  0.48780  0.34573  1.0000
  H   H65       1.0  0.55513  0.42529  0.49209  1.0000
  C   C136      1.0  0.61930  0.15376  0.34943  1.0000
  C   C137      1.0  0.60029  0.15377  0.43032  1.0000
  N   N30       1.0  0.56544  0.15304  0.42531  1.0000
  C   C138      1.0  0.54853  0.15374  0.34567  1.0000
  H   H66       1.0  0.61103  0.15206  0.49203  1.0000
  C   C139      1.0  0.99757  0.38093  0.42942  1.0000
  N   N31       1.0  0.03743  0.40204  0.42488  1.0000
  H   H67       1.0  0.98418  0.37699  0.49084  1.0000
  C   C140      1.0  0.65543  0.63892  0.42941  1.0000
  N   N32       1.0  0.63433  0.65766  0.42487  1.0000
  H   H68       1.0  0.65937  0.62947  0.49082  1.0000
  C   C141      1.0  0.39728  0.03871  0.42957  1.0000
  N   N33       1.0  0.37856  0.99886  0.42492  1.0000
  H   H69       1.0  0.40666  0.05207  0.49103  1.0000
  C   C142      1.0  0.03606  0.65824  0.42952  1.0000
  N   N34       1.0  0.99620  0.63711  0.42502  1.0000
  H   H70       1.0  0.04947  0.66224  0.49092  1.0000
  C   C143      1.0  0.37813  0.40011  0.42944  1.0000
  N   N35       1.0  0.39926  0.38138  0.42498  1.0000
  H   H71       1.0  0.37415  0.40954  0.49083  1.0000
  C   C144      1.0  0.63623  0.00026  0.42942  1.0000
  N   N36       1.0  0.65496  0.04011  0.42491  1.0000
  H   H72       1.0  0.62679  0.98686  0.49083  1.0000
