data_image0
_chemical_formula_structural       C2NCNH2C2NCNH2NCHNCHC2NCNH2C2NCNH2NCHNCHC2NCNH2C2NCNH2C2NCNH2C2NCNH2NCHNCHC2NCNH2C2NCNH2NCHNCHC2NCNH2C2NCNH2NCHNCHC2NCNH2C2NCNH2CNCNCNCNCNCNCNCNCNCNCNCNCNCNCNCNCNCNCNCNCNCNCNCNCNCNCNCNCNCNCNCNCNCNCNCNCNCNCNCNCNCNCNCNCNCNCNCN2CHNCHC2NCNH2C2NCNH2NCHNCHC2NCNH2C2NCNH2NCHNCHNCHNCHC2NCNH2C2NCNH2NCHNCHC2NCNH2C2NCNH2NCHNCHC2NCNH2C2NCNH2NCHNCH
_chemical_formula_sum              "C144 N120 H72"
_cell_length_a       43.6587
_cell_length_b       34.2352
_cell_length_c       14.8323
_cell_angle_alpha    90
_cell_angle_beta     90
_cell_angle_gamma    90

_space_group_name_H-M_alt    "P 1"
_space_group_IT_number       1

loop_
  _space_group_symop_operation_xyz
  'x, y, z'

loop_
  _atom_site_type_symbol
  _atom_site_label
  _atom_site_symmetry_multiplicity
  _atom_site_fract_x
  _atom_site_fract_y
  _atom_site_fract_z
  _atom_site_occupancy
  C   C1        1.0  0.00447  0.96293  0.32268  1.0000
  C   C2        1.0  0.00217  0.04569  0.33450  1.0000
  N   N1        1.0  0.02628  0.02634  0.29768  1.0000
  C   C3        1.0  0.02864  0.98677  0.28827  1.0000
  N   N2        1.0  0.05327  0.97385  0.24128  1.0000
  H   H1        1.0  0.05375  0.94764  0.21679  1.0000
  H   H2        1.0  0.06760  0.99256  0.21549  1.0000
  C   C4        1.0  0.50647  0.46301  0.32495  1.0000
  C   C5        1.0  0.50214  0.54600  0.33422  1.0000
  N   N3        1.0  0.52866  0.52699  0.31582  1.0000
  C   C6        1.0  0.53250  0.48755  0.30936  1.0000
  N   N4        1.0  0.56130  0.47652  0.28659  1.0000
  H   H3        1.0  0.56673  0.44993  0.27429  1.0000
  H   H4        1.0  0.57717  0.49604  0.27569  1.0000
  N   N5        1.0  0.08553  0.15487  0.32935  1.0000
  C   C7        1.0  0.11252  0.17514  0.32650  1.0000
  H   H5        1.0  0.13161  0.16216  0.30027  1.0000
  N   N6        1.0  0.92371  0.85035  0.32697  1.0000
  C   C8        1.0  0.89701  0.82947  0.32480  1.0000
  H   H6        1.0  0.87760  0.84214  0.29982  1.0000
  C   C9        1.0  0.94907  0.17208  0.32271  1.0000
  C   C10       1.0  0.89533  0.21844  0.33146  1.0000
  N   N7        1.0  0.92264  0.23245  0.30201  1.0000
  C   C11       1.0  0.94915  0.21189  0.29405  1.0000
  N   N8        1.0  0.97287  0.23152  0.25603  1.0000
  H   H7        1.0  0.99087  0.21800  0.23416  1.0000
  H   H8        1.0  0.96999  0.25821  0.23494  1.0000
  C   C12       1.0  0.06113  0.83837  0.33510  1.0000
  C   C13       1.0  0.11047  0.78399  0.34053  1.0000
  N   N9        1.0  0.11487  0.82306  0.32937  1.0000
  C   C14       1.0  0.09224  0.85081  0.32630  1.0000
  N   N10       1.0  0.10182  0.88814  0.31577  1.0000
  H   H9        1.0  0.08785  0.90996  0.31656  1.0000
  H   H10       1.0  0.12356  0.89413  0.31107  1.0000
  N   N11       1.0  0.58517  0.65522  0.32958  1.0000
  C   C15       1.0  0.61223  0.67540  0.32697  1.0000
  H   H11       1.0  0.63128  0.66242  0.30056  1.0000
  N   N12       1.0  0.42354  0.35149  0.32042  1.0000
  C   C16       1.0  0.39670  0.33085  0.31769  1.0000
  H   H12       1.0  0.37761  0.34335  0.29028  1.0000
  C   C17       1.0  0.44862  0.67234  0.32316  1.0000
  C   C18       1.0  0.39468  0.71839  0.33238  1.0000
  N   N13       1.0  0.42205  0.73261  0.30387  1.0000
  C   C19       1.0  0.44866  0.71231  0.29583  1.0000
  N   N14       1.0  0.47239  0.73241  0.25916  1.0000
  H   H13       1.0  0.49052  0.71921  0.23720  1.0000
  H   H14       1.0  0.46944  0.75923  0.23910  1.0000
  C   C20       1.0  0.56050  0.33726  0.33131  1.0000
  C   C21       1.0  0.61158  0.28689  0.35054  1.0000
  N   N15       1.0  0.61257  0.31963  0.29849  1.0000
  C   C22       1.0  0.58870  0.34509  0.28635  1.0000
  N   N16       1.0  0.59282  0.37421  0.22587  1.0000
  H   H15       1.0  0.57570  0.38944  0.20384  1.0000
  H   H16       1.0  0.61212  0.37659  0.19342  1.0000
  C   C23       1.0  0.36687  0.15667  0.32356  1.0000
  C   C24       1.0  0.38164  0.07666  0.32323  1.0000
  N   N17       1.0  0.40041  0.10464  0.28881  1.0000
  C   C25       1.0  0.39480  0.14351  0.28491  1.0000
  N   N18       1.0  0.41630  0.16541  0.24250  1.0000
  H   H17       1.0  0.41292  0.19258  0.22750  1.0000
  H   H18       1.0  0.43431  0.15307  0.21626  1.0000
  C   C26       1.0  0.64149  0.84932  0.32593  1.0000
  C   C27       1.0  0.62581  0.92897  0.32519  1.0000
  N   N19       1.0  0.60718  0.90060  0.29194  1.0000
  C   C28       1.0  0.61319  0.86183  0.28852  1.0000
  N   N20       1.0  0.59173  0.83940  0.24734  1.0000
  H   H19       1.0  0.59548  0.81232  0.23222  1.0000
  H   H20       1.0  0.57350  0.85135  0.22148  1.0000
  N   N21       1.0  0.66191  0.12534  0.33981  1.0000
  C   C29       1.0  0.65593  0.08637  0.33658  1.0000
  H   H21       1.0  0.67048  0.06812  0.30289  1.0000
  N   N22       1.0  0.34533  0.88030  0.33160  1.0000
  C   C30       1.0  0.35152  0.91928  0.33148  1.0000
  H   H22       1.0  0.33685  0.93819  0.30030  1.0000
  C   C31       1.0  0.86662  0.65558  0.32170  1.0000
  C   C32       1.0  0.88171  0.57568  0.32414  1.0000
  N   N23       1.0  0.90047  0.60355  0.28923  1.0000
  C   C33       1.0  0.89469  0.64236  0.28400  1.0000
  N   N24       1.0  0.91618  0.66426  0.24157  1.0000
  H   H23       1.0  0.91262  0.69130  0.22562  1.0000
  H   H24       1.0  0.93432  0.65196  0.21599  1.0000
  C   C34       1.0  0.14226  0.34860  0.31573  1.0000
  C   C35       1.0  0.12627  0.42804  0.31808  1.0000
  N   N25       1.0  0.10760  0.39984  0.28430  1.0000
  C   C36       1.0  0.11382  0.36114  0.27934  1.0000
  N   N26       1.0  0.09238  0.33865  0.23830  1.0000
  H   H25       1.0  0.09632  0.31170  0.22234  1.0000
  H   H26       1.0  0.07399  0.35050  0.21317  1.0000
  N   N27       1.0  0.16265  0.62361  0.33531  1.0000
  C   C37       1.0  0.15658  0.58464  0.33306  1.0000
  H   H27       1.0  0.17060  0.56638  0.29747  1.0000
  N   N28       1.0  0.84517  0.37981  0.33471  1.0000
  C   C38       1.0  0.85152  0.41876  0.33474  1.0000
  H   H28       1.0  0.83706  0.43772  0.30288  1.0000
  C   C39       1.0  0.53569  0.00510  0.31606  1.0000
  C   C40       1.0  0.47216  0.00194  0.32714  1.0000
  N   N29       1.0  0.48696  0.03459  0.29890  1.0000
  C   C41       1.0  0.51780  0.03808  0.29111  1.0000
  N   N30       1.0  0.52851  0.07225  0.25742  1.0000
  H   H29       1.0  0.54983  0.07573  0.24112  1.0000
  H   H30       1.0  0.51434  0.09277  0.23940  1.0000
  C   C42       1.0  0.03597  0.50426  0.32062  1.0000
  C   C43       1.0  0.97242  0.50120  0.33279  1.0000
  N   N31       1.0  0.98724  0.53397  0.30541  1.0000
  C   C44       1.0  0.01808  0.53746  0.29724  1.0000
  N   N32       1.0  0.02873  0.57183  0.26445  1.0000
  H   H31       1.0  0.04999  0.57529  0.24751  1.0000
  H   H32       1.0  0.01452  0.59243  0.24718  1.0000
  N   N33       1.0  0.24087  0.28265  0.30386  1.0000
  C   C45       1.0  0.27197  0.28216  0.30255  1.0000
  H   H33       1.0  0.28367  0.30362  0.26929  1.0000
  N   N34       1.0  0.76832  0.71995  0.33055  1.0000
  C   C46       1.0  0.73721  0.72056  0.33033  1.0000
  H   H34       1.0  0.72527  0.69546  0.31796  1.0000
  C   C47       1.0  0.78530  0.25519  0.33348  1.0000
  C   C48       1.0  0.72075  0.24798  0.33428  1.0000
  N   N35       1.0  0.73986  0.21756  0.31614  1.0000
  C   C49       1.0  0.77103  0.21885  0.31305  1.0000
  N   N36       1.0  0.78512  0.18502  0.28990  1.0000
  H   H35       1.0  0.80696  0.18323  0.28046  1.0000
  H   H36       1.0  0.77309  0.16188  0.27567  1.0000
  C   C50       1.0  0.22080  0.74913  0.33488  1.0000
  C   C51       1.0  0.28526  0.75730  0.33725  1.0000
  N   N37       1.0  0.26588  0.78781  0.32253  1.0000
  C   C52       1.0  0.23471  0.78614  0.31938  1.0000
  N   N38       1.0  0.22024  0.82026  0.30104  1.0000
  H   H37       1.0  0.19835  0.82193  0.29256  1.0000
  H   H38       1.0  0.23201  0.84394  0.28997  1.0000
  C   C53       1.0  0.97600  0.14838  0.33055  1.0000
  N   N39       1.0  0.97598  0.10852  0.33142  1.0000
  C   C54       1.0  0.00249  0.08732  0.33823  1.0000
  N   N40       1.0  0.02961  0.10723  0.34626  1.0000
  C   C55       1.0  0.03078  0.14705  0.35075  1.0000
  N   N41       1.0  0.00363  0.16587  0.34140  1.0000
  C   C56       1.0  0.03344  0.86116  0.33439  1.0000
  N   N42       1.0  0.03161  0.90073  0.32774  1.0000
  C   C57       1.0  0.00463  0.92101  0.32778  1.0000
  N   N43       1.0  0.97823  0.89975  0.33853  1.0000
  C   C58       1.0  0.97828  0.85994  0.34714  1.0000
  N   N44       1.0  0.00615  0.84239  0.34301  1.0000
  C   C59       1.0  0.47560  0.64874  0.33062  1.0000
  N   N45       1.0  0.47563  0.60887  0.33076  1.0000
  C   C60       1.0  0.50213  0.58769  0.33787  1.0000
  N   N46       1.0  0.52918  0.60773  0.34677  1.0000
  C   C61       1.0  0.53037  0.64750  0.35129  1.0000
  N   N47       1.0  0.50321  0.66628  0.34192  1.0000
  C   C62       1.0  0.53300  0.35984  0.32854  1.0000
  N   N48       1.0  0.53224  0.39949  0.32449  1.0000
  C   C63       1.0  0.50585  0.42089  0.32692  1.0000
  N   N49       1.0  0.47903  0.40024  0.33667  1.0000
  C   C64       1.0  0.47819  0.36033  0.34351  1.0000
  N   N50       1.0  0.50560  0.34163  0.33831  1.0000
  C   C65       1.0  0.39282  0.96952  0.35396  1.0000
  N   N51       1.0  0.37761  0.00432  0.34447  1.0000
  C   C66       1.0  0.39356  0.03824  0.32971  1.0000
  N   N52       1.0  0.42453  0.03605  0.32429  1.0000
  C   C67       1.0  0.44016  0.00240  0.33314  1.0000
  N   N53       1.0  0.42383  0.96972  0.34805  1.0000
  C   C68       1.0  0.61481  0.03595  0.35398  1.0000
  N   N54       1.0  0.62986  0.00098  0.34697  1.0000
  C   C69       1.0  0.61388  0.96741  0.32904  1.0000
  N   N55       1.0  0.58309  0.97012  0.31778  1.0000
  C   C70       1.0  0.56774  0.00419  0.32203  1.0000
  N   N56       1.0  0.58404  0.03636  0.34189  1.0000
  C   C71       1.0  0.89296  0.46875  0.35787  1.0000
  N   N57       1.0  0.87777  0.50350  0.34709  1.0000
  C   C72       1.0  0.89374  0.53739  0.33238  1.0000
  N   N58       1.0  0.92475  0.53523  0.32818  1.0000
  C   C73       1.0  0.94038  0.50163  0.33838  1.0000
  N   N59       1.0  0.92400  0.46896  0.35322  1.0000
  C   C74       1.0  0.11552  0.53449  0.35390  1.0000
  N   N60       1.0  0.13042  0.49963  0.34335  1.0000
  C   C75       1.0  0.11423  0.46630  0.32499  1.0000
  N   N61       1.0  0.08332  0.46907  0.31679  1.0000
  C   C76       1.0  0.06807  0.50313  0.32461  1.0000
  N   N62       1.0  0.08464  0.53507  0.34476  1.0000
  C   C77       1.0  0.13768  0.24173  0.34396  1.0000
  N   N63       1.0  0.16824  0.23283  0.34554  1.0000
  C   C78       1.0  0.19035  0.26124  0.33951  1.0000
  N   N64       1.0  0.18093  0.29884  0.32917  1.0000
  C   C79       1.0  0.15103  0.30902  0.32515  1.0000
  N   N65       1.0  0.13016  0.28003  0.33467  1.0000
  C   C80       1.0  0.87247  0.76271  0.34457  1.0000
  N   N66       1.0  0.84202  0.77201  0.34557  1.0000
  C   C81       1.0  0.81944  0.74420  0.34179  1.0000
  N   N67       1.0  0.82859  0.70631  0.33414  1.0000
  C   C82       1.0  0.85837  0.69544  0.33054  1.0000
  N   N68       1.0  0.87961  0.72418  0.33780  1.0000
  C   C83       1.0  0.87048  0.24523  0.33859  1.0000
  N   N69       1.0  0.84017  0.23560  0.33454  1.0000
  C   C84       1.0  0.81741  0.26308  0.33896  1.0000
  N   N70       1.0  0.82615  0.30094  0.35072  1.0000
  C   C85       1.0  0.85584  0.31199  0.35770  1.0000
  N   N71       1.0  0.87736  0.28365  0.34931  1.0000
  C   C86       1.0  0.13538  0.75694  0.34411  1.0000
  N   N72       1.0  0.16551  0.76726  0.33658  1.0000
  C   C87       1.0  0.18881  0.74051  0.34019  1.0000
  N   N73       1.0  0.18081  0.70251  0.35340  1.0000
  C   C88       1.0  0.15144  0.69072  0.36329  1.0000
  N   N74       1.0  0.12935  0.71841  0.35697  1.0000
  C   C89       1.0  0.63761  0.74191  0.34674  1.0000
  N   N75       1.0  0.66826  0.73318  0.34598  1.0000
  C   C90       1.0  0.69005  0.76211  0.34218  1.0000
  N   N76       1.0  0.68037  0.79977  0.33647  1.0000
  C   C91       1.0  0.65045  0.80973  0.33420  1.0000
  N   N77       1.0  0.62987  0.78031  0.34128  1.0000
  C   C92       1.0  0.37166  0.26435  0.34035  1.0000
  N   N78       1.0  0.34108  0.27334  0.34061  1.0000
  C   C93       1.0  0.31923  0.24452  0.33991  1.0000
  N   N79       1.0  0.32851  0.20670  0.33563  1.0000
  C   C94       1.0  0.35838  0.19648  0.33169  1.0000
  N   N80       1.0  0.37921  0.22581  0.33628  1.0000
  C   C95       1.0  0.36983  0.74524  0.33947  1.0000
  N   N81       1.0  0.33938  0.73587  0.33736  1.0000
  C   C96       1.0  0.31724  0.76425  0.34137  1.0000
  N   N82       1.0  0.32625  0.80206  0.35011  1.0000
  C   C97       1.0  0.35603  0.81257  0.35537  1.0000
  N   N83       1.0  0.37713  0.78369  0.34792  1.0000
  C   C98       1.0  0.63627  0.25961  0.35276  1.0000
  N   N84       1.0  0.66647  0.26905  0.34098  1.0000
  C   C99       1.0  0.68883  0.24094  0.34160  1.0000
  N   N85       1.0  0.68023  0.20321  0.35430  1.0000
  C   C100      1.0  0.65076  0.19252  0.36745  1.0000
  N   N86       1.0  0.62939  0.22124  0.36513  1.0000
  N   N87       1.0  0.97998  0.98247  0.35797  1.0000
  C   C101      1.0  0.97751  0.02209  0.36331  1.0000
  H   H39       1.0  0.95836  0.03409  0.39157  1.0000
  N   N88       1.0  0.47970  0.48225  0.34274  1.0000
  C   C102      1.0  0.47631  0.52180  0.34680  1.0000
  H   H40       1.0  0.45530  0.53330  0.36133  1.0000
  C   C103      1.0  0.05831  0.16964  0.35982  1.0000
  C   C104      1.0  0.11282  0.21486  0.35204  1.0000
  N   N89       1.0  0.08585  0.22893  0.38403  1.0000
  C   C105      1.0  0.05908  0.20895  0.39184  1.0000
  N   N90       1.0  0.03592  0.22870  0.43245  1.0000
  H   H41       1.0  0.01752  0.21567  0.45299  1.0000
  H   H42       1.0  0.03918  0.25519  0.45445  1.0000
  C   C106      1.0  0.95126  0.83625  0.35647  1.0000
  C   C107      1.0  0.89730  0.78975  0.35036  1.0000
  N   N91       1.0  0.92458  0.77626  0.38136  1.0000
  C   C108      1.0  0.95112  0.79685  0.38831  1.0000
  N   N92       1.0  0.97459  0.77748  0.42837  1.0000
  H   H43       1.0  0.99267  0.79100  0.44959  1.0000
  H   H44       1.0  0.97165  0.75098  0.45060  1.0000
  N   N93       1.0  0.92150  0.15749  0.35060  1.0000
  C   C109      1.0  0.89486  0.17838  0.35394  1.0000
  H   H45       1.0  0.87538  0.16541  0.37751  1.0000
  N   N94       1.0  0.05713  0.79919  0.34628  1.0000
  C   C110      1.0  0.07965  0.77209  0.34947  1.0000
  H   H46       1.0  0.07365  0.74351  0.35839  1.0000
  C   C111      1.0  0.55798  0.66996  0.36046  1.0000
  C   C112      1.0  0.61267  0.71500  0.35346  1.0000
  N   N95       1.0  0.58569  0.72898  0.38575  1.0000
  C   C113      1.0  0.55884  0.70915  0.39307  1.0000
  N   N96       1.0  0.53573  0.72890  0.43384  1.0000
  H   H47       1.0  0.51724  0.71593  0.45387  1.0000
  H   H48       1.0  0.53904  0.75531  0.45624  1.0000
  C   C114      1.0  0.45073  0.33748  0.35305  1.0000
  C   C115      1.0  0.39650  0.29146  0.34587  1.0000
  N   N97       1.0  0.42340  0.27820  0.38017  1.0000
  C   C116      1.0  0.45001  0.29858  0.38779  1.0000
  N   N98       1.0  0.47300  0.27965  0.43117  1.0000
  H   H49       1.0  0.49097  0.29338  0.45257  1.0000
  H   H50       1.0  0.46972  0.25353  0.45530  1.0000
  N   N99       1.0  0.42102  0.65747  0.35011  1.0000
  C   C117      1.0  0.39430  0.67822  0.35369  1.0000
  H   H51       1.0  0.37480  0.66502  0.37645  1.0000
  N   N100      1.0  0.55964  0.30435  0.38269  1.0000
  C   C118      1.0  0.58335  0.27931  0.39375  1.0000
  H   H52       1.0  0.58020  0.25527  0.43345  1.0000
  N   N101      1.0  0.34741  0.12880  0.35647  1.0000
  C   C119      1.0  0.35326  0.08972  0.35659  1.0000
  H   H53       1.0  0.33801  0.07090  0.38555  1.0000
  N   N102      1.0  0.66078  0.87755  0.35791  1.0000
  C   C120      1.0  0.65443  0.91649  0.35800  1.0000
  H   H54       1.0  0.66970  0.93571  0.38545  1.0000
  C   C121      1.0  0.64299  0.15261  0.37765  1.0000
  C   C122      1.0  0.62769  0.07309  0.37040  1.0000
  N   N103      1.0  0.60933  0.10032  0.40951  1.0000
  C   C123      1.0  0.61547  0.13894  0.41778  1.0000
  N   N104      1.0  0.59467  0.16050  0.46395  1.0000
  H   H55       1.0  0.59928  0.18682  0.48359  1.0000
  H   H56       1.0  0.57707  0.14784  0.49171  1.0000
  C   C124      1.0  0.36436  0.85228  0.36588  1.0000
  C   C125      1.0  0.37997  0.93190  0.36532  1.0000
  N   N105      1.0  0.39835  0.90380  0.40096  1.0000
  C   C126      1.0  0.39221  0.86508  0.40563  1.0000
  N   N106      1.0  0.41325  0.84274  0.44884  1.0000
  H   H57       1.0  0.40936  0.81568  0.46397  1.0000
  H   H58       1.0  0.43131  0.85471  0.47566  1.0000
  N   N107      1.0  0.84718  0.62781  0.35510  1.0000
  C   C127      1.0  0.85316  0.58876  0.35629  1.0000
  H   H59       1.0  0.83794  0.57002  0.38563  1.0000
  N   N108      1.0  0.16155  0.37671  0.34814  1.0000
  C   C128      1.0  0.15510  0.41559  0.34938  1.0000
  H   H60       1.0  0.17034  0.43471  0.37736  1.0000
  C   C129      1.0  0.14421  0.65081  0.37524  1.0000
  C   C130      1.0  0.12881  0.57139  0.37020  1.0000
  N   N109      1.0  0.11098  0.59862  0.41142  1.0000
  C   C131      1.0  0.11727  0.63723  0.41879  1.0000
  N   N110      1.0  0.09714  0.65902  0.46691  1.0000
  H   H61       1.0  0.10180  0.68563  0.48443  1.0000
  H   H62       1.0  0.07985  0.64655  0.49678  1.0000
  C   C132      1.0  0.86394  0.35171  0.36983  1.0000
  C   C133      1.0  0.87994  0.43120  0.36913  1.0000
  N   N111      1.0  0.89804  0.40306  0.40580  1.0000
  C   C134      1.0  0.89166  0.36440  0.41063  1.0000
  N   N112      1.0  0.91237  0.34193  0.45479  1.0000
  H   H63       1.0  0.90820  0.31494  0.47012  1.0000
  H   H64       1.0  0.93037  0.35376  0.48227  1.0000
  N   N113      1.0  0.52085  0.97224  0.34340  1.0000
  C   C135      1.0  0.49008  0.96906  0.34868  1.0000
  H   H65       1.0  0.48065  0.94349  0.37091  1.0000
  N   N114      1.0  0.02113  0.47126  0.34700  1.0000
  C   C136      1.0  0.99036  0.46816  0.35298  1.0000
  H   H66       1.0  0.98091  0.44243  0.37407  1.0000
  C   C137      1.0  0.22262  0.25507  0.34347  1.0000
  C   C138      1.0  0.28717  0.25057  0.34327  1.0000
  N   N115      1.0  0.26910  0.22326  0.38370  1.0000
  C   C139      1.0  0.23792  0.22388  0.38789  1.0000
  N   N116      1.0  0.22435  0.19551  0.43750  1.0000
  H   H67       1.0  0.20267  0.19598  0.45115  1.0000
  H   H68       1.0  0.23678  0.17635  0.46932  1.0000
  C   C140      1.0  0.78712  0.75137  0.34465  1.0000
  C   C141      1.0  0.72230  0.75644  0.34407  1.0000
  N   N117      1.0  0.74093  0.78773  0.35888  1.0000
  C   C142      1.0  0.77213  0.78761  0.36104  1.0000
  N   N118      1.0  0.78558  0.82232  0.38014  1.0000
  H   H69       1.0  0.80744  0.82517  0.38746  1.0000
  H   H70       1.0  0.77312  0.84537  0.39179  1.0000
  N   N119      1.0  0.76597  0.28575  0.35088  1.0000
  C   C143      1.0  0.73490  0.28413  0.35095  1.0000
  H   H71       1.0  0.72251  0.30844  0.36717  1.0000
  N   N120      1.0  0.24043  0.71856  0.34876  1.0000
  C   C144      1.0  0.27145  0.72062  0.34951  1.0000
  H   H72       1.0  0.28406  0.69606  0.36182  1.0000
