data_image0
_chemical_formula_structural       HNHNC3NOCHCHC3NOCHCHC2NOCH2C2NOCH2C3NOCHCHC3NOCHCHC2NOCH2C2NOCH2C2NOCH2C2NOCH2C6HNC6NH7N4C6HNC6NH7N4C6HNC6NH7N4C6HNC6NH6N3C6HNC6NH6N3C3NOCHCHC3NOCHCHC4NOCHCHC5NOCHCHC4NOCHCHC3NOCHCHC4NOCHCHC5NOCHCHC5NOCHC2HC4NOCHC2H
_chemical_formula_sum              "H80 N50 C160 O20"
_cell_length_a       32.9683
_cell_length_b       41.2905
_cell_length_c       14.8251
_cell_angle_alpha    88.376
_cell_angle_beta     91.2723
_cell_angle_gamma    90.3167

_space_group_name_H-M_alt    "P 1"
_space_group_IT_number       1

loop_
  _space_group_symop_operation_xyz
  'x, y, z'

loop_
  _atom_site_type_symbol
  _atom_site_label
  _atom_site_symmetry_multiplicity
  _atom_site_fract_x
  _atom_site_fract_y
  _atom_site_fract_z
  _atom_site_occupancy
  H   H1        1.0  0.79337  0.36763  0.39380  1.0000
  N   N1        1.0  0.86145  0.34479  0.35802  1.0000
  H   H2        1.0  0.16242  0.67733  0.39428  1.0000
  N   N2        1.0  0.09373  0.70088  0.35870  1.0000
  C   C1        1.0  0.16156  0.19047  0.39111  1.0000
  C   C2        1.0  0.17391  0.15941  0.36454  1.0000
  C   C3        1.0  0.14728  0.13278  0.36616  1.0000
  N   N3        1.0  0.16722  0.10796  0.33316  1.0000
  O   O1        1.0  0.21031  0.15155  0.32955  1.0000
  C   C4        1.0  0.20415  0.11946  0.31291  1.0000
  H   H3        1.0  0.22579  0.10545  0.28530  1.0000
  C   C5        1.0  0.18703  0.21800  0.38265  1.0000
  H   H4        1.0  0.21661  0.21598  0.36450  1.0000
  C   C6        1.0  0.79441  0.85407  0.39284  1.0000
  C   C7        1.0  0.78149  0.88567  0.36630  1.0000
  C   C8        1.0  0.80812  0.91228  0.36787  1.0000
  N   N4        1.0  0.78752  0.93774  0.33466  1.0000
  O   O2        1.0  0.74441  0.89419  0.33115  1.0000
  C   C9        1.0  0.75016  0.92665  0.31478  1.0000
  H   H5        1.0  0.72810  0.94112  0.28620  1.0000
  C   C10       1.0  0.76881  0.82670  0.38438  1.0000
  H   H6        1.0  0.73886  0.82906  0.36624  1.0000
  C   C11       1.0  0.82301  0.15066  0.27817  1.0000
  C   C12       1.0  0.80424  0.18039  0.29167  1.0000
  N   N5        1.0  0.80247  0.19604  0.21189  1.0000
  O   O3        1.0  0.83374  0.14768  0.19053  1.0000
  C   C13       1.0  0.82017  0.17650  0.15388  1.0000
  H   H7        1.0  0.82341  0.18280  0.08735  1.0000
  H   H8        1.0  0.84960  0.08984  0.27325  1.0000
  C   C14       1.0  0.13018  0.89619  0.27699  1.0000
  C   C15       1.0  0.14951  0.86628  0.29004  1.0000
  N   N6        1.0  0.14917  0.85215  0.21037  1.0000
  O   O4        1.0  0.11697  0.90077  0.18980  1.0000
  C   C16       1.0  0.12971  0.87270  0.15291  1.0000
  H   H9        1.0  0.12459  0.86764  0.08662  1.0000
  H   H10       1.0  0.10330  0.95702  0.27239  1.0000
  C   C17       1.0  0.25491  0.49057  0.34688  1.0000
  C   C18       1.0  0.25101  0.51644  0.28276  1.0000
  C   C19       1.0  0.25168  0.54869  0.30925  1.0000
  N   N7        1.0  0.24917  0.56708  0.23406  1.0000
  O   O5        1.0  0.24923  0.51429  0.19121  1.0000
  C   C20       1.0  0.24822  0.54639  0.16583  1.0000
  H   H11       1.0  0.24607  0.55404  0.09980  1.0000
  C   C21       1.0  0.25350  0.45808  0.32123  1.0000
  H   H12       1.0  0.24068  0.45237  0.26016  1.0000
  C   C22       1.0  0.69980  0.55502  0.34815  1.0000
  C   C23       1.0  0.70071  0.53018  0.28455  1.0000
  C   C24       1.0  0.70024  0.49749  0.31207  1.0000
  N   N8        1.0  0.69953  0.48032  0.23732  1.0000
  O   O6        1.0  0.69902  0.53383  0.19292  1.0000
  C   C25       1.0  0.69817  0.50213  0.16847  1.0000
  H   H13       1.0  0.69803  0.49553  0.10261  1.0000
  C   C26       1.0  0.70084  0.58796  0.32178  1.0000
  H   H14       1.0  0.71178  0.59464  0.25988  1.0000
  C   C27       1.0  0.96691  0.35579  0.27035  1.0000
  C   C28       1.0  0.00829  0.35523  0.29534  1.0000
  N   N9        1.0  0.02908  0.35803  0.21951  1.0000
  O   O7        1.0  0.96179  0.35940  0.17911  1.0000
  C   C29       1.0  0.00121  0.36111  0.15256  1.0000
  H   H15       1.0  0.00887  0.36311  0.08627  1.0000
  H   H16       1.0  0.88986  0.34088  0.23878  1.0000
  C   C30       1.0  0.98655  0.69169  0.27092  1.0000
  C   C31       1.0  0.94567  0.69147  0.29603  1.0000
  N   N10       1.0  0.92337  0.69070  0.22011  1.0000
  O   O8        1.0  0.98984  0.69039  0.17957  1.0000
  C   C32       1.0  0.94989  0.68934  0.15302  1.0000
  H   H17       1.0  0.94090  0.68913  0.08669  1.0000
  H   H18       1.0  0.06287  0.70766  0.23969  1.0000
  C   C33       1.0  0.46652  0.34156  0.28697  1.0000
  C   C34       1.0  0.50825  0.33914  0.30824  1.0000
  N   N11       1.0  0.52796  0.34405  0.23164  1.0000
  O   O9        1.0  0.46015  0.34731  0.19675  1.0000
  C   C35       1.0  0.49916  0.34809  0.16709  1.0000
  H   H19       1.0  0.50601  0.35319  0.10139  1.0000
  H   H20       1.0  0.38950  0.35929  0.27297  1.0000
  C   C36       1.0  0.48785  0.70866  0.28907  1.0000
  C   C37       1.0  0.44647  0.70991  0.31031  1.0000
  N   N12       1.0  0.42552  0.70996  0.23253  1.0000
  O   O10       1.0  0.49274  0.70865  0.19799  1.0000
  C   C38       1.0  0.45326  0.71021  0.16774  1.0000
  H   H21       1.0  0.44532  0.70916  0.10096  1.0000
  H   H22       1.0  0.56461  0.69101  0.27182  1.0000
  C   C39       1.0  0.95634  0.02249  0.41425  1.0000
  C   C40       1.0  0.93240  0.99436  0.39944  1.0000
  C   C41       1.0  0.88973  0.99481  0.38596  1.0000
  C   C42       1.0  0.86929  0.02510  0.37995  1.0000
  C   C43       1.0  0.89177  0.05375  0.39962  1.0000
  C   C44       1.0  0.93363  0.05149  0.42194  1.0000
  H   H23       1.0  0.94635  0.97279  0.39191  1.0000
  N   N13       1.0  0.82820  0.02595  0.36633  1.0000
  C   C45       1.0  0.00010  0.02164  0.41416  1.0000
  C   C46       1.0  0.02298  0.99249  0.42192  1.0000
  C   C47       1.0  0.06437  0.99067  0.39934  1.0000
  C   C48       1.0  0.08642  0.01970  0.37930  1.0000
  C   C49       1.0  0.06611  0.04987  0.38526  1.0000
  C   C50       1.0  0.02373  0.05006  0.39908  1.0000
  N   N14       1.0  0.12719  0.01911  0.36519  1.0000
  H   H24       1.0  0.00961  0.07177  0.39127  1.0000
  H   H25       1.0  0.14289  0.99947  0.37258  1.0000
  H   H26       1.0  0.14279  0.03881  0.35391  1.0000
  H   H27       1.0  0.81264  0.04546  0.37396  1.0000
  H   H28       1.0  0.81237  0.00649  0.35539  1.0000
  H   H29       1.0  0.94814  0.07251  0.43809  1.0000
  H   H30       1.0  0.00881  0.97115  0.43828  1.0000
  N   N15       1.0  0.08829  0.07787  0.38234  1.0000
  N   N16       1.0  0.07987  0.96019  0.39759  1.0000
  N   N17       1.0  0.87627  0.08428  0.39772  1.0000
  N   N18       1.0  0.86748  0.96688  0.38342  1.0000
  C   C51       1.0  0.20948  0.33246  0.35978  1.0000
  C   C52       1.0  0.20786  0.29798  0.36932  1.0000
  C   C53       1.0  0.17106  0.28021  0.37005  1.0000
  C   C54       1.0  0.13318  0.29630  0.36049  1.0000
  C   C55       1.0  0.13259  0.33069  0.36004  1.0000
  C   C56       1.0  0.17018  0.34755  0.35435  1.0000
  H   H31       1.0  0.23380  0.28472  0.37448  1.0000
  N   N19       1.0  0.09873  0.27920  0.33904  1.0000
  C   C57       1.0  0.24767  0.35034  0.35943  1.0000
  C   C58       1.0  0.28721  0.33651  0.37590  1.0000
  C   C59       1.0  0.32412  0.35476  0.37609  1.0000
  C   C60       1.0  0.32146  0.38922  0.37494  1.0000
  C   C61       1.0  0.28335  0.40393  0.35561  1.0000
  C   C62       1.0  0.24848  0.38446  0.34228  1.0000
  N   N20       1.0  0.35449  0.40806  0.39509  1.0000
  H   H32       1.0  0.22244  0.39668  0.32741  1.0000
  H   H33       1.0  0.37925  0.39874  0.42069  1.0000
  H   H34       1.0  0.35280  0.43152  0.39665  1.0000
  H   H35       1.0  0.07457  0.29013  0.31594  1.0000
  H   H36       1.0  0.10005  0.25654  0.32418  1.0000
  H   H37       1.0  0.16770  0.37208  0.35364  1.0000
  H   H38       1.0  0.29024  0.31206  0.38368  1.0000
  N   N21       1.0  0.27997  0.43665  0.35932  1.0000
  N   N22       1.0  0.36102  0.33930  0.38133  1.0000
  N   N23       1.0  0.09685  0.34767  0.35923  1.0000
  N   N24       1.0  0.16979  0.24753  0.37845  1.0000
  C   C63       1.0  0.74583  0.71274  0.36133  1.0000
  C   C64       1.0  0.74767  0.74702  0.37095  1.0000
  C   C65       1.0  0.78451  0.76476  0.37165  1.0000
  C   C66       1.0  0.82216  0.74883  0.36198  1.0000
  C   C67       1.0  0.82271  0.71445  0.36136  1.0000
  C   C68       1.0  0.78500  0.69774  0.35583  1.0000
  H   H39       1.0  0.72185  0.76020  0.37600  1.0000
  N   N25       1.0  0.85615  0.76636  0.34037  1.0000
  C   C69       1.0  0.70762  0.69489  0.36084  1.0000
  C   C70       1.0  0.66848  0.70838  0.37797  1.0000
  C   C71       1.0  0.63151  0.69023  0.37748  1.0000
  C   C72       1.0  0.63393  0.65582  0.37486  1.0000
  C   C73       1.0  0.67167  0.64147  0.35582  1.0000
  C   C74       1.0  0.70639  0.66115  0.34321  1.0000
  N   N26       1.0  0.60110  0.63659  0.39333  1.0000
  H   H40       1.0  0.73210  0.64925  0.32805  1.0000
  H   H41       1.0  0.57643  0.64529  0.41722  1.0000
  H   H42       1.0  0.60251  0.61309  0.39303  1.0000
  H   H43       1.0  0.88008  0.75602  0.31790  1.0000
  H   H44       1.0  0.85477  0.78938  0.32613  1.0000
  H   H45       1.0  0.78742  0.67322  0.35476  1.0000
  H   H46       1.0  0.66571  0.73262  0.38696  1.0000
  N   N27       1.0  0.67514  0.60867  0.35974  1.0000
  N   N28       1.0  0.59481  0.70553  0.38481  1.0000
  N   N29       1.0  0.85842  0.69749  0.36022  1.0000
  N   N30       1.0  0.78600  0.79727  0.38011  1.0000
  C   C75       1.0  0.75015  0.32913  0.38169  1.0000
  C   C76       1.0  0.75093  0.29491  0.37257  1.0000
  C   C77       1.0  0.78580  0.27810  0.34589  1.0000
  C   C78       1.0  0.82250  0.29503  0.32650  1.0000
  C   C79       1.0  0.82539  0.32812  0.35134  1.0000
  C   C80       1.0  0.78982  0.34373  0.38063  1.0000
  H   H47       1.0  0.72551  0.28137  0.38396  1.0000
  N   N31       1.0  0.85535  0.27791  0.29943  1.0000
  C   C81       1.0  0.71249  0.34691  0.39015  1.0000
  C   C82       1.0  0.67261  0.33352  0.37488  1.0000
  C   C83       1.0  0.63596  0.35167  0.37796  1.0000
  C   C84       1.0  0.63906  0.38605  0.38190  1.0000
  C   C85       1.0  0.67766  0.40027  0.39890  1.0000
  C   C86       1.0  0.71255  0.38063  0.40821  1.0000
  N   N32       1.0  0.60603  0.40544  0.36563  1.0000
  H   H48       1.0  0.73910  0.39255  0.41998  1.0000
  H   H49       1.0  0.58064  0.39693  0.34192  1.0000
  H   H50       1.0  0.60785  0.42893  0.36649  1.0000
  H   H51       1.0  0.88230  0.28687  0.29657  1.0000
  H   H52       1.0  0.85317  0.25548  0.28174  1.0000
  H   H53       1.0  0.66932  0.30945  0.36303  1.0000
  N   N33       1.0  0.68114  0.43306  0.39544  1.0000
  N   N34       1.0  0.59874  0.33666  0.36984  1.0000
  N   N35       1.0  0.78817  0.24531  0.34943  1.0000
  C   C87       1.0  0.20558  0.71591  0.38114  1.0000
  C   C88       1.0  0.20475  0.75031  0.37154  1.0000
  C   C89       1.0  0.16929  0.76775  0.34572  1.0000
  C   C90       1.0  0.13200  0.75133  0.32749  1.0000
  C   C91       1.0  0.12963  0.71772  0.35210  1.0000
  C   C92       1.0  0.16582  0.70146  0.38076  1.0000
  H   H54       1.0  0.23052  0.76356  0.38188  1.0000
  N   N36       1.0  0.09849  0.76909  0.30197  1.0000
  C   C93       1.0  0.24334  0.69783  0.38908  1.0000
  C   C94       1.0  0.28305  0.71140  0.37458  1.0000
  C   C95       1.0  0.31960  0.69296  0.37671  1.0000
  C   C96       1.0  0.31621  0.65852  0.37854  1.0000
  C   C97       1.0  0.27788  0.64407  0.39551  1.0000
  C   C98       1.0  0.24340  0.66368  0.40601  1.0000
  N   N37       1.0  0.34862  0.63941  0.36033  1.0000
  H   H55       1.0  0.21701  0.65157  0.41717  1.0000
  H   H56       1.0  0.37331  0.64847  0.33559  1.0000
  H   H57       1.0  0.34644  0.61595  0.35923  1.0000
  H   H58       1.0  0.07140  0.76029  0.30090  1.0000
  H   H59       1.0  0.10021  0.79192  0.28473  1.0000
  H   H60       1.0  0.28636  0.73577  0.36448  1.0000
  N   N38       1.0  0.27401  0.61137  0.39155  1.0000
  N   N39       1.0  0.35683  0.70808  0.37108  1.0000
  N   N40       1.0  0.16732  0.80050  0.34856  1.0000
  C   C99       1.0  0.10688  0.13486  0.39602  1.0000
  C   C100      1.0  0.09513  0.16555  0.42623  1.0000
  C   C101      1.0  0.12165  0.19206  0.42457  1.0000
  N   N41       1.0  0.10230  0.21622  0.46266  1.0000
  O   O11       1.0  0.05880  0.17320  0.46235  1.0000
  C   C102      1.0  0.06551  0.20473  0.48366  1.0000
  H   H61       1.0  0.04435  0.21839  0.51418  1.0000
  C   C103      1.0  0.07878  0.10901  0.39841  1.0000
  H   H62       1.0  0.05038  0.11367  0.42079  1.0000
  C   C104      1.0  0.84915  0.90961  0.39747  1.0000
  C   C105      1.0  0.86155  0.87831  0.42765  1.0000
  C   C106      1.0  0.83498  0.85185  0.42632  1.0000
  N   N42       1.0  0.85515  0.82692  0.46426  1.0000
  O   O12       1.0  0.89862  0.86996  0.46368  1.0000
  C   C107      1.0  0.89236  0.83800  0.48507  1.0000
  H   H63       1.0  0.91419  0.82372  0.51541  1.0000
  C   C108      1.0  0.87729  0.93541  0.39961  1.0000
  H   H64       1.0  0.90619  0.93030  0.42164  1.0000
  C   C109      1.0  0.78960  0.18934  0.37651  1.0000
  C   C110      1.0  0.79699  0.16681  0.44881  1.0000
  C   C111      1.0  0.81923  0.13845  0.43687  1.0000
  C   C112      1.0  0.83228  0.12897  0.35125  1.0000
  N   N43       1.0  0.82199  0.12312  0.51698  1.0000
  O   O13       1.0  0.78705  0.17003  0.53682  1.0000
  C   C113      1.0  0.80333  0.14226  0.57459  1.0000
  H   H65       1.0  0.80001  0.13584  0.64102  1.0000
  C   C114      1.0  0.77022  0.21926  0.38848  1.0000
  H   H66       1.0  0.75456  0.22294  0.44605  1.0000
  C   C115      1.0  0.85054  0.09885  0.33693  1.0000
  C   C116      1.0  0.16657  0.85581  0.37437  1.0000
  C   C117      1.0  0.16108  0.87696  0.44666  1.0000
  C   C118      1.0  0.13831  0.90544  0.43533  1.0000
  C   C119      1.0  0.12279  0.91646  0.35017  1.0000
  N   N44       1.0  0.13775  0.91927  0.51531  1.0000
  O   O14       1.0  0.17348  0.87212  0.53427  1.0000
  C   C120      1.0  0.15826  0.89919  0.57228  1.0000
  H   H67       1.0  0.16325  0.90429  0.63858  1.0000
  C   C121      1.0  0.18666  0.82584  0.38589  1.0000
  H   H68       1.0  0.20358  0.82078  0.44310  1.0000
  C   C122      1.0  0.10401  0.94679  0.33617  1.0000
  C   C123      1.0  0.25177  0.55725  0.40107  1.0000
  C   C124      1.0  0.25328  0.53129  0.46530  1.0000
  C   C125      1.0  0.25702  0.49921  0.43863  1.0000
  N   N45       1.0  0.25888  0.48081  0.51387  1.0000
  O   O15       1.0  0.25404  0.53340  0.55686  1.0000
  C   C126      1.0  0.25778  0.50142  0.58217  1.0000
  H   H69       1.0  0.25804  0.49367  0.64820  1.0000
  C   C127      1.0  0.24748  0.58959  0.42606  1.0000
  H   H70       1.0  0.23633  0.59473  0.48785  1.0000
  C   C128      1.0  0.70372  0.48738  0.40398  1.0000
  C   C129      1.0  0.70538  0.51231  0.46745  1.0000
  C   C130      1.0  0.70122  0.54487  0.44019  1.0000
  N   N46       1.0  0.70237  0.56206  0.51489  1.0000
  O   O16       1.0  0.70789  0.50869  0.55903  1.0000
  C   C131      1.0  0.70569  0.54031  0.58362  1.0000
  H   H71       1.0  0.70787  0.54698  0.64935  1.0000
  C   C132      1.0  0.70788  0.45455  0.42977  1.0000
  H   H72       1.0  0.72158  0.44814  0.49026  1.0000
  C   C133      1.0  0.02214  0.34853  0.38496  1.0000
  C   C134      1.0  0.99087  0.34449  0.44887  1.0000
  C   C135      1.0  0.94949  0.34650  0.42449  1.0000
  C   C136      1.0  0.93562  0.35111  0.33395  1.0000
  N   N47       1.0  0.92875  0.33966  0.49877  1.0000
  O   O17       1.0  0.99603  0.33682  0.53845  1.0000
  C   C137      1.0  0.95662  0.33500  0.56512  1.0000
  H   H73       1.0  0.94899  0.32819  0.62930  1.0000
  C   C138      1.0  0.06302  0.34084  0.40811  1.0000
  H   H74       1.0  0.06761  0.32690  0.46567  1.0000
  C   C139      1.0  0.89476  0.34621  0.30519  1.0000
  C   C140      1.0  0.93362  0.69610  0.38579  1.0000
  C   C141      1.0  0.96617  0.69868  0.44974  1.0000
  C   C142      1.0  0.00705  0.69736  0.42521  1.0000
  C   C143      1.0  0.01912  0.69489  0.33456  1.0000
  N   N48       1.0  0.02929  0.70254  0.49957  1.0000
  O   O18       1.0  0.96280  0.70427  0.53948  1.0000
  C   C144      1.0  0.00274  0.70573  0.56597  1.0000
  H   H75       1.0  0.01168  0.71072  0.63051  1.0000
  C   C145      1.0  0.89321  0.70323  0.40917  1.0000
  H   H76       1.0  0.88976  0.71587  0.46698  1.0000
  C   C146      1.0  0.05936  0.70069  0.30591  1.0000
  C   C147      1.0  0.43614  0.33937  0.35364  1.0000
  C   C148      1.0  0.52374  0.33650  0.39795  1.0000
  C   C149      1.0  0.49336  0.33451  0.46463  1.0000
  C   C150      1.0  0.45156  0.33467  0.44287  1.0000
  N   N49       1.0  0.43197  0.33400  0.52043  1.0000
  O   O19       1.0  0.49985  0.33305  0.55580  1.0000
  C   C151      1.0  0.46084  0.33211  0.58549  1.0000
  H   H77       1.0  0.45411  0.33213  0.65233  1.0000
  C   C152      1.0  0.39484  0.34667  0.33252  1.0000
  C   C153      1.0  0.56537  0.34138  0.42131  1.0000
  H   H78       1.0  0.57127  0.35014  0.48426  1.0000
  C   C154      1.0  0.51934  0.70672  0.35623  1.0000
  C   C155      1.0  0.43248  0.70684  0.39975  1.0000
  C   C156      1.0  0.46397  0.70481  0.46689  1.0000
  C   C157      1.0  0.50540  0.70582  0.44588  1.0000
  N   N50       1.0  0.52627  0.70145  0.52310  1.0000
  O   O20       1.0  0.45901  0.70035  0.55747  1.0000
  C   C158      1.0  0.49850  0.69932  0.58776  1.0000
  H   H79       1.0  0.50628  0.69436  0.65370  1.0000
  C   C159      1.0  0.56025  0.70054  0.33391  1.0000
  C   C160      1.0  0.39122  0.70082  0.42115  1.0000
  H   H80       1.0  0.38642  0.68895  0.48163  1.0000
