data_image0
_chemical_formula_structural       CNCHNC3H3NC3H3NC3H3CNCHCNCHCNCHCNCHNC3H3NC3H3CNCHNC3H3NC3H3NC3H3CNCHCNCHCNCHCNCHNC3H3NC3H3CNCHCNCHNC3H3NC3H3CNCHCNCHNC3H3NC3H3CNCHCNCHNC3H3NC3H3CNCHCNCHNC3H3NC3H3CNCNCNCNCNCNCNCNCNCNCNCNCNCNCNCNCNCNCNCNCNCNCNCNCNCNCNCNCNCNCNCNCNCNCNCNCNCNCNCNCNCNCNCNCNCNCNCNCNCNCNCNCNCNCNCNCNCNCNCNCNCNCNCNCNCNCNCNCNCNCNCN2C3H3CNCHCNCHCNCHNC3H3NC3H3NC3H3NC3H3CNCHCNCHNC3H3CNCHCNCHCNCHNC3H3NC3H3NC3H3NC3H3CNCHCNCHNC3H3NC3H3CNCHCNCHNC3H3NC3H3CNCHCNCHNC3H3NC3H3CNCHCNCHNC3H3NC3H3CNCHCNCH
_chemical_formula_sum              "C252 N144 H144"
_cell_length_a       41.9435
_cell_length_b       53.331
_cell_length_c       14.8614
_cell_angle_alpha    90
_cell_angle_beta     90
_cell_angle_gamma    90

_space_group_name_H-M_alt    "P 1"
_space_group_IT_number       1

loop_
  _space_group_symop_operation_xyz
  'x, y, z'

loop_
  _atom_site_type_symbol
  _atom_site_label
  _atom_site_symmetry_multiplicity
  _atom_site_fract_x
  _atom_site_fract_y
  _atom_site_fract_z
  _atom_site_occupancy
  C   C1        1.0  0.52363  0.98208  0.35741  1.0000
  N   N1        1.0  0.47460  0.00495  0.34626  1.0000
  C   C2        1.0  0.49029  0.98264  0.34394  1.0000
  H   H1        1.0  0.47764  0.96665  0.33109  1.0000
  N   N2        1.0  0.97179  0.50454  0.31147  1.0000
  C   C3        1.0  0.98711  0.52707  0.30801  1.0000
  C   C4        1.0  0.02075  0.52758  0.32352  1.0000
  C   C5        1.0  0.96685  0.54898  0.28632  1.0000
  H   H2        1.0  0.94227  0.54344  0.27224  1.0000
  H   H3        1.0  0.97606  0.55853  0.22680  1.0000
  H   H4        1.0  0.96640  0.56194  0.34308  1.0000
  N   N3        1.0  0.37028  0.09282  0.32667  1.0000
  C   C6        1.0  0.33891  0.09872  0.32171  1.0000
  C   C7        1.0  0.31624  0.07965  0.34331  1.0000
  C   C8        1.0  0.33212  0.12473  0.29190  1.0000
  H   H5        1.0  0.35374  0.13441  0.27003  1.0000
  H   H6        1.0  0.32193  0.13556  0.34711  1.0000
  H   H7        1.0  0.31559  0.12450  0.23519  1.0000
  N   N4        1.0  0.64118  0.91671  0.32811  1.0000
  C   C9        1.0  0.67275  0.91139  0.32360  1.0000
  C   C10       1.0  0.69490  0.93082  0.34586  1.0000
  C   C11       1.0  0.68032  0.88559  0.29295  1.0000
  H   H8        1.0  0.65902  0.87562  0.27022  1.0000
  H   H9        1.0  0.69065  0.87477  0.34797  1.0000
  H   H10       1.0  0.69700  0.88626  0.23662  1.0000
  C   C12       1.0  0.12621  0.57032  0.33650  1.0000
  N   N5        1.0  0.18060  0.55663  0.32210  1.0000
  C   C13       1.0  0.14867  0.55116  0.31947  1.0000
  H   H11       1.0  0.14139  0.53352  0.30213  1.0000
  C   C14       1.0  0.88163  0.43896  0.33483  1.0000
  N   N6        1.0  0.82768  0.45359  0.31895  1.0000
  C   C15       1.0  0.85975  0.45846  0.31667  1.0000
  H   H12       1.0  0.86756  0.47595  0.29917  1.0000
  C   C16       1.0  0.47808  0.11870  0.35847  1.0000
  N   N7        1.0  0.51880  0.14981  0.34251  1.0000
  C   C17       1.0  0.51025  0.12514  0.34308  1.0000
  H   H13       1.0  0.52698  0.11174  0.32938  1.0000
  C   C18       1.0  0.53215  0.89076  0.35219  1.0000
  N   N8        1.0  0.49127  0.85976  0.33550  1.0000
  C   C19       1.0  0.50001  0.88441  0.33585  1.0000
  H   H14       1.0  0.48340  0.89789  0.32185  1.0000
  N   N9        1.0  0.05126  0.63807  0.31032  1.0000
  C   C20       1.0  0.04330  0.66271  0.30853  1.0000
  C   C21       1.0  0.01090  0.66929  0.32717  1.0000
  C   C22       1.0  0.06999  0.67992  0.28694  1.0000
  H   H15       1.0  0.09189  0.66973  0.27118  1.0000
  H   H16       1.0  0.07502  0.69205  0.34433  1.0000
  H   H17       1.0  0.06394  0.69131  0.22836  1.0000
  N   N10       1.0  0.95744  0.37121  0.31605  1.0000
  C   C23       1.0  0.96556  0.34659  0.31435  1.0000
  C   C24       1.0  0.99792  0.34010  0.33370  1.0000
  C   C25       1.0  0.93909  0.32927  0.29176  1.0000
  H   H18       1.0  0.91715  0.33937  0.27567  1.0000
  H   H19       1.0  0.93400  0.31702  0.34878  1.0000
  H   H20       1.0  0.94542  0.31800  0.23311  1.0000
  C   C26       1.0  0.47046  0.49873  0.35520  1.0000
  N   N11       1.0  0.51294  0.52845  0.34810  1.0000
  C   C27       1.0  0.48108  0.52373  0.34830  1.0000
  H   H21       1.0  0.46542  0.53831  0.34184  1.0000
  N   N12       1.0  0.01563  0.98109  0.32134  1.0000
  C   C28       1.0  0.98361  0.98551  0.32029  1.0000
  C   C29       1.0  0.97300  0.01075  0.32982  1.0000
  C   C30       1.0  0.96259  0.96347  0.30883  1.0000
  H   H22       1.0  0.97635  0.94623  0.30083  1.0000
  H   H23       1.0  0.94783  0.96582  0.24895  1.0000
  H   H24       1.0  0.94733  0.96128  0.36779  1.0000
  N   N13       1.0  0.41992  0.41574  0.33064  1.0000
  C   C31       1.0  0.41827  0.39030  0.32813  1.0000
  C   C32       1.0  0.38780  0.37895  0.34056  1.0000
  C   C33       1.0  0.44871  0.37696  0.31229  1.0000
  H   H25       1.0  0.46833  0.39003  0.30057  1.0000
  H   H26       1.0  0.44663  0.36496  0.25309  1.0000
  H   H27       1.0  0.45484  0.36560  0.37083  1.0000
  N   N14       1.0  0.64082  0.58810  0.31762  1.0000
  C   C34       1.0  0.64958  0.61265  0.31391  1.0000
  C   C35       1.0  0.62581  0.63112  0.33148  1.0000
  C   C36       1.0  0.68326  0.61779  0.29062  1.0000
  H   H28       1.0  0.69614  0.60055  0.27468  1.0000
  H   H29       1.0  0.69532  0.62672  0.34721  1.0000
  H   H30       1.0  0.68443  0.63002  0.23184  1.0000
  C   C37       1.0  0.11446  0.93145  0.34201  1.0000
  N   N15       1.0  0.14668  0.89477  0.33296  1.0000
  C   C38       1.0  0.14462  0.92015  0.33202  1.0000
  H   H31       1.0  0.16478  0.93054  0.32174  1.0000
  C   C39       1.0  0.89833  0.07959  0.34962  1.0000
  N   N16       1.0  0.91348  0.12250  0.33714  1.0000
  C   C40       1.0  0.92193  0.09798  0.33511  1.0000
  H   H32       1.0  0.94502  0.09332  0.32068  1.0000
  C   C41       1.0  0.35604  0.51704  0.35512  1.0000
  N   N17       1.0  0.30144  0.52957  0.33876  1.0000
  C   C42       1.0  0.32381  0.51107  0.33736  1.0000
  H   H33       1.0  0.31702  0.49324  0.32085  1.0000
  C   C43       1.0  0.65132  0.49468  0.34944  1.0000
  N   N18       1.0  0.70600  0.48222  0.33313  1.0000
  C   C44       1.0  0.68353  0.50069  0.33146  1.0000
  H   H34       1.0  0.69020  0.51852  0.31470  1.0000
  N   N19       1.0  0.14725  0.04127  0.30953  1.0000
  C   C45       1.0  0.16925  0.05998  0.30610  1.0000
  C   C46       1.0  0.20168  0.05404  0.32716  1.0000
  C   C47       1.0  0.15675  0.08480  0.27852  1.0000
  H   H35       1.0  0.13187  0.08369  0.25707  1.0000
  H   H36       1.0  0.17061  0.09208  0.22212  1.0000
  H   H37       1.0  0.15790  0.09790  0.33477  1.0000
  N   N20       1.0  0.86391  0.97042  0.31407  1.0000
  C   C48       1.0  0.84187  0.95176  0.31040  1.0000
  C   C49       1.0  0.80946  0.95770  0.33185  1.0000
  C   C50       1.0  0.85441  0.92700  0.28218  1.0000
  H   H38       1.0  0.87924  0.92819  0.26035  1.0000
  H   H39       1.0  0.84046  0.91977  0.22587  1.0000
  H   H40       1.0  0.85343  0.91382  0.33823  1.0000
  C   C51       1.0  0.23215  0.13996  0.36722  1.0000
  N   N21       1.0  0.20251  0.17670  0.33025  1.0000
  C   C52       1.0  0.20752  0.15173  0.31838  1.0000
  H   H41       1.0  0.19484  0.14229  0.27036  1.0000
  C   C53       1.0  0.77972  0.87157  0.37038  1.0000
  N   N22       1.0  0.80920  0.83496  0.33107  1.0000
  C   C54       1.0  0.80440  0.86001  0.32109  1.0000
  H   H42       1.0  0.81721  0.86967  0.27392  1.0000
  N   N23       1.0  0.26172  0.65406  0.25615  1.0000
  C   C55       1.0  0.26754  0.67873  0.24034  1.0000
  C   C56       1.0  0.29067  0.69106  0.29460  1.0000
  C   C57       1.0  0.25129  0.68940  0.16102  1.0000
  H   H43       1.0  0.25508  0.67720  0.10297  1.0000
  H   H44       1.0  0.26052  0.70782  0.14325  1.0000
  H   H45       1.0  0.22574  0.69062  0.17378  1.0000
  N   N24       1.0  0.74555  0.35718  0.25484  1.0000
  C   C58       1.0  0.73995  0.33240  0.24092  1.0000
  C   C59       1.0  0.71667  0.32036  0.29548  1.0000
  C   C60       1.0  0.75671  0.32123  0.16330  1.0000
  H   H46       1.0  0.75305  0.33294  0.10391  1.0000
  H   H47       1.0  0.74781  0.30259  0.14706  1.0000
  H   H48       1.0  0.78220  0.32032  0.17718  1.0000
  C   C61       1.0  0.31480  0.30722  0.37413  1.0000
  N   N25       1.0  0.26007  0.29810  0.34696  1.0000
  C   C62       1.0  0.28484  0.31460  0.34064  1.0000
  H   H49       1.0  0.28198  0.33116  0.30698  1.0000
  C   C63       1.0  0.69430  0.70550  0.35804  1.0000
  N   N26       1.0  0.74962  0.71381  0.33855  1.0000
  C   C64       1.0  0.72476  0.69747  0.33078  1.0000
  H   H50       1.0  0.72816  0.68027  0.30193  1.0000
  N   N27       1.0  0.19337  0.78448  0.27047  1.0000
  C   C65       1.0  0.21753  0.76809  0.26103  1.0000
  C   C66       1.0  0.24730  0.77489  0.29937  1.0000
  C   C67       1.0  0.20964  0.74490  0.21163  1.0000
  H   H51       1.0  0.18559  0.74541  0.18356  1.0000
  H   H52       1.0  0.21093  0.72886  0.25691  1.0000
  H   H53       1.0  0.22620  0.74263  0.15573  1.0000
  N   N28       1.0  0.81664  0.22868  0.29065  1.0000
  C   C68       1.0  0.79249  0.24505  0.28032  1.0000
  C   C69       1.0  0.76202  0.23748  0.31200  1.0000
  C   C70       1.0  0.80092  0.26870  0.23446  1.0000
  H   H54       1.0  0.82564  0.26886  0.21154  1.0000
  H   H55       1.0  0.79783  0.28450  0.28015  1.0000
  H   H56       1.0  0.78588  0.27088  0.17525  1.0000
  C   C71       1.0  0.47448  0.25718  0.35301  1.0000
  N   N29       1.0  0.45430  0.29863  0.33350  1.0000
  C   C72       1.0  0.47927  0.28250  0.32917  1.0000
  H   H57       1.0  0.50068  0.28883  0.30593  1.0000
  C   C73       1.0  0.53415  0.75181  0.34995  1.0000
  N   N30       1.0  0.55473  0.71063  0.32521  1.0000
  C   C74       1.0  0.52988  0.72692  0.32009  1.0000
  H   H58       1.0  0.50915  0.72119  0.29061  1.0000
  N   N31       1.0  0.06426  0.75075  0.30325  1.0000
  C   C75       1.0  0.08940  0.76656  0.29686  1.0000
  C   C76       1.0  0.08472  0.79201  0.32370  1.0000
  C   C77       1.0  0.11902  0.75513  0.26142  1.0000
  H   H59       1.0  0.11523  0.73582  0.23924  1.0000
  H   H60       1.0  0.13722  0.75478  0.31379  1.0000
  H   H61       1.0  0.12755  0.76584  0.20366  1.0000
  N   N32       1.0  0.94656  0.25753  0.29945  1.0000
  C   C78       1.0  0.92174  0.24149  0.29123  1.0000
  C   C79       1.0  0.92555  0.21662  0.32548  1.0000
  C   C80       1.0  0.89308  0.25225  0.24788  1.0000
  H   H62       1.0  0.89800  0.27049  0.21737  1.0000
  H   H63       1.0  0.87454  0.25497  0.29829  1.0000
  H   H64       1.0  0.88451  0.23980  0.19485  1.0000
  C   C81       1.0  0.14793  0.26213  0.37252  1.0000
  N   N33       1.0  0.10724  0.29258  0.34626  1.0000
  C   C82       1.0  0.13876  0.28651  0.34624  1.0000
  H   H65       1.0  0.15512  0.29931  0.32412  1.0000
  C   C83       1.0  0.86184  0.74838  0.36744  1.0000
  N   N34       1.0  0.90201  0.71773  0.33823  1.0000
  C   C84       1.0  0.87060  0.72416  0.33838  1.0000
  H   H66       1.0  0.85408  0.71182  0.31402  1.0000
  N   N35       1.0  0.38489  0.74683  0.28390  1.0000
  C   C85       1.0  0.41626  0.75262  0.28090  1.0000
  C   C86       1.0  0.42575  0.77681  0.31233  1.0000
  C   C87       1.0  0.43704  0.73263  0.24414  1.0000
  H   H67       1.0  0.42318  0.71759  0.21302  1.0000
  H   H68       1.0  0.45101  0.72433  0.29828  1.0000
  H   H69       1.0  0.45287  0.74032  0.19279  1.0000
  N   N36       1.0  0.62379  0.26324  0.28654  1.0000
  C   C88       1.0  0.59256  0.25705  0.28335  1.0000
  C   C89       1.0  0.58342  0.23308  0.31754  1.0000
  C   C90       1.0  0.57153  0.27644  0.24379  1.0000
  H   H70       1.0  0.58519  0.29117  0.21016  1.0000
  H   H71       1.0  0.55761  0.28529  0.29685  1.0000
  H   H72       1.0  0.55566  0.26806  0.19393  1.0000
  C   C91       1.0  0.41724  0.06918  0.35382  1.0000
  N   N37       1.0  0.43596  0.04816  0.35700  1.0000
  C   C92       1.0  0.46871  0.04948  0.36017  1.0000
  N   N38       1.0  0.48215  0.07278  0.35948  1.0000
  C   C93       1.0  0.46482  0.09420  0.35732  1.0000
  N   N39       1.0  0.43272  0.09157  0.35452  1.0000
  C   C94       1.0  0.59365  0.93983  0.35352  1.0000
  N   N40       1.0  0.57527  0.96096  0.35604  1.0000
  C   C95       1.0  0.54257  0.95989  0.35546  1.0000
  N   N41       1.0  0.52837  0.93684  0.35310  1.0000
  C   C96       1.0  0.54561  0.91525  0.35197  1.0000
  N   N42       1.0  0.57785  0.91757  0.35193  1.0000
  C   C97       1.0  0.09213  0.56917  0.33158  1.0000
  N   N43       1.0  0.07342  0.54814  0.32842  1.0000
  C   C98       1.0  0.04067  0.54946  0.32524  1.0000
  N   N44       1.0  0.02721  0.57275  0.32590  1.0000
  C   C99       1.0  0.04454  0.59418  0.32804  1.0000
  N   N45       1.0  0.07664  0.59156  0.33084  1.0000
  C   C100      1.0  0.91573  0.43982  0.33197  1.0000
  N   N46       1.0  0.93411  0.46094  0.32936  1.0000
  C   C101      1.0  0.96681  0.45986  0.32995  1.0000
  N   N47       1.0  0.98100  0.43680  0.33236  1.0000
  C   C102      1.0  0.96376  0.41522  0.33354  1.0000
  N   N48       1.0  0.93152  0.41755  0.33358  1.0000
  C   C103      1.0  0.40041  0.45762  0.34659  1.0000
  N   N49       1.0  0.37626  0.47461  0.34856  1.0000
  C   C104      1.0  0.38180  0.49971  0.35286  1.0000
  N   N50       1.0  0.41283  0.50760  0.35531  1.0000
  C   C105      1.0  0.43786  0.49124  0.35345  1.0000
  N   N51       1.0  0.43080  0.46641  0.34911  1.0000
  C   C106      1.0  0.60522  0.55349  0.34035  1.0000
  N   N52       1.0  0.62994  0.53696  0.34083  1.0000
  C   C107      1.0  0.62529  0.51181  0.34740  1.0000
  N   N53       1.0  0.59454  0.50353  0.35290  1.0000
  C   C108      1.0  0.56880  0.51917  0.35203  1.0000
  N   N54       1.0  0.57511  0.54414  0.34600  1.0000
  C   C109      1.0  0.10892  0.95760  0.33858  1.0000
  N   N55       1.0  0.13308  0.97458  0.33679  1.0000
  C   C110      1.0  0.12754  0.99969  0.33261  1.0000
  N   N56       1.0  0.09652  0.00759  0.33010  1.0000
  C   C111      1.0  0.07149  0.99123  0.33177  1.0000
  N   N57       1.0  0.07853  0.96640  0.33599  1.0000
  C   C112      1.0  0.90412  0.05347  0.34502  1.0000
  N   N58       1.0  0.87940  0.03693  0.34444  1.0000
  C   C113      1.0  0.88407  0.01179  0.33772  1.0000
  N   N59       1.0  0.91482  0.00352  0.33215  1.0000
  C   C114      1.0  0.94056  0.01917  0.33310  1.0000
  N   N60       1.0  0.93424  0.04414  0.33932  1.0000
  C   C115      1.0  0.28235  0.08388  0.34604  1.0000
  N   N61       1.0  0.25914  0.06589  0.33608  1.0000
  C   C116      1.0  0.22718  0.07182  0.33424  1.0000
  N   N62       1.0  0.21931  0.09636  0.34426  1.0000
  C   C117      1.0  0.24103  0.11467  0.35648  1.0000
  N   N63       1.0  0.27202  0.10781  0.35799  1.0000
  C   C118      1.0  0.72892  0.92719  0.34918  1.0000
  N   N64       1.0  0.75189  0.94544  0.33990  1.0000
  C   C119      1.0  0.78398  0.93982  0.33873  1.0000
  N   N65       1.0  0.79214  0.91534  0.34874  1.0000
  C   C120      1.0  0.77068  0.89683  0.36044  1.0000
  N   N66       1.0  0.73961  0.90339  0.36121  1.0000
  C   C121      1.0  0.22702  0.58392  0.33940  1.0000
  N   N67       1.0  0.25022  0.56592  0.34942  1.0000
  C   C122      1.0  0.28218  0.57184  0.35128  1.0000
  N   N68       1.0  0.29006  0.59638  0.34127  1.0000
  C   C123      1.0  0.26835  0.61469  0.32899  1.0000
  N   N69       1.0  0.23736  0.60784  0.32743  1.0000
  C   C124      1.0  0.78045  0.42721  0.33625  1.0000
  N   N70       1.0  0.75747  0.44546  0.34540  1.0000
  C   C125      1.0  0.72539  0.43985  0.34650  1.0000
  N   N71       1.0  0.71723  0.41536  0.33655  1.0000
  C   C126      1.0  0.73869  0.39685  0.32498  1.0000
  N   N72       1.0  0.76976  0.40341  0.32428  1.0000
  C   C127      1.0  0.34455  0.31918  0.36232  1.0000
  N   N73       1.0  0.35074  0.34407  0.35253  1.0000
  C   C128      1.0  0.38142  0.35275  0.34516  1.0000
  N   N74       1.0  0.40564  0.33563  0.34843  1.0000
  C   C129      1.0  0.40045  0.31065  0.35827  1.0000
  N   N75       1.0  0.36987  0.30357  0.36431  1.0000
  C   C130      1.0  0.66499  0.69275  0.34923  1.0000
  N   N76       1.0  0.66042  0.66772  0.33970  1.0000
  C   C131      1.0  0.63053  0.65754  0.33605  1.0000
  N   N77       1.0  0.60490  0.67339  0.34352  1.0000
  C   C132      1.0  0.60854  0.69861  0.35411  1.0000
  N   N78       1.0  0.63865  0.70713  0.35558  1.0000
  C   C133      1.0  0.16472  0.81915  0.32293  1.0000
  N   N79       1.0  0.15855  0.84404  0.33273  1.0000
  C   C134      1.0  0.12787  0.85272  0.33998  1.0000
  N   N80       1.0  0.10364  0.83561  0.33663  1.0000
  C   C135      1.0  0.10882  0.81063  0.32684  1.0000
  N   N81       1.0  0.13940  0.80354  0.32091  1.0000
  C   C136      1.0  0.84427  0.19271  0.33609  1.0000
  N   N82       1.0  0.84884  0.16769  0.34567  1.0000
  C   C137      1.0  0.87872  0.15751  0.34946  1.0000
  N   N83       1.0  0.90436  0.17338  0.34219  1.0000
  C   C138      1.0  0.90072  0.19859  0.33171  1.0000
  N   N84       1.0  0.87061  0.20711  0.33002  1.0000
  C   C139      1.0  0.23514  0.25878  0.38425  1.0000
  N   N85       1.0  0.20511  0.26806  0.37584  1.0000
  C   C140      1.0  0.17931  0.25263  0.37433  1.0000
  N   N86       1.0  0.18406  0.22737  0.38039  1.0000
  C   C141      1.0  0.21361  0.21733  0.38903  1.0000
  N   N87       1.0  0.23860  0.23345  0.38996  1.0000
  C   C142      1.0  0.77465  0.75310  0.37491  1.0000
  N   N88       1.0  0.80449  0.74337  0.36736  1.0000
  C   C143      1.0  0.83072  0.75835  0.36904  1.0000
  N   N89       1.0  0.82664  0.78363  0.37758  1.0000
  C   C144      1.0  0.79732  0.79407  0.38570  1.0000
  N   N90       1.0  0.77191  0.77840  0.38325  1.0000
  C   C145      1.0  0.27419  0.75877  0.30126  1.0000
  N   N91       1.0  0.30421  0.76807  0.30963  1.0000
  C   C146      1.0  0.33003  0.75266  0.31105  1.0000
  N   N92       1.0  0.32531  0.72740  0.30498  1.0000
  C   C147      1.0  0.29577  0.71734  0.29641  1.0000
  N   N93       1.0  0.27076  0.73344  0.29551  1.0000
  C   C148      1.0  0.73465  0.25310  0.31052  1.0000
  N   N94       1.0  0.70480  0.24339  0.31805  1.0000
  C   C149      1.0  0.67859  0.25839  0.31641  1.0000
  N   N95       1.0  0.68269  0.28366  0.30793  1.0000
  C   C150      1.0  0.71203  0.29409  0.29987  1.0000
  N   N96       1.0  0.73741  0.27840  0.30225  1.0000
  C   C151      1.0  0.01003  0.31498  0.33976  1.0000
  N   N97       1.0  0.04145  0.30895  0.35361  1.0000
  C   C152      1.0  0.05135  0.28454  0.36263  1.0000
  N   N98       1.0  0.02897  0.26633  0.35579  1.0000
  C   C153      1.0  0.99787  0.27112  0.34225  1.0000
  N   N99       1.0  0.98930  0.29548  0.33465  1.0000
  C   C154      1.0  0.99894  0.69440  0.33348  1.0000
  N   N100      1.0  0.96757  0.70060  0.34713  1.0000
  C   C155      1.0  0.95798  0.72506  0.35654  1.0000
  N   N101      1.0  0.98056  0.74315  0.35018  1.0000
  C   C156      1.0  0.01163  0.73812  0.33701  1.0000
  N   N102      1.0  0.01989  0.71373  0.32926  1.0000
  C   C157      1.0  0.49929  0.81502  0.34595  1.0000
  N   N103      1.0  0.46787  0.80900  0.33204  1.0000
  C   C158      1.0  0.45796  0.78460  0.32308  1.0000
  N   N104      1.0  0.48033  0.76638  0.32998  1.0000
  C   C159      1.0  0.51143  0.77116  0.34358  1.0000
  N   N105      1.0  0.52001  0.79552  0.35115  1.0000
  C   C160      1.0  0.51036  0.19443  0.35172  1.0000
  N   N106      1.0  0.54173  0.20064  0.33811  1.0000
  C   C161      1.0  0.55132  0.22511  0.32866  1.0000
  N   N107      1.0  0.52873  0.24319  0.33496  1.0000
  C   C162      1.0  0.49765  0.23815  0.34813  1.0000
  N   N108      1.0  0.48940  0.21376  0.35592  1.0000
  N   N109      1.0  0.53760  0.00458  0.37385  1.0000
  C   C163      1.0  0.52228  0.02710  0.37730  1.0000
  C   C164      1.0  0.48863  0.02760  0.36188  1.0000
  C   C165      1.0  0.54254  0.04902  0.39891  1.0000
  H   H73       1.0  0.56712  0.04348  0.41292  1.0000
  H   H74       1.0  0.53335  0.05857  0.45844  1.0000
  H   H75       1.0  0.54296  0.06198  0.34214  1.0000
  C   C166      1.0  0.98576  0.48205  0.32797  1.0000
  N   N110      1.0  0.03478  0.50492  0.33918  1.0000
  C   C167      1.0  0.01910  0.48261  0.34148  1.0000
  H   H76       1.0  0.03175  0.46663  0.35440  1.0000
  C   C168      1.0  0.38315  0.07032  0.34891  1.0000
  N   N111      1.0  0.32878  0.05661  0.36346  1.0000
  C   C169      1.0  0.36071  0.05116  0.36608  1.0000
  H   H77       1.0  0.36801  0.03354  0.38361  1.0000
  C   C170      1.0  0.62775  0.93896  0.35061  1.0000
  N   N112      1.0  0.68171  0.95360  0.36630  1.0000
  C   C171      1.0  0.64964  0.95848  0.36850  1.0000
  H   H78       1.0  0.64184  0.97597  0.38599  1.0000
  N   N113      1.0  0.13908  0.59285  0.35849  1.0000
  C   C172      1.0  0.17044  0.59877  0.36338  1.0000
  C   C173      1.0  0.19312  0.57969  0.34203  1.0000
  C   C174      1.0  0.17720  0.62480  0.39298  1.0000
  H   H79       1.0  0.15557  0.63449  0.41466  1.0000
  H   H80       1.0  0.18743  0.63559  0.33771  1.0000
  H   H81       1.0  0.19371  0.62461  0.44976  1.0000
  N   N114      1.0  0.86818  0.41672  0.35756  1.0000
  C   C175      1.0  0.83661  0.41142  0.36209  1.0000
  C   C176      1.0  0.81447  0.43084  0.33961  1.0000
  C   C177      1.0  0.82902  0.38565  0.39301  1.0000
  H   H82       1.0  0.85030  0.37569  0.41591  1.0000
  H   H83       1.0  0.81870  0.37478  0.33808  1.0000
  H   H84       1.0  0.81232  0.38638  0.44928  1.0000
  N   N115      1.0  0.45807  0.13810  0.37501  1.0000
  C   C178      1.0  0.46603  0.16274  0.37678  1.0000
  C   C179      1.0  0.49842  0.16932  0.35815  1.0000
  C   C180      1.0  0.43933  0.17995  0.39832  1.0000
  H   H85       1.0  0.41743  0.16974  0.41409  1.0000
  H   H86       1.0  0.43429  0.19206  0.34090  1.0000
  H   H87       1.0  0.44537  0.19135  0.45686  1.0000
  N   N116      1.0  0.55191  0.87124  0.36954  1.0000
  C   C181      1.0  0.54378  0.84662  0.37131  1.0000
  C   C182      1.0  0.51142  0.84014  0.35195  1.0000
  C   C183      1.0  0.57024  0.82929  0.39395  1.0000
  H   H88       1.0  0.59218  0.83940  0.41000  1.0000
  H   H89       1.0  0.57533  0.81703  0.33696  1.0000
  H   H90       1.0  0.56389  0.81804  0.45262  1.0000
  C   C184      1.0  0.03126  0.61867  0.32689  1.0000
  N   N117      1.0  0.99053  0.64978  0.34282  1.0000
  C   C185      1.0  0.99910  0.62510  0.34235  1.0000
  H   H91       1.0  0.98236  0.61170  0.35589  1.0000
  C   C186      1.0  0.97721  0.39073  0.33336  1.0000
  N   N118      1.0  0.01808  0.35972  0.35010  1.0000
  C   C187      1.0  0.00935  0.38438  0.34969  1.0000
  H   H92       1.0  0.02596  0.39785  0.36365  1.0000
  N   N119      1.0  0.49373  0.48105  0.36276  1.0000
  C   C188      1.0  0.52575  0.48548  0.36369  1.0000
  C   C189      1.0  0.53636  0.51074  0.35521  1.0000
  C   C190      1.0  0.54678  0.46338  0.37375  1.0000
  H   H93       1.0  0.53302  0.44611  0.38089  1.0000
  H   H94       1.0  0.56159  0.46547  0.43365  1.0000
  H   H95       1.0  0.56198  0.46145  0.31458  1.0000
  C   C191      1.0  0.03889  0.99873  0.32992  1.0000
  N   N120      1.0  0.99641  0.02843  0.33794  1.0000
  C   C192      1.0  0.02827  0.02371  0.33778  1.0000
  H   H96       1.0  0.04392  0.03826  0.34514  1.0000
  C   C193      1.0  0.39486  0.43147  0.34312  1.0000
  N   N121      1.0  0.36263  0.39480  0.35235  1.0000
  C   C194      1.0  0.36470  0.42018  0.35335  1.0000
  H   H97       1.0  0.34455  0.43058  0.36369  1.0000
  C   C195      1.0  0.61098  0.57961  0.33586  1.0000
  N   N122      1.0  0.59584  0.62250  0.34893  1.0000
  C   C196      1.0  0.58741  0.59798  0.35101  1.0000
  H   H98       1.0  0.56437  0.59330  0.36588  1.0000
  N   N123      1.0  0.08938  0.91573  0.35431  1.0000
  C   C197      1.0  0.09102  0.89028  0.35680  1.0000
  C   C198      1.0  0.12149  0.87893  0.34456  1.0000
  C   C199      1.0  0.06056  0.87695  0.37242  1.0000
  H   H99       1.0  0.04093  0.89003  0.38400  1.0000
  H   H100      1.0  0.06257  0.86495  0.43163  1.0000
  H   H101      1.0  0.05448  0.86560  0.31382  1.0000
  N   N124      1.0  0.86845  0.08807  0.36723  1.0000
  C   C200      1.0  0.85964  0.11261  0.37087  1.0000
  C   C201      1.0  0.88346  0.13109  0.35394  1.0000
  C   C202      1.0  0.82589  0.11771  0.39336  1.0000
  H   H102      1.0  0.81297  0.10045  0.40880  1.0000
  H   H103      1.0  0.81400  0.12668  0.33656  1.0000
  H   H104      1.0  0.82453  0.12989  0.45223  1.0000
  N   N125      1.0  0.36210  0.54129  0.37616  1.0000
  C   C203      1.0  0.34009  0.55999  0.37962  1.0000
  C   C204      1.0  0.30767  0.55406  0.35843  1.0000
  C   C205      1.0  0.35258  0.58480  0.40735  1.0000
  H   H105      1.0  0.37745  0.58368  0.42891  1.0000
  H   H106      1.0  0.33868  0.59206  0.46372  1.0000
  H   H107      1.0  0.35147  0.59792  0.35115  1.0000
  N   N126      1.0  0.64545  0.47044  0.37092  1.0000
  C   C206      1.0  0.66749  0.45178  0.37460  1.0000
  C   C207      1.0  0.69990  0.45772  0.35322  1.0000
  C   C208      1.0  0.65493  0.42701  0.40272  1.0000
  H   H108      1.0  0.63008  0.42820  0.42444  1.0000
  H   H109      1.0  0.66884  0.41978  0.45909  1.0000
  H   H110      1.0  0.65594  0.41384  0.34666  1.0000
  C   C209      1.0  0.15331  0.01702  0.33043  1.0000
  N   N127      1.0  0.20791  0.02954  0.34670  1.0000
  C   C210      1.0  0.18554  0.01104  0.34807  1.0000
  H   H111      1.0  0.19234  0.99321  0.36452  1.0000
  C   C211      1.0  0.85804  0.99466  0.33564  1.0000
  N   N128      1.0  0.80338  0.98219  0.35209  1.0000
  C   C212      1.0  0.82584  0.00066  0.35372  1.0000
  H   H112      1.0  0.81918  0.01848  0.37068  1.0000
  N   N129      1.0  0.24772  0.15405  0.42913  1.0000
  C   C213      1.0  0.24194  0.17874  0.44482  1.0000
  C   C214      1.0  0.21877  0.19105  0.39066  1.0000
  C   C215      1.0  0.25816  0.18938  0.52425  1.0000
  H   H113      1.0  0.25436  0.17717  0.58225  1.0000
  H   H114      1.0  0.24891  0.20779  0.54206  1.0000
  H   H115      1.0  0.28371  0.19062  0.51155  1.0000
  N   N130      1.0  0.76384  0.85718  0.43071  1.0000
  C   C216      1.0  0.76944  0.83240  0.44472  1.0000
  C   C217      1.0  0.79270  0.82034  0.39011  1.0000
  C   C218      1.0  0.75263  0.82122  0.52220  1.0000
  H   H116      1.0  0.75626  0.83292  0.58165  1.0000
  H   H117      1.0  0.76150  0.80258  0.53844  1.0000
  H   H118      1.0  0.72714  0.82032  0.50819  1.0000
  C   C219      1.0  0.27725  0.63998  0.31817  1.0000
  N   N131      1.0  0.30686  0.67672  0.35521  1.0000
  C   C220      1.0  0.30187  0.65175  0.36705  1.0000
  H   H119      1.0  0.31445  0.64234  0.41536  1.0000
  C   C221      1.0  0.72966  0.37159  0.31510  1.0000
  N   N132      1.0  0.70014  0.33499  0.35442  1.0000
  C   C222      1.0  0.70493  0.36005  0.36430  1.0000
  H   H120      1.0  0.69215  0.36972  0.41149  1.0000
  N   N133      1.0  0.31591  0.28457  0.41522  1.0000
  C   C223      1.0  0.29176  0.26817  0.42469  1.0000
  C   C224      1.0  0.26200  0.27492  0.38617  1.0000
  C   C225      1.0  0.29965  0.24500  0.47426  1.0000
  H   H121      1.0  0.32368  0.24555  0.50248  1.0000
  H   H122      1.0  0.29842  0.22895  0.42905  1.0000
  H   H123      1.0  0.28305  0.24274  0.53007  1.0000
  N   N134      1.0  0.69263  0.72872  0.39461  1.0000
  C   C226      1.0  0.71679  0.74507  0.40496  1.0000
  C   C227      1.0  0.74727  0.73750  0.37334  1.0000
  C   C228      1.0  0.70837  0.76873  0.45078  1.0000
  H   H124      1.0  0.68365  0.76891  0.47365  1.0000
  H   H125      1.0  0.71149  0.78453  0.40510  1.0000
  H   H126      1.0  0.72340  0.77091  0.51003  1.0000
  C   C229      1.0  0.19448  0.80716  0.31141  1.0000
  N   N135      1.0  0.24923  0.79810  0.33831  1.0000
  C   C230      1.0  0.22446  0.81461  0.34452  1.0000
  H   H127      1.0  0.22731  0.83118  0.37807  1.0000
  C   C231      1.0  0.81497  0.20547  0.32727  1.0000
  N   N136      1.0  0.75965  0.21380  0.34683  1.0000
  C   C232      1.0  0.78450  0.19744  0.35452  1.0000
  H   H128      1.0  0.78110  0.18027  0.38356  1.0000
  N   N137      1.0  0.44501  0.25077  0.38181  1.0000
  C   C233      1.0  0.41986  0.26657  0.38816  1.0000
  C   C234      1.0  0.42455  0.29203  0.36132  1.0000
  C   C235      1.0  0.39025  0.25515  0.42364  1.0000
  H   H129      1.0  0.39403  0.23583  0.44576  1.0000
  H   H130      1.0  0.37203  0.25481  0.37129  1.0000
  H   H131      1.0  0.38174  0.26585  0.48142  1.0000
  N   N138      1.0  0.56272  0.75755  0.38645  1.0000
  C   C236      1.0  0.58753  0.74149  0.39466  1.0000
  C   C237      1.0  0.58371  0.71662  0.36042  1.0000
  C   C238      1.0  0.61619  0.75224  0.43807  1.0000
  H   H132      1.0  0.61128  0.77047  0.46867  1.0000
  H   H133      1.0  0.63473  0.75498  0.38766  1.0000
  H   H134      1.0  0.62476  0.73976  0.49102  1.0000
  C   C239      1.0  0.03480  0.75716  0.33206  1.0000
  N   N139      1.0  0.05496  0.79861  0.35159  1.0000
  C   C240      1.0  0.03000  0.78248  0.35588  1.0000
  H   H135      1.0  0.00861  0.78880  0.37928  1.0000
  C   C241      1.0  0.97514  0.25178  0.33590  1.0000
  N   N140      1.0  0.95454  0.21061  0.36061  1.0000
  C   C242      1.0  0.97940  0.22688  0.36568  1.0000
  H   H136      1.0  0.00012  0.22115  0.39520  1.0000
  N   N141      1.0  0.12444  0.24674  0.40130  1.0000
  C   C243      1.0  0.09306  0.25252  0.40434  1.0000
  C   C244      1.0  0.08356  0.27673  0.37319  1.0000
  C   C245      1.0  0.07230  0.23249  0.44090  1.0000
  H   H137      1.0  0.08617  0.21742  0.47176  1.0000
  H   H138      1.0  0.05830  0.22425  0.38671  1.0000
  H   H139      1.0  0.05650  0.24013  0.49243  1.0000
  N   N142      1.0  0.88551  0.76319  0.39884  1.0000
  C   C246      1.0  0.91675  0.75700  0.40197  1.0000
  C   C247      1.0  0.92588  0.73304  0.36767  1.0000
  C   C248      1.0  0.93779  0.77638  0.44155  1.0000
  H   H140      1.0  0.92413  0.79109  0.47527  1.0000
  H   H141      1.0  0.95168  0.78524  0.38850  1.0000
  H   H142      1.0  0.95367  0.76798  0.49135  1.0000
  C   C249      1.0  0.36139  0.76219  0.31285  1.0000
  N   N143      1.0  0.40207  0.79263  0.33940  1.0000
  C   C250      1.0  0.37055  0.78655  0.33931  1.0000
  H   H143      1.0  0.35419  0.79932  0.36166  1.0000
  C   C251      1.0  0.64746  0.24843  0.31794  1.0000
  N   N144      1.0  0.60728  0.21778  0.34705  1.0000
  C   C252      1.0  0.63869  0.22420  0.34691  1.0000
  H   H144      1.0  0.65520  0.21186  0.37143  1.0000
