data_image0
_chemical_formula_structural       C3NC3NC5NC5NC36H26C4H4CNC2O2HNCNC2O2HNC16H16NC3O2HN2C3O2HN
_chemical_formula_sum              "C84 N12 H50 O8"
_cell_length_a       34.241
_cell_length_b       34.241
_cell_length_c       14.6386
_cell_angle_alpha    90
_cell_angle_beta     90
_cell_angle_gamma    90.1689

_space_group_name_H-M_alt    "P 1"
_space_group_IT_number       1

loop_
  _space_group_symop_operation_xyz
  'x, y, z'

loop_
  _atom_site_type_symbol
  _atom_site_label
  _atom_site_symmetry_multiplicity
  _atom_site_fract_x
  _atom_site_fract_y
  _atom_site_fract_z
  _atom_site_occupancy
  C   C1        1.0  0.90903  0.93884  0.34334  1.0000
  C   C2        1.0  0.93767  0.91051  0.34316  1.0000
  C   C3        1.0  0.97409  0.92904  0.34328  1.0000
  N   N1        1.0  0.96604  0.96787  0.34332  1.0000
  C   C4        1.0  0.92712  0.97549  0.34285  1.0000
  C   C5        1.0  0.90705  0.01194  0.34207  1.0000
  C   C6        1.0  0.92585  0.04906  0.34192  1.0000
  N   N2        1.0  0.96462  0.05694  0.34309  1.0000
  C   C7        1.0  0.97213  0.09577  0.34163  1.0000
  C   C8        1.0  0.93569  0.11400  0.33975  1.0000
  C   C9        1.0  0.90727  0.08530  0.33955  1.0000
  C   C10       1.0  0.00906  0.11495  0.34180  1.0000
  C   C11       1.0  0.04572  0.09534  0.34259  1.0000
  N   N3        1.0  0.05375  0.05652  0.34323  1.0000
  C   C12       1.0  0.09267  0.04891  0.34253  1.0000
  C   C13       1.0  0.11078  0.08555  0.34216  1.0000
  C   C14       1.0  0.08214  0.11388  0.34188  1.0000
  C   C15       1.0  0.11270  0.01246  0.34217  1.0000
  C   C16       1.0  0.09393  0.97534  0.34228  1.0000
  N   N4        1.0  0.05517  0.96744  0.34315  1.0000
  C   C17       1.0  0.04768  0.92860  0.34223  1.0000
  C   C18       1.0  0.08414  0.91039  0.34100  1.0000
  C   C19       1.0  0.11255  0.93910  0.34069  1.0000
  C   C20       1.0  0.01076  0.90942  0.34258  1.0000
  C   C21       1.0  0.01066  0.86759  0.34001  1.0000
  C   C22       1.0  0.01521  0.84764  0.25630  1.0000
  C   C23       1.0  0.01610  0.80653  0.25359  1.0000
  C   C24       1.0  0.01252  0.78372  0.33412  1.0000
  C   C25       1.0  0.01436  0.74174  0.33070  1.0000
  C   C26       1.0  0.01659  0.65777  0.31698  1.0000
  C   C27       1.0  0.04201  0.68159  0.26482  1.0000
  C   C28       1.0  0.04105  0.72258  0.27197  1.0000
  C   C29       1.0  0.15452  0.01311  0.33934  1.0000
  C   C30       1.0  0.17433  0.01829  0.25561  1.0000
  C   C31       1.0  0.21544  0.01945  0.25259  1.0000
  C   C32       1.0  0.23838  0.01550  0.33279  1.0000
  C   C33       1.0  0.28036  0.01738  0.32906  1.0000
  C   C34       1.0  0.29961  0.04430  0.27076  1.0000
  C   C35       1.0  0.34059  0.04531  0.26339  1.0000
  C   C36       1.0  0.36433  0.01970  0.31486  1.0000
  C   C37       1.0  0.00919  0.15676  0.33839  1.0000
  C   C38       1.0  0.00682  0.24055  0.33089  1.0000
  C   C39       1.0  0.00385  0.21748  0.25065  1.0000
  C   C40       1.0  0.00502  0.17639  0.25414  1.0000
  C   C41       1.0  0.00377  0.28242  0.32702  1.0000
  C   C42       1.0  0.97595  0.30057  0.26950  1.0000
  C   C43       1.0  0.97261  0.34147  0.26467  1.0000
  C   C44       1.0  0.99686  0.36640  0.31728  1.0000
  C   C45       1.0  0.86522  0.01131  0.33893  1.0000
  C   C46       1.0  0.84553  0.00430  0.25573  1.0000
  C   C47       1.0  0.80443  0.00284  0.25251  1.0000
  C   C48       1.0  0.78139  0.00845  0.33196  1.0000
  C   C49       1.0  0.73950  0.00541  0.32854  1.0000
  C   C50       1.0  0.65549  0.99879  0.31876  1.0000
  C   C51       1.0  0.68021  0.97247  0.27176  1.0000
  C   C52       1.0  0.72115  0.97568  0.27660  1.0000
  H   H1        1.0  0.66861  0.95039  0.23303  1.0000
  H   H2        1.0  0.73751  0.95544  0.24239  1.0000
  H   H3        1.0  0.79143  0.99791  0.19064  1.0000
  H   H4        1.0  0.86104  0.99996  0.19684  1.0000
  H   H5        1.0  0.87973  0.93304  0.34337  1.0000
  H   H6        1.0  0.93225  0.88115  0.34285  1.0000
  H   H7        1.0  0.98577  0.98781  0.34266  1.0000
  H   H8        1.0  0.03402  0.03658  0.34333  1.0000
  H   H9        1.0  0.87790  0.09052  0.33769  1.0000
  H   H10       1.0  0.93019  0.14332  0.33828  1.0000
  H   H11       1.0  0.00246  0.16085  0.19469  1.0000
  H   H12       1.0  0.00097  0.23046  0.18807  1.0000
  H   H13       1.0  0.08757  0.14324  0.34099  1.0000
  H   H14       1.0  0.14008  0.09132  0.34170  1.0000
  H   H15       1.0  0.08966  0.88107  0.34018  1.0000
  H   H16       1.0  0.14192  0.93391  0.33942  1.0000
  H   H17       1.0  0.15892  0.02130  0.19611  1.0000
  H   H18       1.0  0.22851  0.02269  0.19020  1.0000
  H   H19       1.0  0.35297  0.06496  0.21917  1.0000
  H   H20       1.0  0.28388  0.06373  0.23259  1.0000
  H   H21       1.0  0.06033  0.73836  0.23327  1.0000
  H   H22       1.0  0.06146  0.66928  0.22023  1.0000
  H   H23       1.0  0.01899  0.79337  0.19124  1.0000
  H   H24       1.0  0.01807  0.86296  0.19660  1.0000
  H   H25       1.0  0.95714  0.28406  0.23117  1.0000
  H   H26       1.0  0.95191  0.35290  0.22188  1.0000
  C   C53       1.0  0.01657  0.61750  0.30310  1.0000
  C   C54       1.0  0.40460  0.01980  0.30101  1.0000
  C   C55       1.0  0.99264  0.40693  0.30936  1.0000
  C   C56       1.0  0.61493  0.99483  0.31031  1.0000
  H   H27       1.0  0.02304  0.60783  0.24075  1.0000
  H   H28       1.0  0.60473  0.97465  0.26741  1.0000
  H   H29       1.0  0.97269  0.41698  0.26582  1.0000
  H   H30       1.0  0.41435  0.02664  0.23893  1.0000
  C   C57       1.0  0.01104  0.47119  0.35256  1.0000
  N   N5        1.0  0.01166  0.53400  0.28208  1.0000
  C   C58       1.0  0.01201  0.49449  0.27249  1.0000
  C   C59       1.0  0.01480  0.47921  0.18545  1.0000
  O   O1        1.0  0.04747  0.47879  0.15200  1.0000
  O   O2        1.0  0.98840  0.48448  0.12923  1.0000
  H   H31       1.0  0.96341  0.48734  0.14354  1.0000
  N   N6        1.0  0.01245  0.43219  0.35551  1.0000
  C   C60       1.0  0.55083  0.01382  0.35202  1.0000
  N   N7        1.0  0.48819  0.01489  0.28068  1.0000
  C   C61       1.0  0.52774  0.01521  0.27167  1.0000
  C   C62       1.0  0.54331  0.01811  0.18490  1.0000
  O   O3        1.0  0.54105  0.05013  0.14851  1.0000
  O   O4        1.0  0.54053  0.99049  0.13089  1.0000
  H   H32       1.0  0.53952  0.96557  0.14722  1.0000
  N   N8        1.0  0.58981  0.01510  0.35548  1.0000
  C   C63       1.0  0.00740  0.80410  0.41760  1.0000
  C   C64       1.0  0.00662  0.84528  0.42068  1.0000
  C   C65       1.0  0.98941  0.71771  0.38409  1.0000
  C   C66       1.0  0.99042  0.67658  0.37739  1.0000
  C   C67       1.0  0.21812  0.00986  0.41630  1.0000
  C   C68       1.0  0.17695  0.00877  0.41969  1.0000
  C   C69       1.0  0.34544  0.99327  0.37477  1.0000
  C   C70       1.0  0.30431  0.99221  0.38171  1.0000
  C   C71       1.0  0.01276  0.17936  0.41874  1.0000
  C   C72       1.0  0.01174  0.22052  0.41488  1.0000
  C   C73       1.0  0.02463  0.34838  0.37527  1.0000
  C   C74       1.0  0.02788  0.30732  0.38022  1.0000
  C   C75       1.0  0.84261  0.01743  0.41841  1.0000
  C   C76       1.0  0.80145  0.01618  0.41480  1.0000
  C   C77       1.0  0.71481  0.03155  0.37633  1.0000
  C   C78       1.0  0.67371  0.02844  0.37134  1.0000
  H   H33       1.0  0.65721  0.04838  0.40609  1.0000
  H   H34       1.0  0.72658  0.05390  0.41379  1.0000
  H   H35       1.0  0.78624  0.01977  0.47434  1.0000
  H   H36       1.0  0.85604  0.02245  0.47979  1.0000
  H   H37       1.0  0.01559  0.16594  0.48085  1.0000
  H   H38       1.0  0.01328  0.23573  0.47492  1.0000
  H   H39       1.0  0.16341  0.00508  0.48143  1.0000
  H   H40       1.0  0.23320  0.00743  0.47634  1.0000
  H   H41       1.0  0.29194  0.97166  0.42344  1.0000
  H   H42       1.0  0.36145  0.97370  0.41195  1.0000
  H   H43       1.0  0.00347  0.85892  0.48244  1.0000
  H   H44       1.0  0.00532  0.78911  0.47786  1.0000
  H   H45       1.0  0.97102  0.66050  0.41513  1.0000
  H   H46       1.0  0.96907  0.73004  0.42629  1.0000
  H   H47       1.0  0.04882  0.29573  0.42197  1.0000
  H   H48       1.0  0.04300  0.36504  0.41442  1.0000
  N   N9        1.0  0.01016  0.49035  0.43385  1.0000
  C   C79       1.0  0.00946  0.52998  0.44359  1.0000
  C   C80       1.0  0.01033  0.55324  0.36347  1.0000
  C   C81       1.0  0.00862  0.54586  0.53080  1.0000
  O   O5        1.0  0.98882  0.52950  0.58892  1.0000
  O   O6        1.0  0.03658  0.56459  0.56181  1.0000
  H   H49       1.0  0.05562  0.57501  0.52875  1.0000
  N   N10       1.0  0.01030  0.59235  0.36700  1.0000
  N   N11       1.0  0.53146  0.01270  0.43303  1.0000
  C   C82       1.0  0.49180  0.01208  0.44221  1.0000
  C   C83       1.0  0.46876  0.01330  0.36180  1.0000
  C   C84       1.0  0.47570  0.01093  0.52920  1.0000
  O   O7        1.0  0.49177  0.99090  0.58715  1.0000
  O   O8        1.0  0.45705  0.03878  0.56049  1.0000
  H   H50       1.0  0.44686  0.05795  0.52769  1.0000
  N   N12       1.0  0.42965  0.01324  0.36489  1.0000
