data_image0
_chemical_formula_structural       HNHNCNC2NCHCNC2NCHNC2NHNC2NHCNC2NCHCNC2NCHNC2NHNC2NHNC2NHNC2NHC6HOC6OH5N4C6HOC6OH5N4C6HOC6OH5N4C6HOC6OH4N3C6HOC6OH4N4C3NCHNC3NCHC2NC2NCHC3NC2NCHCNC3NCHNC3NCHC2NC2NCHC3NC2NCHC2NC3NC2HCNC3NC2H
_chemical_formula_sum              "H50 N60 C140 O10"
_cell_length_a       32.7299
_cell_length_b       40.9503
_cell_length_c       14.7935
_cell_angle_alpha    88.619
_cell_angle_beta     91.0811
_cell_angle_gamma    89.7157

_space_group_name_H-M_alt    "P 1"
_space_group_IT_number       1

loop_
  _space_group_symop_operation_xyz
  'x, y, z'

loop_
  _atom_site_type_symbol
  _atom_site_label
  _atom_site_symmetry_multiplicity
  _atom_site_fract_x
  _atom_site_fract_y
  _atom_site_fract_z
  _atom_site_occupancy
  H   H1        1.0  0.78209  0.36166  0.43146  1.0000
  N   N1        1.0  0.85298  0.33633  0.40003  1.0000
  H   H2        1.0  0.16107  0.67025  0.42080  1.0000
  N   N2        1.0  0.09022  0.69715  0.39157  1.0000
  C   C1        1.0  0.16160  0.18043  0.34519  1.0000
  N   N3        1.0  0.12992  0.13161  0.29336  1.0000
  C   C2        1.0  0.14928  0.16015  0.27323  1.0000
  C   C3        1.0  0.15215  0.16840  0.18815  1.0000
  N   N4        1.0  0.15461  0.17584  0.11312  1.0000
  C   C4        1.0  0.17940  0.21157  0.33549  1.0000
  H   H3        1.0  0.19225  0.21842  0.27548  1.0000
  C   C5        1.0  0.78176  0.85179  0.34998  1.0000
  N   N5        1.0  0.81183  0.90167  0.29685  1.0000
  C   C6        1.0  0.79254  0.87323  0.27750  1.0000
  C   C7        1.0  0.78806  0.86627  0.19258  1.0000
  N   N6        1.0  0.78415  0.85996  0.11771  1.0000
  C   C8        1.0  0.76375  0.82079  0.34089  1.0000
  H   H4        1.0  0.75006  0.81499  0.28071  1.0000
  N   N7        1.0  0.82559  0.18723  0.35537  1.0000
  C   C9        1.0  0.85481  0.16392  0.35122  1.0000
  C   C10       1.0  0.89176  0.17425  0.33694  1.0000
  N   N8        1.0  0.92430  0.18340  0.32416  1.0000
  H   H5        1.0  0.90077  0.11022  0.34507  1.0000
  N   N9        1.0  0.11799  0.84612  0.35955  1.0000
  C   C11       1.0  0.08829  0.86918  0.35502  1.0000
  C   C12       1.0  0.05125  0.85869  0.34110  1.0000
  N   N10       1.0  0.01863  0.84941  0.32859  1.0000
  H   H6        1.0  0.04138  0.92265  0.34773  1.0000
  C   C13       1.0  0.24774  0.48235  0.34599  1.0000
  N   N11       1.0  0.24884  0.53868  0.30017  1.0000
  C   C14       1.0  0.24523  0.50692  0.27683  1.0000
  C   C15       1.0  0.24207  0.50085  0.19112  1.0000
  N   N12       1.0  0.23919  0.49486  0.11588  1.0000
  C   C16       1.0  0.24385  0.44868  0.33183  1.0000
  H   H7        1.0  0.23160  0.44084  0.27206  1.0000
  C   C17       1.0  0.69380  0.55081  0.34681  1.0000
  N   N13       1.0  0.69009  0.49521  0.30213  1.0000
  C   C18       1.0  0.69280  0.52733  0.27786  1.0000
  C   C19       1.0  0.69161  0.53478  0.19191  1.0000
  N   N14       1.0  0.69046  0.54192  0.11639  1.0000
  C   C20       1.0  0.69768  0.58469  0.33191  1.0000
  H   H8        1.0  0.70780  0.59323  0.27079  1.0000
  N   N15       1.0  0.99963  0.33911  0.33440  1.0000
  C   C21       1.0  0.95977  0.34058  0.30582  1.0000
  C   C22       1.0  0.95306  0.34472  0.21940  1.0000
  N   N16       1.0  0.94626  0.34865  0.14351  1.0000
  H   H9        1.0  0.88008  0.32522  0.28229  1.0000
  N   N17       1.0  0.94216  0.70005  0.32639  1.0000
  C   C23       1.0  0.98142  0.70144  0.29747  1.0000
  C   C24       1.0  0.98608  0.70806  0.21187  1.0000
  N   N18       1.0  0.99083  0.71448  0.13685  1.0000
  H   H10       1.0  0.06092  0.71611  0.28024  1.0000
  N   N19       1.0  0.43868  0.32958  0.31590  1.0000
  C   C25       1.0  0.47802  0.32956  0.28655  1.0000
  C   C26       1.0  0.48324  0.32545  0.20071  1.0000
  N   N20       1.0  0.48887  0.32139  0.12546  1.0000
  H   H11       1.0  0.55698  0.34717  0.26006  1.0000
  N   N21       1.0  0.50341  0.70341  0.31300  1.0000
  C   C27       1.0  0.46363  0.70358  0.28318  1.0000
  C   C28       1.0  0.45720  0.70800  0.19678  1.0000
  N   N22       1.0  0.45051  0.71223  0.12096  1.0000
  H   H12       1.0  0.38424  0.68657  0.25688  1.0000
  C   C29       1.0  0.99276  0.01690  0.32287  1.0000
  C   C30       1.0  0.01614  0.98800  0.34029  1.0000
  C   C31       1.0  0.05899  0.98786  0.35535  1.0000
  C   C32       1.0  0.07943  0.01811  0.35886  1.0000
  C   C33       1.0  0.05823  0.04758  0.33672  1.0000
  C   C34       1.0  0.01612  0.04611  0.31404  1.0000
  H   H13       1.0  0.00157  0.96637  0.34856  1.0000
  O   O1        1.0  0.12059  0.01825  0.37499  1.0000
  C   C35       1.0  0.94871  0.01643  0.32293  1.0000
  C   C36       1.0  0.92522  0.98734  0.31502  1.0000
  C   C37       1.0  0.88351  0.98554  0.33788  1.0000
  C   C38       1.0  0.86271  0.01471  0.35935  1.0000
  C   C39       1.0  0.88304  0.04504  0.35488  1.0000
  C   C40       1.0  0.92564  0.04509  0.33964  1.0000
  O   O2        1.0  0.82186  0.01432  0.37581  1.0000
  H   H14       1.0  0.94040  0.06656  0.34760  1.0000
  H   H15       1.0  0.13353  0.01876  0.31548  1.0000
  H   H16       1.0  0.80780  0.01462  0.31641  1.0000
  H   H17       1.0  0.00201  0.06769  0.29657  1.0000
  H   H18       1.0  0.93902  0.96601  0.29798  1.0000
  N   N23       1.0  0.86035  0.07277  0.36342  1.0000
  N   N24       1.0  0.86605  0.95540  0.33977  1.0000
  N   N25       1.0  0.07583  0.07765  0.33766  1.0000
  N   N26       1.0  0.08189  0.96006  0.36456  1.0000
  C   C41       1.0  0.19926  0.32154  0.35253  1.0000
  C   C42       1.0  0.19929  0.28669  0.35658  1.0000
  C   C43       1.0  0.16506  0.26840  0.38534  1.0000
  C   C44       1.0  0.12896  0.28473  0.41005  1.0000
  C   C45       1.0  0.12422  0.31847  0.38886  1.0000
  C   C46       1.0  0.15909  0.33573  0.35834  1.0000
  H   H19       1.0  0.22519  0.27379  0.34417  1.0000
  O   O3        1.0  0.09588  0.26637  0.43391  1.0000
  C   C47       1.0  0.23680  0.34038  0.35013  1.0000
  C   C48       1.0  0.27753  0.32693  0.35424  1.0000
  C   C49       1.0  0.31308  0.34517  0.37804  1.0000
  C   C50       1.0  0.30765  0.37876  0.39670  1.0000
  C   C51       1.0  0.26984  0.39423  0.37651  1.0000
  C   C52       1.0  0.23579  0.37513  0.35197  1.0000
  O   O4        1.0  0.34029  0.39834  0.41516  1.0000
  H   H20       1.0  0.20901  0.38758  0.34286  1.0000
  H   H21       1.0  0.08112  0.26105  0.37758  1.0000
  H   H22       1.0  0.35220  0.40467  0.35671  1.0000
  H   H23       1.0  0.15456  0.36011  0.34686  1.0000
  H   H24       1.0  0.28187  0.30252  0.34633  1.0000
  N   N27       1.0  0.26828  0.42736  0.37883  1.0000
  N   N28       1.0  0.35158  0.33148  0.37582  1.0000
  N   N29       1.0  0.08663  0.33355  0.38924  1.0000
  N   N30       1.0  0.16181  0.23544  0.38268  1.0000
  C   C53       1.0  0.74326  0.71127  0.35099  1.0000
  C   C54       1.0  0.74362  0.74593  0.35876  1.0000
  C   C55       1.0  0.77862  0.76313  0.38892  1.0000
  C   C56       1.0  0.81491  0.74577  0.41220  1.0000
  C   C57       1.0  0.81895  0.71288  0.38610  1.0000
  C   C58       1.0  0.78345  0.69686  0.35334  1.0000
  H   H25       1.0  0.71751  0.75927  0.34861  1.0000
  O   O5        1.0  0.84870  0.76291  0.43844  1.0000
  C   C59       1.0  0.70561  0.69257  0.34852  1.0000
  C   C60       1.0  0.66502  0.70607  0.35239  1.0000
  C   C61       1.0  0.62983  0.68756  0.37669  1.0000
  C   C62       1.0  0.63548  0.65369  0.39633  1.0000
  C   C63       1.0  0.67286  0.63842  0.37639  1.0000
  C   C64       1.0  0.70656  0.65779  0.35127  1.0000
  O   O6        1.0  0.60309  0.63394  0.41546  1.0000
  H   H26       1.0  0.73322  0.64540  0.34371  1.0000
  H   H27       1.0  0.86251  0.77018  0.38296  1.0000
  H   H28       1.0  0.59016  0.62840  0.35722  1.0000
  H   H29       1.0  0.78762  0.67307  0.33717  1.0000
  H   H30       1.0  0.66063  0.73060  0.34342  1.0000
  N   N31       1.0  0.67441  0.60523  0.37960  1.0000
  N   N32       1.0  0.59133  0.70132  0.37385  1.0000
  N   N33       1.0  0.85649  0.69797  0.38268  1.0000
  N   N34       1.0  0.78227  0.79613  0.38817  1.0000
  C   C65       1.0  0.73876  0.32395  0.40366  1.0000
  C   C66       1.0  0.73878  0.28962  0.38939  1.0000
  C   C67       1.0  0.77505  0.27199  0.37406  1.0000
  C   C68       1.0  0.81274  0.28840  0.36767  1.0000
  C   C69       1.0  0.81559  0.32153  0.39162  1.0000
  C   C70       1.0  0.77882  0.33798  0.41316  1.0000
  H   H31       1.0  0.71219  0.27681  0.38642  1.0000
  O   O7        1.0  0.84767  0.27052  0.35756  1.0000
  C   C71       1.0  0.70109  0.34278  0.40004  1.0000
  C   C72       1.0  0.66063  0.32936  0.39862  1.0000
  C   C73       1.0  0.62510  0.34728  0.36947  1.0000
  C   C74       1.0  0.63029  0.38036  0.34123  1.0000
  C   C75       1.0  0.66751  0.39622  0.36130  1.0000
  C   C76       1.0  0.70185  0.37739  0.39013  1.0000
  O   O8        1.0  0.59699  0.39935  0.31992  1.0000
  H   H32       1.0  0.72874  0.38967  0.39358  1.0000
  H   H33       1.0  0.84882  0.26526  0.29312  1.0000
  H   H34       1.0  0.59840  0.40429  0.25467  1.0000
  H   H35       1.0  0.65651  0.30531  0.41545  1.0000
  N   N35       1.0  0.66875  0.42941  0.35525  1.0000
  N   N36       1.0  0.58691  0.33373  0.37649  1.0000
  N   N37       1.0  0.77734  0.23918  0.36979  1.0000
  C   C77       1.0  0.20478  0.70842  0.39999  1.0000
  C   C78       1.0  0.20514  0.74311  0.38907  1.0000
  C   C79       1.0  0.16899  0.76164  0.37588  1.0000
  C   C80       1.0  0.13082  0.74600  0.36857  1.0000
  C   C81       1.0  0.12768  0.71209  0.38727  1.0000
  C   C82       1.0  0.16455  0.69451  0.40652  1.0000
  H   H36       1.0  0.23186  0.75575  0.38746  1.0000
  O   O9        1.0  0.09618  0.76477  0.36153  1.0000
  C   C83       1.0  0.24224  0.68946  0.39594  1.0000
  C   C84       1.0  0.28282  0.70269  0.39492  1.0000
  C   C85       1.0  0.31773  0.68520  0.36550  1.0000
  C   C86       1.0  0.31183  0.65271  0.33675  1.0000
  C   C87       1.0  0.27488  0.63662  0.35692  1.0000
  C   C88       1.0  0.24116  0.65503  0.38601  1.0000
  O   O10       1.0  0.34464  0.63397  0.31532  1.0000
  H   H37       1.0  0.21436  0.64270  0.39034  1.0000
  H   H38       1.0  0.09408  0.77267  0.29825  1.0000
  H   H39       1.0  0.34201  0.63014  0.25011  1.0000
  H   H40       1.0  0.28748  0.72635  0.41216  1.0000
  N   N38       1.0  0.27341  0.60355  0.35107  1.0000
  N   N39       1.0  0.35609  0.69856  0.37257  1.0000
  N   N40       1.0  0.16758  0.79454  0.37332  1.0000
  N   N41       1.0  0.15466  0.16889  0.43050  1.0000
  C   C89       1.0  0.13812  0.13933  0.45079  1.0000
  C   C90       1.0  0.12376  0.11985  0.37889  1.0000
  C   C91       1.0  0.13329  0.13218  0.53610  1.0000
  N   N42       1.0  0.12876  0.12587  0.61128  1.0000
  C   C92       1.0  0.10688  0.08848  0.39072  1.0000
  H   H41       1.0  0.11160  0.07629  0.45126  1.0000
  N   N43       1.0  0.79009  0.86218  0.43500  1.0000
  C   C93       1.0  0.80666  0.89158  0.45447  1.0000
  C   C94       1.0  0.81938  0.91227  0.38207  1.0000
  C   C95       1.0  0.81289  0.89760  0.53958  1.0000
  N   N44       1.0  0.81868  0.90295  0.61456  1.0000
  C   C96       1.0  0.83596  0.94366  0.39298  1.0000
  H   H42       1.0  0.83216  0.95498  0.45321  1.0000
  C   C97       1.0  0.78516  0.18186  0.36905  1.0000
  C   C98       1.0  0.84305  0.13078  0.36208  1.0000
  N   N45       1.0  0.80261  0.12500  0.37576  1.0000
  C   C99       1.0  0.77337  0.14872  0.37966  1.0000
  C   C100      1.0  0.73612  0.13947  0.39457  1.0000
  N   N46       1.0  0.70324  0.13127  0.40807  1.0000
  C   C101      1.0  0.75952  0.20961  0.37326  1.0000
  H   H43       1.0  0.72901  0.20771  0.38564  1.0000
  C   C102      1.0  0.87106  0.10466  0.35769  1.0000
  C   C103      1.0  0.15858  0.85176  0.37275  1.0000
  C   C104      1.0  0.09972  0.90228  0.36486  1.0000
  N   N47       1.0  0.14031  0.90831  0.37803  1.0000
  C   C105      1.0  0.17003  0.88487  0.38234  1.0000
  C   C106      1.0  0.20740  0.89431  0.39655  1.0000
  N   N48       1.0  0.24040  0.90265  0.40940  1.0000
  C   C107      1.0  0.18482  0.82427  0.37710  1.0000
  H   H44       1.0  0.21559  0.82634  0.38823  1.0000
  C   C108      1.0  0.07128  0.92821  0.35996  1.0000
  N   N49       1.0  0.25168  0.49245  0.43261  1.0000
  C   C109      1.0  0.25241  0.52426  0.45639  1.0000
  C   C110      1.0  0.25207  0.54875  0.38692  1.0000
  C   C111      1.0  0.25643  0.53025  0.54204  1.0000
  N   N50       1.0  0.26020  0.53617  0.61717  1.0000
  C   C112      1.0  0.25138  0.58248  0.40224  1.0000
  H   H45       1.0  0.24287  0.59035  0.46436  1.0000
  N   N51       1.0  0.69396  0.53935  0.43385  1.0000
  C   C113      1.0  0.69402  0.50716  0.45811  1.0000
  C   C114      1.0  0.69096  0.48374  0.38920  1.0000
  C   C115      1.0  0.69456  0.49987  0.54421  1.0000
  N   N52       1.0  0.69499  0.49286  0.61982  1.0000
  C   C116      1.0  0.69210  0.44976  0.40495  1.0000
  H   H46       1.0  0.70272  0.44086  0.46631  1.0000
  C   C117      1.0  0.01204  0.33436  0.42206  1.0000
  C   C118      1.0  0.92797  0.33761  0.36993  1.0000
  N   N53       1.0  0.94039  0.33381  0.45784  1.0000
  C   C119      1.0  0.98023  0.33198  0.48633  1.0000
  C   C120      1.0  0.98676  0.32654  0.57233  1.0000
  N   N54       1.0  0.99344  0.32126  0.64773  1.0000
  C   C121      1.0  0.05378  0.32722  0.44221  1.0000
  H   H47       1.0  0.06013  0.31550  0.50272  1.0000
  C   C122      1.0  0.88623  0.33269  0.34665  1.0000
  C   C123      1.0  0.93140  0.69549  0.41410  1.0000
  C   C124      1.0  0.01447  0.69774  0.36116  1.0000
  N   N55       1.0  0.00368  0.69227  0.44861  1.0000
  C   C125      1.0  0.96435  0.69127  0.47759  1.0000
  C   C126      1.0  0.95914  0.68602  0.56358  1.0000
  N   N56       1.0  0.95379  0.68097  0.63908  1.0000
  C   C127      1.0  0.89015  0.70105  0.43752  1.0000
  H   H48       1.0  0.88492  0.70848  0.50185  1.0000
  C   C128      1.0  0.05589  0.70428  0.34068  1.0000
  C   C129      1.0  0.51114  0.33311  0.34944  1.0000
  N   N57       1.0  0.50029  0.33641  0.43709  1.0000
  C   C130      1.0  0.46097  0.33708  0.46625  1.0000
  C   C131      1.0  0.42778  0.33370  0.40330  1.0000
  C   C132      1.0  0.45621  0.34259  0.55159  1.0000
  N   N58       1.0  0.45110  0.34812  0.62624  1.0000
  C   C133      1.0  0.55232  0.33895  0.32489  1.0000
  C   C134      1.0  0.38606  0.33908  0.42455  1.0000
  H   H49       1.0  0.38086  0.35028  0.48434  1.0000
  C   C135      1.0  0.43145  0.69961  0.34603  1.0000
  N   N59       1.0  0.44361  0.69581  0.43415  1.0000
  C   C136      1.0  0.48337  0.69499  0.46380  1.0000
  C   C137      1.0  0.51562  0.69882  0.40093  1.0000
  C   C138      1.0  0.48944  0.68918  0.54980  1.0000
  N   N60       1.0  0.49572  0.68349  0.62515  1.0000
  C   C139      1.0  0.38989  0.69401  0.32142  1.0000
  C   C140      1.0  0.55765  0.69321  0.42287  1.0000
  H   H50       1.0  0.56379  0.68138  0.48331  1.0000
