data_image0
_chemical_formula_structural       C3NC3NC5NC5NC36H26N4C3NC3NC5NC5NC36H26N4C3NC3NC5NC5NC36H26N4C3H2CHC3H2CHC3H2CHC3H2CHC3H2CHC3H2CHC16H16C16H16C16H16C3NC2NH2CHC3NC2NH2CHC3NC2NH2CHC3NC2NH2CHC3NC2NH2CHC3NC2NH2CH
_chemical_formula_sum              "C264 N36 H162"
_cell_length_a       67.8096
_cell_length_b       67.8095
_cell_length_c       14.9255
_cell_angle_alpha    89.8356
_cell_angle_beta     90.1644
_cell_angle_gamma    120

_space_group_name_H-M_alt    "P 1"
_space_group_IT_number       1

loop_
  _space_group_symop_operation_xyz
  'x, y, z'

loop_
  _atom_site_type_symbol
  _atom_site_label
  _atom_site_symmetry_multiplicity
  _atom_site_fract_x
  _atom_site_fract_y
  _atom_site_fract_z
  _atom_site_occupancy
  C   C1        1.0  0.04537  0.50577  0.31924  1.0000
  C   C2        1.0  0.02184  0.49395  0.31864  1.0000
  C   C3        1.0  0.01431  0.50973  0.31705  1.0000
  N   N1        1.0  0.03352  0.53045  0.31635  1.0000
  C   C4        1.0  0.05280  0.52906  0.31763  1.0000
  C   C5        1.0  0.07599  0.54678  0.31760  1.0000
  C   C6        1.0  0.08334  0.57044  0.31661  1.0000
  N   N2        1.0  0.07042  0.58049  0.31672  1.0000
  C   C7        1.0  0.08323  0.60348  0.31588  1.0000
  C   C8        1.0  0.10588  0.60848  0.31523  1.0000
  C   C9        1.0  0.10594  0.58817  0.31544  1.0000
  C   C10       1.0  0.07575  0.61968  0.31620  1.0000
  C   C11       1.0  0.05253  0.61410  0.31705  1.0000
  N   N3        1.0  0.03332  0.59338  0.31631  1.0000
  C   C12       1.0  0.01405  0.59477  0.31753  1.0000
  C   C13       1.0  0.02147  0.61806  0.31915  1.0000
  C   C14       1.0  0.04501  0.62988  0.31863  1.0000
  C   C15       1.0  0.99085  0.57705  0.31746  1.0000
  C   C16       1.0  0.98350  0.55340  0.31653  1.0000
  N   N4        1.0  0.99642  0.54334  0.31658  1.0000
  C   C17       1.0  0.98360  0.52036  0.31581  1.0000
  C   C18       1.0  0.96096  0.51537  0.31531  1.0000
  C   C19       1.0  0.96090  0.53567  0.31551  1.0000
  C   C20       1.0  0.99108  0.50416  0.31615  1.0000
  C   C21       1.0  0.97386  0.48068  0.31633  1.0000
  C   C22       1.0  0.93559  0.43537  0.31809  1.0000
  C   C23       1.0  0.94456  0.44725  0.23652  1.0000
  C   C24       1.0  0.96334  0.46956  0.23554  1.0000
  C   C25       1.0  0.91554  0.41324  0.31919  1.0000
  C   C26       1.0  0.91205  0.39640  0.25514  1.0000
  C   C27       1.0  0.89196  0.37499  0.25463  1.0000
  C   C28       1.0  0.87468  0.36953  0.31852  1.0000
  C   C29       1.0  0.97356  0.58322  0.31917  1.0000
  C   C30       1.0  0.93562  0.59080  0.32092  1.0000
  C   C31       1.0  0.94680  0.59143  0.23989  1.0000
  C   C32       1.0  0.96541  0.58764  0.23883  1.0000
  C   C33       1.0  0.91587  0.59341  0.32158  1.0000
  C   C34       1.0  0.87551  0.59708  0.32672  1.0000
  C   C35       1.0  0.87873  0.58461  0.25826  1.0000
  C   C36       1.0  0.89858  0.58286  0.25575  1.0000
  C   C37       1.0  0.09296  0.64316  0.31643  1.0000
  C   C38       1.0  0.10325  0.65443  0.23557  1.0000
  C   C39       1.0  0.12190  0.67681  0.23652  1.0000
  C   C40       1.0  0.13097  0.68861  0.31810  1.0000
  C   C41       1.0  0.15084  0.71086  0.31911  1.0000
  C   C42       1.0  0.19131  0.75488  0.31842  1.0000
  C   C43       1.0  0.17385  0.74930  0.25497  1.0000
  C   C44       1.0  0.15395  0.72773  0.25549  1.0000
  C   C45       1.0  0.09330  0.54064  0.31940  1.0000
  C   C46       1.0  0.10137  0.53625  0.23912  1.0000
  C   C47       1.0  0.13150  0.53345  0.32112  1.0000
  C   C48       1.0  0.12011  0.53264  0.24017  1.0000
  C   C49       1.0  0.15142  0.53113  0.32169  1.0000
  C   C50       1.0  0.16856  0.54180  0.25552  1.0000
  C   C51       1.0  0.18858  0.54037  0.25798  1.0000
  C   C52       1.0  0.19216  0.52812  0.32676  1.0000
  H   H1        1.0  0.20083  0.54895  0.21065  1.0000
  H   H2        1.0  0.16704  0.55150  0.20631  1.0000
  H   H3        1.0  0.12549  0.52958  0.18054  1.0000
  H   H4        1.0  0.09401  0.53619  0.17908  1.0000
  H   H5        1.0  0.05525  0.49830  0.32057  1.0000
  H   H6        1.0  0.01202  0.47660  0.31949  1.0000
  H   H7        1.0  0.03348  0.54459  0.31460  1.0000
  H   H8        1.0  0.03336  0.57925  0.31456  1.0000
  H   H9        1.0  0.12032  0.58688  0.31486  1.0000
  H   H10       1.0  0.12020  0.62420  0.31470  1.0000
  H   H11       1.0  0.09771  0.64614  0.17560  1.0000
  H   H12       1.0  0.12946  0.68403  0.17677  1.0000
  H   H13       1.0  0.05482  0.64723  0.31951  1.0000
  H   H14       1.0  0.01159  0.62553  0.32047  1.0000
  H   H15       1.0  0.94663  0.49965  0.31495  1.0000
  H   H16       1.0  0.94652  0.53698  0.31506  1.0000
  H   H17       1.0  0.97266  0.58764  0.17877  1.0000
  H   H18       1.0  0.94138  0.59456  0.18026  1.0000
  H   H19       1.0  0.89984  0.57302  0.20679  1.0000
  H   H20       1.0  0.86637  0.57612  0.21114  1.0000
  H   H21       1.0  0.96878  0.47794  0.17561  1.0000
  H   H22       1.0  0.93682  0.44018  0.17685  1.0000
  H   H23       1.0  0.89003  0.36333  0.20690  1.0000
  H   H24       1.0  0.92424  0.39951  0.20818  1.0000
  H   H25       1.0  0.14160  0.72453  0.20892  1.0000
  H   H26       1.0  0.17549  0.76098  0.20760  1.0000
  N   N5        1.0  0.85570  0.34927  0.31205  1.0000
  N   N6        1.0  0.21127  0.52726  0.33627  1.0000
  N   N7        1.0  0.21007  0.77532  0.31202  1.0000
  N   N8        1.0  0.85662  0.59832  0.33613  1.0000
  C   C53       1.0  0.59097  0.63283  0.32116  1.0000
  C   C54       1.0  0.60279  0.62111  0.32047  1.0000
  C   C55       1.0  0.58700  0.59780  0.31891  1.0000
  N   N9        1.0  0.56628  0.59630  0.31827  1.0000
  C   C56       1.0  0.56768  0.61697  0.31959  1.0000
  C   C57       1.0  0.54996  0.62244  0.31962  1.0000
  C   C58       1.0  0.52630  0.60613  0.31860  1.0000
  N   N10       1.0  0.51625  0.58316  0.31868  1.0000
  C   C59       1.0  0.49326  0.57299  0.31777  1.0000
  C   C60       1.0  0.48826  0.59064  0.31710  1.0000
  C   C61       1.0  0.50857  0.61101  0.31738  1.0000
  C   C62       1.0  0.47706  0.54931  0.31807  1.0000
  C   C63       1.0  0.48264  0.53167  0.31897  1.0000
  N   N11       1.0  0.50336  0.53317  0.31825  1.0000
  C   C64       1.0  0.50196  0.51250  0.31953  1.0000
  C   C65       1.0  0.47867  0.49664  0.32116  1.0000
  C   C66       1.0  0.46685  0.50836  0.32057  1.0000
  C   C67       1.0  0.51968  0.50703  0.31949  1.0000
  C   C68       1.0  0.54333  0.52333  0.31853  1.0000
  N   N12       1.0  0.55339  0.54631  0.31856  1.0000
  C   C69       1.0  0.57637  0.55647  0.31775  1.0000
  C   C70       1.0  0.58137  0.53883  0.31721  1.0000
  C   C71       1.0  0.56106  0.51845  0.31746  1.0000
  C   C72       1.0  0.59258  0.58016  0.31801  1.0000
  C   C73       1.0  0.61606  0.58642  0.31805  1.0000
  C   C74       1.0  0.66137  0.59346  0.31946  1.0000
  C   C75       1.0  0.64945  0.59066  0.23798  1.0000
  C   C76       1.0  0.62715  0.58715  0.23714  1.0000
  C   C77       1.0  0.68350  0.59555  0.32037  1.0000
  C   C78       1.0  0.70032  0.60900  0.25626  1.0000
  C   C79       1.0  0.72173  0.61032  0.25553  1.0000
  C   C80       1.0  0.72721  0.59840  0.31925  1.0000
  C   C81       1.0  0.51352  0.48358  0.32125  1.0000
  C   C82       1.0  0.50594  0.43805  0.32307  1.0000
  C   C83       1.0  0.50529  0.44868  0.24203  1.0000
  C   C84       1.0  0.50907  0.47109  0.24094  1.0000
  C   C85       1.0  0.50333  0.41569  0.32376  1.0000
  C   C86       1.0  0.49966  0.37165  0.32890  1.0000
  C   C87       1.0  0.51211  0.38742  0.26038  1.0000
  C   C88       1.0  0.51388  0.40903  0.25794  1.0000
  C   C89       1.0  0.45358  0.54304  0.31816  1.0000
  C   C90       1.0  0.44233  0.54212  0.23721  1.0000
  C   C91       1.0  0.41995  0.53841  0.23800  1.0000
  C   C92       1.0  0.40812  0.53559  0.31948  1.0000
  C   C93       1.0  0.38587  0.53319  0.32029  1.0000
  C   C94       1.0  0.34185  0.52965  0.31908  1.0000
  C   C95       1.0  0.34745  0.51781  0.25588  1.0000
  C   C96       1.0  0.36902  0.51947  0.25666  1.0000
  C   C97       1.0  0.55610  0.64589  0.32148  1.0000
  C   C98       1.0  0.56052  0.65848  0.24123  1.0000
  C   C99       1.0  0.56329  0.69128  0.32326  1.0000
  C   C100      1.0  0.56412  0.68082  0.24231  1.0000
  C   C101      1.0  0.56559  0.71351  0.32387  1.0000
  C   C102      1.0  0.55495  0.72008  0.25764  1.0000
  C   C103      1.0  0.55637  0.74152  0.26011  1.0000
  C   C104      1.0  0.56859  0.75725  0.32898  1.0000
  H   H27       1.0  0.54781  0.74526  0.21273  1.0000
  H   H28       1.0  0.54528  0.70894  0.20836  1.0000
  H   H29       1.0  0.56721  0.68934  0.18271  1.0000
  H   H30       1.0  0.56060  0.65126  0.18118  1.0000
  H   H31       1.0  0.59844  0.65018  0.32254  1.0000
  H   H32       1.0  0.62014  0.62865  0.32135  1.0000
  H   H33       1.0  0.55215  0.58212  0.31663  1.0000
  H   H34       1.0  0.51749  0.54735  0.31647  1.0000
  H   H35       1.0  0.50987  0.62668  0.31678  1.0000
  H   H36       1.0  0.47254  0.58924  0.31651  1.0000
  H   H37       1.0  0.45063  0.54491  0.17728  1.0000
  H   H38       1.0  0.41274  0.53876  0.17815  1.0000
  H   H39       1.0  0.44950  0.50082  0.32148  1.0000
  H   H40       1.0  0.47120  0.47929  0.32252  1.0000
  H   H41       1.0  0.59709  0.54022  0.31676  1.0000
  H   H42       1.0  0.55975  0.50277  0.31698  1.0000
  H   H43       1.0  0.50907  0.47841  0.18087  1.0000
  H   H44       1.0  0.50216  0.44022  0.18241  1.0000
  H   H45       1.0  0.52370  0.42018  0.20889  1.0000
  H   H46       1.0  0.52060  0.38360  0.21327  1.0000
  H   H47       1.0  0.61876  0.58431  0.17727  1.0000
  H   H48       1.0  0.65652  0.59013  0.17821  1.0000
  H   H49       1.0  0.73336  0.62012  0.20777  1.0000
  H   H50       1.0  0.69719  0.61815  0.20945  1.0000
  H   H51       1.0  0.37224  0.51037  0.21022  1.0000
  H   H52       1.0  0.33579  0.50781  0.20849  1.0000
  N   N13       1.0  0.74747  0.59969  0.31253  1.0000
  N   N14       1.0  0.56944  0.77720  0.33850  1.0000
  N   N15       1.0  0.32142  0.52798  0.31244  1.0000
  N   N16       1.0  0.49841  0.35150  0.33830  1.0000
  C   C105      1.0  0.46390  0.05136  0.32234  1.0000
  C   C106      1.0  0.47562  0.07490  0.32181  1.0000
  C   C107      1.0  0.49893  0.08243  0.32026  1.0000
  N   N17       1.0  0.50044  0.06321  0.31955  1.0000
  C   C108      1.0  0.47977  0.04394  0.32074  1.0000
  C   C109      1.0  0.47430  0.02075  0.32065  1.0000
  C   C110      1.0  0.49061  0.01340  0.31972  1.0000
  N   N18       1.0  0.51358  0.02632  0.31992  1.0000
  C   C111      1.0  0.52375  0.01351  0.31907  1.0000
  C   C112      1.0  0.50611  0.99086  0.31836  1.0000
  C   C113      1.0  0.48574  0.99079  0.31850  1.0000
  C   C114      1.0  0.54743  0.02099  0.31947  1.0000
  C   C115      1.0  0.56508  0.04421  0.32032  1.0000
  N   N19       1.0  0.56357  0.06342  0.31951  1.0000
  C   C116      1.0  0.58424  0.08269  0.32069  1.0000
  C   C117      1.0  0.60010  0.07527  0.32235  1.0000
  C   C118      1.0  0.58839  0.05174  0.32191  1.0000
  C   C119      1.0  0.58970  0.10588  0.32052  1.0000
  C   C120      1.0  0.57340  0.11324  0.31964  1.0000
  N   N20       1.0  0.55043  0.10032  0.31982  1.0000
  C   C121      1.0  0.54026  0.11313  0.31905  1.0000
  C   C122      1.0  0.55790  0.13577  0.31842  1.0000
  C   C123      1.0  0.57827  0.13584  0.31854  1.0000
  C   C124      1.0  0.51657  0.10565  0.31941  1.0000
  C   C125      1.0  0.51031  0.12287  0.31952  1.0000
  C   C126      1.0  0.50326  0.16113  0.32114  1.0000
  C   C127      1.0  0.50603  0.15212  0.23960  1.0000
  C   C128      1.0  0.50955  0.13333  0.23867  1.0000
  C   C129      1.0  0.50117  0.18117  0.32215  1.0000
  C   C130      1.0  0.48770  0.18462  0.25815  1.0000
  C   C131      1.0  0.48638  0.20471  0.25749  1.0000
  C   C132      1.0  0.49833  0.22203  0.32116  1.0000
  C   C133      1.0  0.61316  0.12318  0.32203  1.0000
  C   C134      1.0  0.65869  0.16112  0.32325  1.0000
  C   C135      1.0  0.64801  0.14987  0.24237  1.0000
  C   C136      1.0  0.62559  0.13125  0.24157  1.0000
  C   C137      1.0  0.68105  0.18087  0.32361  1.0000
  C   C138      1.0  0.72509  0.22123  0.32816  1.0000
  C   C139      1.0  0.70927  0.21794  0.25974  1.0000
  C   C140      1.0  0.68768  0.19810  0.25756  1.0000
  C   C141      1.0  0.55371  0.00378  0.31970  1.0000
  C   C142      1.0  0.55465  0.99354  0.23879  1.0000
  C   C143      1.0  0.55836  0.97488  0.23967  1.0000
  C   C144      1.0  0.56116  0.96577  0.32121  1.0000
  C   C145      1.0  0.56356  0.94591  0.32211  1.0000
  C   C146      1.0  0.56712  0.90545  0.32114  1.0000
  C   C147      1.0  0.57894  0.92295  0.25785  1.0000
  C   C148      1.0  0.57728  0.94285  0.25852  1.0000
  C   C149      1.0  0.45085  0.00344  0.32225  1.0000
  C   C150      1.0  0.43832  0.99541  0.24186  1.0000
  C   C151      1.0  0.40547  0.96522  0.32345  1.0000
  C   C152      1.0  0.41599  0.97666  0.24264  1.0000
  C   C153      1.0  0.38323  0.94530  0.32375  1.0000
  C   C154      1.0  0.37672  0.92821  0.25741  1.0000
  C   C155      1.0  0.35528  0.90817  0.25962  1.0000
  C   C156      1.0  0.33948  0.90456  0.32824  1.0000
  H   H53       1.0  0.35157  0.89597  0.21212  1.0000
  H   H54       1.0  0.38790  0.92976  0.20827  1.0000
  H   H55       1.0  0.40751  0.97132  0.18293  1.0000
  H   H56       1.0  0.44559  0.00281  0.18190  1.0000
  H   H57       1.0  0.44656  0.04148  0.32361  1.0000
  H   H58       1.0  0.46808  0.08471  0.32266  1.0000
  H   H59       1.0  0.51461  0.06326  0.31787  1.0000
  H   H60       1.0  0.54939  0.06338  0.31770  1.0000
  H   H61       1.0  0.47006  0.97641  0.31783  1.0000
  H   H62       1.0  0.50751  0.97654  0.31779  1.0000
  H   H63       1.0  0.55184  0.99910  0.17883  1.0000
  H   H64       1.0  0.55799  0.96736  0.17986  1.0000
  H   H65       1.0  0.59593  0.04192  0.32282  1.0000
  H   H66       1.0  0.61745  0.08515  0.32364  1.0000
  H   H67       1.0  0.55651  0.15010  0.31797  1.0000
  H   H68       1.0  0.59395  0.15022  0.31797  1.0000
  H   H69       1.0  0.61823  0.12396  0.18161  1.0000
  H   H70       1.0  0.65643  0.15523  0.18265  1.0000
  H   H71       1.0  0.67648  0.19680  0.20865  1.0000
  H   H72       1.0  0.71307  0.23028  0.21251  1.0000
  H   H73       1.0  0.51237  0.12786  0.17875  1.0000
  H   H74       1.0  0.50654  0.15980  0.17987  1.0000
  H   H75       1.0  0.47656  0.20660  0.20981  1.0000
  H   H76       1.0  0.47853  0.17239  0.21136  1.0000
  H   H77       1.0  0.58638  0.95522  0.21206  1.0000
  H   H78       1.0  0.58894  0.92134  0.21049  1.0000
  N   N21       1.0  0.49703  0.24101  0.31451  1.0000
  N   N22       1.0  0.31951  0.88544  0.33746  1.0000
  N   N23       1.0  0.56877  0.88668  0.31451  1.0000
  N   N24       1.0  0.74524  0.24013  0.33729  1.0000
  C   C157      1.0  0.24600  0.52807  0.30548  1.0000
  C   C158      1.0  0.26326  0.53394  0.24043  1.0000
  C   C159      1.0  0.28383  0.53458  0.26094  1.0000
  H   H79       1.0  0.29591  0.53957  0.21175  1.0000
  H   H80       1.0  0.26125  0.53833  0.17670  1.0000
  C   C160      1.0  0.22633  0.52865  0.28030  1.0000
  H   H81       1.0  0.22395  0.53057  0.21575  1.0000
  C   C161      1.0  0.56865  0.81116  0.30768  1.0000
  C   C162      1.0  0.56277  0.82263  0.24263  1.0000
  C   C163      1.0  0.56212  0.84254  0.26313  1.0000
  H   H82       1.0  0.55715  0.84969  0.21391  1.0000
  H   H83       1.0  0.55838  0.81631  0.17890  1.0000
  C   C164      1.0  0.56809  0.79096  0.28250  1.0000
  H   H84       1.0  0.56623  0.78677  0.21793  1.0000
  C   C165      1.0  0.28557  0.85075  0.30616  1.0000
  C   C166      1.0  0.27416  0.83351  0.24095  1.0000
  C   C167      1.0  0.25425  0.81292  0.26119  1.0000
  H   H85       1.0  0.24715  0.80087  0.21190  1.0000
  H   H86       1.0  0.28054  0.83555  0.17733  1.0000
  C   C168      1.0  0.30580  0.87044  0.28127  1.0000
  H   H87       1.0  0.31005  0.87288  0.21675  1.0000
  C   C169      1.0  0.82210  0.59806  0.30554  1.0000
  C   C170      1.0  0.80482  0.59252  0.24059  1.0000
  C   C171      1.0  0.78449  0.59233  0.26115  1.0000
  H   H88       1.0  0.77239  0.58757  0.21201  1.0000
  H   H89       1.0  0.80662  0.58805  0.17690  1.0000
  C   C172      1.0  0.84150  0.59701  0.28033  1.0000
  H   H90       1.0  0.84362  0.59483  0.21590  1.0000
  C   C173      1.0  0.49867  0.31729  0.30764  1.0000
  C   C174      1.0  0.50420  0.30563  0.24266  1.0000
  C   C175      1.0  0.50439  0.28547  0.26317  1.0000
  H   H91       1.0  0.50915  0.27819  0.21402  1.0000
  H   H92       1.0  0.50866  0.31199  0.17896  1.0000
  C   C176      1.0  0.49970  0.33775  0.28247  1.0000
  H   H93       1.0  0.50187  0.34214  0.21803  1.0000
  C   C177      1.0  0.77943  0.27461  0.30615  1.0000
  C   C178      1.0  0.79103  0.29186  0.24104  1.0000
  C   C179      1.0  0.81120  0.31221  0.26130  1.0000
  H   H94       1.0  0.81844  0.32428  0.21205  1.0000
  H   H95       1.0  0.78461  0.29002  0.17743  1.0000
  C   C180      1.0  0.75896  0.25519  0.28124  1.0000
  H   H96       1.0  0.75455  0.25299  0.21683  1.0000
  C   C181      1.0  0.96537  0.46887  0.39793  1.0000
  C   C182      1.0  0.94659  0.44656  0.39861  1.0000
  C   C183      1.0  0.87796  0.38630  0.38235  1.0000
  C   C184      1.0  0.89804  0.40769  0.38278  1.0000
  C   C185      1.0  0.96283  0.58291  0.40051  1.0000
  C   C186      1.0  0.94419  0.58665  0.40122  1.0000
  C   C187      1.0  0.91246  0.60589  0.38981  1.0000
  C   C188      1.0  0.89259  0.60757  0.39265  1.0000
  C   C189      1.0  0.12022  0.67724  0.39870  1.0000
  C   C190      1.0  0.10156  0.65487  0.39806  1.0000
  C   C191      1.0  0.16854  0.71654  0.38221  1.0000
  C   C192      1.0  0.18842  0.73809  0.38180  1.0000
  C   C193      1.0  0.10422  0.54108  0.40068  1.0000
  C   C194      1.0  0.12297  0.53752  0.40138  1.0000
  C   C195      1.0  0.17526  0.51754  0.39309  1.0000
  C   C196      1.0  0.15519  0.51887  0.39025  1.0000
  H   H97       1.0  0.17746  0.50876  0.44438  1.0000
  H   H98       1.0  0.14328  0.51071  0.43923  1.0000
  H   H99       1.0  0.13097  0.53894  0.46122  1.0000
  H   H100      1.0  0.09908  0.54479  0.45959  1.0000
  H   H101      1.0  0.09465  0.64697  0.45774  1.0000
  H   H102      1.0  0.12602  0.68511  0.45924  1.0000
  H   H103      1.0  0.96803  0.57918  0.45948  1.0000
  H   H104      1.0  0.93634  0.58535  0.46113  1.0000
  H   H105      1.0  0.89064  0.61652  0.44366  1.0000
  H   H106      1.0  0.92450  0.61399  0.43849  1.0000
  H   H107      1.0  0.89937  0.41950  0.42856  1.0000
  H   H108      1.0  0.86554  0.38332  0.42791  1.0000
  H   H109      1.0  0.94086  0.43863  0.45915  1.0000
  H   H110      1.0  0.97242  0.47666  0.45758  1.0000
  H   H111      1.0  0.16747  0.70472  0.42770  1.0000
  H   H112      1.0  0.20098  0.74118  0.42703  1.0000
  C   C197      1.0  0.62789  0.58960  0.39957  1.0000
  C   C198      1.0  0.65019  0.59313  0.40008  1.0000
  C   C199      1.0  0.71047  0.58482  0.38312  1.0000
  C   C200      1.0  0.68907  0.58348  0.38371  1.0000
  C   C201      1.0  0.51386  0.47307  0.40259  1.0000
  C   C202      1.0  0.51010  0.45068  0.40334  1.0000
  C   C203      1.0  0.49085  0.39971  0.39201  1.0000
  C   C204      1.0  0.48918  0.37816  0.39486  1.0000
  C   C205      1.0  0.41947  0.53615  0.40019  1.0000
  C   C206      1.0  0.44185  0.53987  0.39972  1.0000
  C   C207      1.0  0.38016  0.54515  0.38318  1.0000
  C   C208      1.0  0.35861  0.54349  0.38251  1.0000
  C   C209      1.0  0.55563  0.65625  0.40276  1.0000
  C   C210      1.0  0.55919  0.67856  0.40350  1.0000
  C   C211      1.0  0.57915  0.75084  0.39537  1.0000
  C   C212      1.0  0.57783  0.72944  0.39251  1.0000
  H   H113      1.0  0.58791  0.76175  0.44671  1.0000
  H   H114      1.0  0.58597  0.72562  0.44153  1.0000
  H   H115      1.0  0.55774  0.68505  0.46332  1.0000
  H   H116      1.0  0.55190  0.64731  0.46165  1.0000
  H   H117      1.0  0.44974  0.54082  0.45946  1.0000
  H   H118      1.0  0.41159  0.53402  0.46068  1.0000
  H   H119      1.0  0.51756  0.48191  0.46155  1.0000
  H   H120      1.0  0.51139  0.44404  0.46326  1.0000
  H   H121      1.0  0.48023  0.36721  0.44588  1.0000
  H   H122      1.0  0.48276  0.40360  0.44068  1.0000
  H   H123      1.0  0.67728  0.57294  0.42956  1.0000
  H   H124      1.0  0.71347  0.57530  0.42853  1.0000
  H   H125      1.0  0.65815  0.59524  0.46056  1.0000
  H   H126      1.0  0.62011  0.58876  0.45929  1.0000
  H   H127      1.0  0.39196  0.55588  0.42862  1.0000
  H   H128      1.0  0.35551  0.55294  0.42754  1.0000
  C   C213      1.0  0.50714  0.13140  0.40111  1.0000
  C   C214      1.0  0.50363  0.15019  0.40172  1.0000
  C   C215      1.0  0.51193  0.21880  0.38494  1.0000
  C   C216      1.0  0.51325  0.19872  0.38550  1.0000
  C   C217      1.0  0.62372  0.13398  0.40322  1.0000
  C   C218      1.0  0.64611  0.15260  0.40368  1.0000
  C   C219      1.0  0.69707  0.18433  0.39176  1.0000
  C   C220      1.0  0.71862  0.20421  0.39431  1.0000
  C   C221      1.0  0.56059  0.97647  0.40186  1.0000
  C   C222      1.0  0.55686  0.99513  0.40130  1.0000
  C   C223      1.0  0.55159  0.92818  0.38505  1.0000
  C   C224      1.0  0.55326  0.90830  0.38448  1.0000
  C   C225      1.0  0.44043  0.99245  0.40339  1.0000
  C   C226      1.0  0.41811  0.97370  0.40385  1.0000
  C   C227      1.0  0.34584  0.92141  0.39474  1.0000
  C   C228      1.0  0.36724  0.94148  0.39219  1.0000
  H   H129      1.0  0.33488  0.91917  0.44592  1.0000
  H   H130      1.0  0.37102  0.95336  0.44127  1.0000
  H   H131      1.0  0.41158  0.96566  0.46358  1.0000
  H   H132      1.0  0.44931  0.99756  0.46239  1.0000
  H   H133      1.0  0.55591  0.00200  0.46100  1.0000
  H   H134      1.0  0.56270  0.97064  0.46239  1.0000
  H   H135      1.0  0.61491  0.12882  0.46226  1.0000
  H   H136      1.0  0.65278  0.16051  0.46348  1.0000
  H   H137      1.0  0.72961  0.20620  0.44527  1.0000
  H   H138      1.0  0.69321  0.17233  0.44059  1.0000
  H   H139      1.0  0.52382  0.19742  0.43123  1.0000
  H   H140      1.0  0.52146  0.23125  0.43032  1.0000
  H   H141      1.0  0.50155  0.15596  0.46224  1.0000
  H   H142      1.0  0.50803  0.12441  0.46080  1.0000
  H   H143      1.0  0.54086  0.92920  0.43043  1.0000
  H   H144      1.0  0.54380  0.89569  0.42950  1.0000
  C   C229      1.0  0.28821  0.52930  0.34781  1.0000
  C   C230      1.0  0.27100  0.52306  0.41359  1.0000
  C   C231      1.0  0.25011  0.52239  0.39277  1.0000
  N   N25       1.0  0.23449  0.51624  0.45981  1.0000
  C   C232      1.0  0.23762  0.51081  0.54406  1.0000
  C   C233      1.0  0.25815  0.51150  0.56428  1.0000
  N   N26       1.0  0.27391  0.51755  0.49865  1.0000
  H   H145      1.0  0.22525  0.50635  0.59142  1.0000
  H   H146      1.0  0.26126  0.50755  0.62689  1.0000
  C   C234      1.0  0.30933  0.53163  0.36920  1.0000
  H   H147      1.0  0.31520  0.53628  0.43119  1.0000
  C   C235      1.0  0.56743  0.85210  0.34996  1.0000
  C   C236      1.0  0.57368  0.84106  0.41574  1.0000
  C   C237      1.0  0.57435  0.82087  0.39494  1.0000
  N   N27       1.0  0.58052  0.81133  0.46196  1.0000
  C   C238      1.0  0.58597  0.81979  0.54620  1.0000
  C   C239      1.0  0.58528  0.83961  0.56640  1.0000
  N   N28       1.0  0.57921  0.84939  0.50077  1.0000
  H   H148      1.0  0.59043  0.81183  0.59356  1.0000
  H   H149      1.0  0.58924  0.84660  0.62898  1.0000
  C   C240      1.0  0.56512  0.87088  0.37132  1.0000
  H   H150      1.0  0.56050  0.87205  0.43333  1.0000
  C   C241      1.0  0.24461  0.80852  0.34791  1.0000
  C   C242      1.0  0.25559  0.82570  0.41382  1.0000
  C   C243      1.0  0.27580  0.84660  0.39329  1.0000
  N   N29       1.0  0.28527  0.86220  0.46044  1.0000
  C   C244      1.0  0.27674  0.85904  0.54456  1.0000
  C   C245      1.0  0.25690  0.83849  0.56450  1.0000
  N   N30       1.0  0.24719  0.82275  0.49875  1.0000
  H   H151      1.0  0.28466  0.87139  0.59202  1.0000
  H   H152      1.0  0.24987  0.83536  0.62699  1.0000
  C   C246      1.0  0.22583  0.78738  0.36903  1.0000
  H   H153      1.0  0.22461  0.78149  0.43102  1.0000
  C   C247      1.0  0.78040  0.59776  0.34797  1.0000
  C   C248      1.0  0.79764  0.60368  0.41364  1.0000
  C   C249      1.0  0.81828  0.60389  0.39277  1.0000
  N   N31       1.0  0.83394  0.60974  0.45973  1.0000
  C   C250      1.0  0.83109  0.61530  0.54393  1.0000
  C   C251      1.0  0.81080  0.61507  0.56418  1.0000
  N   N32       1.0  0.79500  0.60931  0.49864  1.0000
  H   H154      1.0  0.84347  0.61951  0.59123  1.0000
  H   H155      1.0  0.80790  0.61912  0.62676  1.0000
  C   C252      1.0  0.75949  0.59587  0.36943  1.0000
  H   H156      1.0  0.75372  0.59140  0.43159  1.0000
  C   C253      1.0  0.49897  0.27583  0.34998  1.0000
  C   C254      1.0  0.49306  0.28707  0.41569  1.0000
  C   C255      1.0  0.49284  0.30752  0.39487  1.0000
  N   N33       1.0  0.48700  0.31724  0.46186  1.0000
  C   C256      1.0  0.48146  0.30872  0.54607  1.0000
  C   C257      1.0  0.48170  0.28864  0.56629  1.0000
  N   N34       1.0  0.48745  0.27869  0.50070  1.0000
  H   H157      1.0  0.47725  0.31683  0.59340  1.0000
  H   H158      1.0  0.47766  0.28161  0.62885  1.0000
  C   C258      1.0  0.50088  0.25679  0.37141  1.0000
  H   H159      1.0  0.50538  0.25542  0.43353  1.0000
  C   C259      1.0  0.82092  0.31634  0.34796  1.0000
  C   C260      1.0  0.80975  0.29913  0.41380  1.0000
  C   C261      1.0  0.78929  0.27847  0.39323  1.0000
  N   N35       1.0  0.77964  0.26284  0.46033  1.0000
  C   C262      1.0  0.78823  0.26574  0.54441  1.0000
  C   C263      1.0  0.80833  0.28604  0.56437  1.0000
  N   N36       1.0  0.81822  0.30182  0.49868  1.0000
  H   H160      1.0  0.78018  0.25338  0.59182  1.0000
  H   H161      1.0  0.81542  0.28898  0.62683  1.0000
  C   C264      1.0  0.83998  0.33727  0.36916  1.0000
  H   H162      1.0  0.84141  0.34307  0.43130  1.0000
