data_image0
_chemical_formula_structural       C3NOC2NCHCHCH2C4H2C2H2C2H2C2H2C2H2C2H2C2H2C2H2C4NC2NHOHC4NC2NHOHC2NCHC4NC2NHOHC4NC2NHOHC3NOHC4NC2NHOHC4NC2NHOHC4NC2NHOHC4NC2NHOHC4NC2NHOHC4NC2NHOHCNCNCNC15H10CNCNCNC18H12CNCNCNC15H10CNCNCNC18H12CNCNCNC18H12CNCNCNC18H12CNCNCNC18H12CNCNCNC18H12CNCNCNC18H12CNCNCNC18H12CNCNCNC18H12CNCNCNC18H12C4NC2NHOHC4NC2NHOHC4NC2NHOHC4NC2NHOHC4NC2NHOHC4NC2NHOHC2H2C2H2CHC2H2C2H2CHC2H2C2H2C2H2C2H2C2H2C2H2
_chemical_formula_sum              "C396 N72 O18 H216"
_cell_length_a       74.4389
_cell_length_b       74.439
_cell_length_c       14.9774
_cell_angle_alpha    90
_cell_angle_beta     90
_cell_angle_gamma    120

_space_group_name_H-M_alt    "P 1"
_space_group_IT_number       1

loop_
  _space_group_symop_operation_xyz
  'x, y, z'

loop_
  _atom_site_type_symbol
  _atom_site_label
  _atom_site_symmetry_multiplicity
  _atom_site_fract_x
  _atom_site_fract_y
  _atom_site_fract_z
  _atom_site_occupancy
  C   C1        1.0  0.01874  0.80455  0.33059  1.0000
  C   C2        1.0  0.00762  0.79896  0.24847  1.0000
  C   C3        1.0  0.00633  0.79827  0.08833  1.0000
  N   N1        1.0  0.01712  0.80368  0.16643  1.0000
  O   O1        1.0  0.01628  0.80321  0.00877  1.0000
  C   C4        1.0  0.00788  0.19583  0.25043  1.0000
  C   C5        1.0  0.01880  0.20125  0.33247  1.0000
  N   N2        1.0  0.01833  0.20107  0.17147  1.0000
  C   C6        1.0  0.00880  0.19634  0.09100  1.0000
  H   H1        1.0  0.01740  0.20065  0.03370  1.0000
  C   C7        1.0  0.00770  0.79904  0.41206  1.0000
  H   H2        1.0  0.01547  0.80295  0.47173  1.0000
  C   C8        1.0  0.00747  0.19559  0.41302  1.0000
  H   H3        1.0  0.01502  0.19933  0.47323  1.0000
  H   H4        1.0  0.03218  0.81121  0.16218  1.0000
  C   C9        1.0  0.04077  0.21217  0.33537  1.0000
  C   C10       1.0  0.04071  0.81559  0.33386  1.0000
  C   C11       1.0  0.05182  0.20135  0.33555  1.0000
  C   C12       1.0  0.05195  0.23405  0.33543  1.0000
  H   H5        1.0  0.04405  0.18546  0.33487  1.0000
  H   H6        1.0  0.04428  0.24226  0.33466  1.0000
  C   C13       1.0  0.05189  0.80490  0.33430  1.0000
  C   C14       1.0  0.05177  0.83747  0.33439  1.0000
  H   H7        1.0  0.04421  0.78902  0.33337  1.0000
  H   H8        1.0  0.04400  0.84559  0.33354  1.0000
  C   C15       1.0  0.20007  0.39858  0.25634  1.0000
  C   C16       1.0  0.18918  0.37679  0.25766  1.0000
  H   H9        1.0  0.18527  0.36897  0.19811  1.0000
  H   H10       1.0  0.20382  0.40608  0.19604  1.0000
  C   C17       1.0  0.58999  0.78854  0.25633  1.0000
  C   C18       1.0  0.61177  0.79943  0.25764  1.0000
  H   H11       1.0  0.61959  0.80335  0.19811  1.0000
  H   H12       1.0  0.58249  0.78479  0.19602  1.0000
  C   C19       1.0  0.20002  0.78849  0.25633  1.0000
  C   C20       1.0  0.18913  0.79938  0.25765  1.0000
  H   H13       1.0  0.18521  0.80329  0.19811  1.0000
  H   H14       1.0  0.20376  0.78474  0.19602  1.0000
  C   C21       1.0  0.79332  0.58517  0.25632  1.0000
  C   C22       1.0  0.80421  0.60695  0.25764  1.0000
  H   H15       1.0  0.80812  0.61478  0.19811  1.0000
  H   H16       1.0  0.78957  0.57767  0.19601  1.0000
  C   C23       1.0  0.40340  0.19519  0.25633  1.0000
  C   C24       1.0  0.38161  0.18430  0.25764  1.0000
  H   H17       1.0  0.37379  0.18039  0.19811  1.0000
  H   H18       1.0  0.41090  0.19894  0.19602  1.0000
  C   C25       1.0  0.79335  0.19524  0.25633  1.0000
  C   C26       1.0  0.80425  0.18435  0.25764  1.0000
  H   H19       1.0  0.80816  0.18044  0.19810  1.0000
  H   H20       1.0  0.78960  0.19899  0.19602  1.0000
  C   C27       1.0  0.18401  0.20124  0.33059  1.0000
  C   C28       1.0  0.18960  0.19571  0.24847  1.0000
  C   C29       1.0  0.20065  0.18464  0.25043  1.0000
  C   C30       1.0  0.20608  0.17914  0.33247  1.0000
  N   N3        1.0  0.20589  0.17943  0.17147  1.0000
  C   C31       1.0  0.20116  0.18423  0.09099  1.0000
  C   C32       1.0  0.19029  0.19511  0.08833  1.0000
  N   N4        1.0  0.18488  0.20049  0.16644  1.0000
  H   H21       1.0  0.20547  0.17994  0.03370  1.0000
  O   O2        1.0  0.18535  0.20011  0.00877  1.0000
  H   H22       1.0  0.17735  0.20802  0.16218  1.0000
  C   C33       1.0  0.78732  0.96982  0.33059  1.0000
  C   C34       1.0  0.79285  0.98094  0.24847  1.0000
  C   C35       1.0  0.80392  0.00307  0.25042  1.0000
  C   C36       1.0  0.80942  0.01398  0.33246  1.0000
  N   N5        1.0  0.80913  0.01351  0.17147  1.0000
  C   C37       1.0  0.80433  0.00398  0.09099  1.0000
  C   C38       1.0  0.79345  0.98223  0.08833  1.0000
  N   N6        1.0  0.78807  0.97144  0.16644  1.0000
  H   H23       1.0  0.80862  0.01258  0.03369  1.0000
  O   O3        1.0  0.78845  0.97228  0.00877  1.0000
  H   H24       1.0  0.78053  0.95637  0.16219  1.0000
  C   C39       1.0  0.98549  0.78790  0.25042  1.0000
  C   C40       1.0  0.97458  0.78248  0.33246  1.0000
  N   N7        1.0  0.97505  0.78267  0.17147  1.0000
  C   C41       1.0  0.98458  0.78740  0.09099  1.0000
  H   H25       1.0  0.97598  0.78309  0.03369  1.0000
  C   C42       1.0  0.80937  0.78250  0.33059  1.0000
  C   C43       1.0  0.80378  0.78803  0.24847  1.0000
  C   C44       1.0  0.79273  0.79910  0.25042  1.0000
  C   C45       1.0  0.78730  0.80460  0.33246  1.0000
  N   N8        1.0  0.78749  0.80431  0.17147  1.0000
  C   C46       1.0  0.79222  0.79951  0.09099  1.0000
  C   C47       1.0  0.80309  0.78863  0.08833  1.0000
  N   N9        1.0  0.80850  0.78325  0.16644  1.0000
  H   H26       1.0  0.78791  0.80380  0.03369  1.0000
  O   O4        1.0  0.80803  0.78363  0.00877  1.0000
  H   H27       1.0  0.81603  0.77571  0.16219  1.0000
  C   C48       1.0  0.20606  0.01392  0.33059  1.0000
  C   C49       1.0  0.20053  0.00280  0.24848  1.0000
  C   C50       1.0  0.18946  0.98067  0.25043  1.0000
  C   C51       1.0  0.18396  0.96976  0.33247  1.0000
  N   N10       1.0  0.18425  0.97023  0.17148  1.0000
  C   C52       1.0  0.18905  0.97976  0.09100  1.0000
  C   C53       1.0  0.19993  0.00151  0.08833  1.0000
  N   N11       1.0  0.20531  0.01230  0.16644  1.0000
  H   H28       1.0  0.18476  0.97116  0.03370  1.0000
  O   O5        1.0  0.20493  0.01145  0.00877  1.0000
  H   H29       1.0  0.21285  0.02736  0.16218  1.0000
  C   C54       1.0  0.97464  0.17919  0.33059  1.0000
  C   C55       1.0  0.98576  0.18478  0.24847  1.0000
  C   C56       1.0  0.98705  0.18547  0.08833  1.0000
  N   N12       1.0  0.97626  0.18006  0.16643  1.0000
  O   O6        1.0  0.97711  0.18053  0.00876  1.0000
  H   H30       1.0  0.96120  0.17253  0.16218  1.0000
  C   C57       1.0  0.21116  0.61823  0.33076  1.0000
  C   C58       1.0  0.21048  0.60823  0.24884  1.0000
  C   C59       1.0  0.21066  0.58918  0.25096  1.0000
  C   C60       1.0  0.21140  0.58012  0.33305  1.0000
  N   N13       1.0  0.21165  0.58064  0.17205  1.0000
  C   C61       1.0  0.21199  0.58904  0.09153  1.0000
  C   C62       1.0  0.21167  0.60771  0.08877  1.0000
  N   N14       1.0  0.21115  0.61679  0.16685  1.0000
  H   H31       1.0  0.21265  0.58192  0.03432  1.0000
  O   O7        1.0  0.21218  0.61659  0.00925  1.0000
  H   H32       1.0  0.21099  0.62976  0.16276  1.0000
  C   C63       1.0  0.37032  0.57999  0.33079  1.0000
  C   C64       1.0  0.38033  0.58932  0.24887  1.0000
  C   C65       1.0  0.39938  0.60855  0.25098  1.0000
  C   C66       1.0  0.40844  0.61832  0.33312  1.0000
  N   N15       1.0  0.40793  0.61808  0.17207  1.0000
  C   C67       1.0  0.39952  0.61001  0.09156  1.0000
  C   C68       1.0  0.38085  0.59102  0.08880  1.0000
  N   N16       1.0  0.37177  0.58142  0.16688  1.0000
  H   H33       1.0  0.40664  0.61779  0.03435  1.0000
  O   O8        1.0  0.37198  0.58266  0.00927  1.0000
  H   H34       1.0  0.35880  0.56829  0.16278  1.0000
  C   C69       1.0  0.40857  0.77735  0.33080  1.0000
  C   C70       1.0  0.39925  0.77806  0.24886  1.0000
  C   C71       1.0  0.38003  0.77790  0.25089  1.0000
  C   C72       1.0  0.37021  0.77717  0.33291  1.0000
  N   N17       1.0  0.37052  0.77694  0.17197  1.0000
  C   C73       1.0  0.37859  0.77660  0.09148  1.0000
  C   C74       1.0  0.39758  0.77689  0.08877  1.0000
  N   N18       1.0  0.40715  0.77740  0.16689  1.0000
  H   H35       1.0  0.37082  0.77595  0.03425  1.0000
  O   O9        1.0  0.40594  0.77638  0.00927  1.0000
  H   H36       1.0  0.42028  0.77754  0.16281  1.0000
  C   C75       1.0  0.78217  0.36547  0.33061  1.0000
  C   C76       1.0  0.78290  0.37552  0.24876  1.0000
  C   C77       1.0  0.78276  0.39460  0.25079  1.0000
  C   C78       1.0  0.78203  0.40366  0.33284  1.0000
  N   N19       1.0  0.78180  0.40315  0.17189  1.0000
  C   C79       1.0  0.78145  0.39474  0.09139  1.0000
  C   C80       1.0  0.78174  0.37604  0.08868  1.0000
  N   N20       1.0  0.78224  0.36696  0.16678  1.0000
  H   H37       1.0  0.78081  0.40186  0.03417  1.0000
  O   O10       1.0  0.78121  0.36716  0.00917  1.0000
  H   H38       1.0  0.78236  0.35397  0.16271  1.0000
  C   C81       1.0  0.62309  0.40376  0.33061  1.0000
  C   C82       1.0  0.61304  0.39443  0.24877  1.0000
  C   C83       1.0  0.59397  0.37521  0.25084  1.0000
  C   C84       1.0  0.58490  0.36539  0.33288  1.0000
  N   N21       1.0  0.58542  0.36569  0.17193  1.0000
  C   C85       1.0  0.59383  0.37376  0.09142  1.0000
  C   C86       1.0  0.61251  0.39274  0.08870  1.0000
  N   N22       1.0  0.62159  0.40233  0.16679  1.0000
  H   H39       1.0  0.58671  0.36598  0.03421  1.0000
  O   O11       1.0  0.62140  0.40110  0.00918  1.0000
  H   H40       1.0  0.63458  0.41544  0.16271  1.0000
  C   C87       1.0  0.58480  0.20634  0.33065  1.0000
  C   C88       1.0  0.59414  0.20566  0.24877  1.0000
  C   C89       1.0  0.61337  0.20583  0.25090  1.0000
  C   C90       1.0  0.62313  0.20656  0.33307  1.0000
  N   N23       1.0  0.62290  0.20682  0.17201  1.0000
  C   C91       1.0  0.61484  0.20716  0.09149  1.0000
  C   C92       1.0  0.59586  0.20685  0.08871  1.0000
  N   N24       1.0  0.58625  0.20633  0.16678  1.0000
  H   H41       1.0  0.62263  0.20783  0.03429  1.0000
  O   O12       1.0  0.58751  0.20738  0.00918  1.0000
  H   H42       1.0  0.57312  0.20619  0.16268  1.0000
  C   C93       1.0  0.13949  0.24525  0.33575  1.0000
  N   N25       1.0  0.14953  0.26634  0.33533  1.0000
  C   C94       1.0  0.13948  0.27739  0.33521  1.0000
  N   N26       1.0  0.11839  0.26634  0.33557  1.0000
  C   C95       1.0  0.10733  0.24525  0.33599  1.0000
  N   N27       1.0  0.11838  0.23519  0.33603  1.0000
  C   C96       1.0  0.15056  0.29955  0.33504  1.0000
  C   C97       1.0  0.17256  0.31097  0.33521  1.0000
  C   C98       1.0  0.18351  0.33280  0.33594  1.0000
  C   C99       1.0  0.17273  0.34390  0.33639  1.0000
  C   C100      1.0  0.15085  0.33280  0.33597  1.0000
  C   C101      1.0  0.13997  0.31097  0.33523  1.0000
  C   C102      1.0  0.15064  0.23422  0.33559  1.0000
  C   C103      1.0  0.17264  0.24485  0.33522  1.0000
  C   C104      1.0  0.18366  0.23404  0.33430  1.0000
  C   C105      1.0  0.17296  0.21216  0.33386  1.0000
  C   C106      1.0  0.15108  0.20134  0.33439  1.0000
  C   C107      1.0  0.14013  0.21222  0.33533  1.0000
  C   C108      1.0  0.08516  0.23423  0.33615  1.0000
  C   C109      1.0  0.07366  0.21223  0.33606  1.0000
  C   C110      1.0  0.07379  0.24486  0.33595  1.0000
  H   H43       1.0  0.19954  0.24224  0.33337  1.0000
  H   H44       1.0  0.18103  0.26072  0.33518  1.0000
  H   H45       1.0  0.14297  0.18545  0.33354  1.0000
  H   H46       1.0  0.12427  0.20376  0.33535  1.0000
  H   H47       1.0  0.08105  0.20376  0.33595  1.0000
  H   H48       1.0  0.08127  0.26072  0.33575  1.0000
  H   H49       1.0  0.12411  0.30353  0.33531  1.0000
  H   H50       1.0  0.14269  0.34052  0.33676  1.0000
  H   H51       1.0  0.19939  0.34053  0.33671  1.0000
  H   H52       1.0  0.18099  0.30354  0.33527  1.0000
  C   C111      1.0  0.74332  0.88129  0.33575  1.0000
  N   N28       1.0  0.72222  0.87024  0.33533  1.0000
  C   C112      1.0  0.71117  0.84914  0.33522  1.0000
  N   N29       1.0  0.72222  0.83910  0.33558  1.0000
  C   C113      1.0  0.74331  0.84914  0.33600  1.0000
  N   N30       1.0  0.75337  0.87024  0.33604  1.0000
  C   C114      1.0  0.68902  0.83806  0.33505  1.0000
  C   C115      1.0  0.67759  0.84864  0.33521  1.0000
  C   C116      1.0  0.65576  0.83775  0.33595  1.0000
  C   C117      1.0  0.64467  0.81588  0.33638  1.0000
  C   C118      1.0  0.65577  0.80511  0.33596  1.0000
  C   C119      1.0  0.67760  0.81606  0.33524  1.0000
  C   C120      1.0  0.75434  0.90346  0.33559  1.0000
  C   C121      1.0  0.74371  0.91484  0.33521  1.0000
  C   C122      1.0  0.75452  0.93667  0.33429  1.0000
  C   C123      1.0  0.77640  0.94785  0.33386  1.0000
  C   C124      1.0  0.78722  0.93680  0.33439  1.0000
  C   C125      1.0  0.77634  0.91496  0.33533  1.0000
  C   C126      1.0  0.75434  0.83799  0.33615  1.0000
  C   C127      1.0  0.77633  0.84849  0.33606  1.0000
  C   C128      1.0  0.78721  0.83753  0.33554  1.0000
  C   C129      1.0  0.77639  0.81565  0.33535  1.0000
  C   C130      1.0  0.75452  0.80496  0.33544  1.0000
  C   C131      1.0  0.74370  0.81598  0.33595  1.0000
  H   H53       1.0  0.74632  0.94435  0.33338  1.0000
  H   H54       1.0  0.72784  0.90736  0.33519  1.0000
  H   H55       1.0  0.80311  0.94456  0.33354  1.0000
  H   H56       1.0  0.78480  0.90756  0.33535  1.0000
  H   H57       1.0  0.78480  0.86435  0.33595  1.0000
  H   H58       1.0  0.80310  0.84564  0.33486  1.0000
  H   H59       1.0  0.72784  0.80760  0.33577  1.0000
  H   H60       1.0  0.74630  0.78908  0.33466  1.0000
  H   H61       1.0  0.68504  0.80764  0.33531  1.0000
  H   H62       1.0  0.64804  0.78922  0.33676  1.0000
  H   H63       1.0  0.64803  0.84591  0.33672  1.0000
  H   H64       1.0  0.68502  0.86450  0.33528  1.0000
  C   C132      1.0  0.10727  0.84907  0.33575  1.0000
  N   N31       1.0  0.11832  0.83903  0.33533  1.0000
  C   C133      1.0  0.13942  0.84908  0.33521  1.0000
  N   N32       1.0  0.14946  0.87017  0.33557  1.0000
  C   C134      1.0  0.13942  0.88123  0.33599  1.0000
  N   N33       1.0  0.11832  0.87018  0.33603  1.0000
  C   C135      1.0  0.15050  0.83800  0.33504  1.0000
  C   C136      1.0  0.13992  0.81600  0.33521  1.0000
  C   C137      1.0  0.15081  0.80505  0.33595  1.0000
  C   C138      1.0  0.17268  0.81583  0.33639  1.0000
  C   C139      1.0  0.18345  0.83771  0.33597  1.0000
  C   C140      1.0  0.17250  0.84859  0.33523  1.0000
  C   C141      1.0  0.08510  0.83792  0.33559  1.0000
  C   C142      1.0  0.07372  0.81592  0.33522  1.0000
  C   C143      1.0  0.07360  0.84843  0.33533  1.0000
  C   C144      1.0  0.15057  0.90340  0.33615  1.0000
  C   C145      1.0  0.14007  0.91490  0.33606  1.0000
  C   C146      1.0  0.15103  0.93673  0.33555  1.0000
  C   C147      1.0  0.17291  0.94779  0.33537  1.0000
  C   C148      1.0  0.18360  0.93661  0.33543  1.0000
  C   C149      1.0  0.17258  0.91477  0.33595  1.0000
  H   H65       1.0  0.08120  0.80753  0.33518  1.0000
  H   H66       1.0  0.08099  0.86429  0.33535  1.0000
  H   H67       1.0  0.12422  0.90751  0.33595  1.0000
  H   H68       1.0  0.14292  0.94451  0.33486  1.0000
  H   H69       1.0  0.18096  0.90729  0.33575  1.0000
  H   H70       1.0  0.19949  0.94428  0.33466  1.0000
  H   H71       1.0  0.18092  0.86445  0.33531  1.0000
  H   H72       1.0  0.19934  0.84587  0.33676  1.0000
  H   H73       1.0  0.14265  0.78917  0.33671  1.0000
  H   H74       1.0  0.12406  0.80757  0.33527  1.0000
  C   C150      1.0  0.85389  0.73850  0.33575  1.0000
  N   N34       1.0  0.84385  0.71740  0.33533  1.0000
  C   C151      1.0  0.85390  0.70635  0.33522  1.0000
  N   N35       1.0  0.87499  0.71740  0.33558  1.0000
  C   C152      1.0  0.88605  0.73850  0.33600  1.0000
  N   N36       1.0  0.87500  0.74855  0.33604  1.0000
  C   C153      1.0  0.84282  0.68420  0.33505  1.0000
  C   C154      1.0  0.82082  0.67277  0.33521  1.0000
  C   C155      1.0  0.80988  0.65094  0.33595  1.0000
  C   C156      1.0  0.82066  0.63985  0.33638  1.0000
  C   C157      1.0  0.84253  0.65095  0.33596  1.0000
  C   C158      1.0  0.85341  0.67278  0.33524  1.0000
  C   C159      1.0  0.84275  0.74952  0.33559  1.0000
  C   C160      1.0  0.82074  0.73889  0.33521  1.0000
  C   C161      1.0  0.80972  0.74970  0.33429  1.0000
  C   C162      1.0  0.82042  0.77158  0.33386  1.0000
  C   C163      1.0  0.84229  0.78240  0.33439  1.0000
  C   C164      1.0  0.85325  0.77152  0.33533  1.0000
  C   C165      1.0  0.90822  0.74952  0.33615  1.0000
  C   C166      1.0  0.91972  0.77151  0.33607  1.0000
  C   C167      1.0  0.94156  0.78239  0.33554  1.0000
  C   C168      1.0  0.95261  0.77157  0.33535  1.0000
  C   C169      1.0  0.94143  0.74969  0.33545  1.0000
  C   C170      1.0  0.91959  0.73888  0.33595  1.0000
  H   H75       1.0  0.79384  0.74149  0.33338  1.0000
  H   H76       1.0  0.81235  0.72302  0.33519  1.0000
  H   H77       1.0  0.85041  0.79829  0.33354  1.0000
  H   H78       1.0  0.86911  0.77998  0.33535  1.0000
  H   H79       1.0  0.91233  0.77998  0.33595  1.0000
  H   H80       1.0  0.94933  0.79828  0.33485  1.0000
  H   H81       1.0  0.91211  0.72302  0.33578  1.0000
  H   H82       1.0  0.94910  0.74148  0.33468  1.0000
  H   H83       1.0  0.86927  0.68022  0.33531  1.0000
  H   H84       1.0  0.85069  0.64322  0.33675  1.0000
  H   H85       1.0  0.79399  0.64321  0.33672  1.0000
  H   H86       1.0  0.81240  0.68020  0.33528  1.0000
  C   C171      1.0  0.25007  0.10245  0.33575  1.0000
  N   N37       1.0  0.27116  0.11351  0.33533  1.0000
  C   C172      1.0  0.28221  0.13460  0.33521  1.0000
  N   N38       1.0  0.27116  0.14464  0.33557  1.0000
  C   C173      1.0  0.25007  0.13460  0.33599  1.0000
  N   N39       1.0  0.24001  0.11350  0.33604  1.0000
  C   C174      1.0  0.30437  0.14568  0.33505  1.0000
  C   C175      1.0  0.31579  0.13510  0.33521  1.0000
  C   C176      1.0  0.33762  0.14599  0.33595  1.0000
  C   C177      1.0  0.34872  0.16786  0.33639  1.0000
  C   C178      1.0  0.33762  0.17863  0.33597  1.0000
  C   C179      1.0  0.31579  0.16768  0.33523  1.0000
  C   C180      1.0  0.23904  0.08028  0.33559  1.0000
  C   C181      1.0  0.24968  0.06890  0.33522  1.0000
  C   C182      1.0  0.23886  0.04707  0.33429  1.0000
  C   C183      1.0  0.21698  0.03589  0.33386  1.0000
  C   C184      1.0  0.20616  0.04695  0.33439  1.0000
  C   C185      1.0  0.21704  0.06878  0.33532  1.0000
  C   C186      1.0  0.23905  0.14575  0.33615  1.0000
  C   C187      1.0  0.21705  0.13525  0.33606  1.0000
  C   C188      1.0  0.20617  0.14621  0.33555  1.0000
  C   C189      1.0  0.21699  0.16809  0.33535  1.0000
  C   C190      1.0  0.23887  0.17878  0.33543  1.0000
  C   C191      1.0  0.24968  0.16776  0.33595  1.0000
  H   H87       1.0  0.24707  0.03939  0.33337  1.0000
  H   H88       1.0  0.26554  0.07638  0.33518  1.0000
  H   H89       1.0  0.19028  0.03918  0.33354  1.0000
  H   H90       1.0  0.20858  0.07618  0.33535  1.0000
  H   H91       1.0  0.20858  0.11939  0.33595  1.0000
  H   H92       1.0  0.19028  0.13810  0.33486  1.0000
  H   H93       1.0  0.26555  0.17614  0.33576  1.0000
  H   H94       1.0  0.24708  0.19466  0.33466  1.0000
  H   H95       1.0  0.30835  0.17610  0.33531  1.0000
  H   H96       1.0  0.34534  0.19452  0.33676  1.0000
  H   H97       1.0  0.34535  0.13783  0.33671  1.0000
  H   H98       1.0  0.30836  0.11924  0.33527  1.0000
  C   C192      1.0  0.88611  0.13467  0.33575  1.0000
  N   N40       1.0  0.87505  0.14471  0.33533  1.0000
  C   C193      1.0  0.85396  0.13466  0.33522  1.0000
  N   N41       1.0  0.84392  0.11357  0.33558  1.0000
  C   C194      1.0  0.85396  0.10251  0.33601  1.0000
  N   N42       1.0  0.87506  0.11356  0.33605  1.0000
  C   C195      1.0  0.84288  0.14574  0.33505  1.0000
  C   C196      1.0  0.85346  0.16774  0.33521  1.0000
  C   C197      1.0  0.84257  0.17869  0.33595  1.0000
  C   C198      1.0  0.82070  0.16790  0.33637  1.0000
  C   C199      1.0  0.80993  0.14603  0.33595  1.0000
  C   C200      1.0  0.82088  0.13515  0.33524  1.0000
  C   C201      1.0  0.90828  0.14582  0.33559  1.0000
  C   C202      1.0  0.91966  0.16783  0.33521  1.0000
  C   C203      1.0  0.94149  0.17884  0.33428  1.0000
  C   C204      1.0  0.95267  0.16814  0.33385  1.0000
  C   C205      1.0  0.94161  0.14627  0.33438  1.0000
  C   C206      1.0  0.91978  0.13531  0.33533  1.0000
  C   C207      1.0  0.84281  0.08034  0.33615  1.0000
  C   C208      1.0  0.85331  0.06884  0.33606  1.0000
  C   C209      1.0  0.84235  0.04701  0.33554  1.0000
  C   C210      1.0  0.82047  0.03595  0.33535  1.0000
  C   C211      1.0  0.80978  0.04714  0.33544  1.0000
  C   C212      1.0  0.82080  0.06897  0.33595  1.0000
  H   H99       1.0  0.94917  0.19472  0.33338  1.0000
  H   H100      1.0  0.91218  0.17621  0.33519  1.0000
  H   H101      1.0  0.94938  0.13815  0.33354  1.0000
  H   H102      1.0  0.91238  0.11945  0.33535  1.0000
  H   H103      1.0  0.86916  0.07623  0.33595  1.0000
  H   H104      1.0  0.85046  0.03923  0.33485  1.0000
  H   H105      1.0  0.81242  0.07645  0.33578  1.0000
  H   H106      1.0  0.79390  0.03946  0.33467  1.0000
  H   H107      1.0  0.81246  0.11929  0.33531  1.0000
  H   H108      1.0  0.79404  0.13787  0.33675  1.0000
  H   H109      1.0  0.85073  0.19457  0.33672  1.0000
  H   H110      1.0  0.86932  0.17617  0.33528  1.0000
  C   C213      1.0  0.24990  0.53042  0.33593  1.0000
  N   N43       1.0  0.23978  0.50934  0.33504  1.0000
  C   C214      1.0  0.24996  0.49835  0.33434  1.0000
  N   N44       1.0  0.27113  0.50933  0.33449  1.0000
  C   C215      1.0  0.28210  0.53041  0.33531  1.0000
  N   N45       1.0  0.27090  0.54022  0.33598  1.0000
  C   C216      1.0  0.23888  0.47621  0.33359  1.0000
  C   C217      1.0  0.21688  0.46479  0.33352  1.0000
  C   C218      1.0  0.20593  0.44297  0.33367  1.0000
  C   C219      1.0  0.21671  0.43188  0.33360  1.0000
  C   C220      1.0  0.23858  0.44296  0.33362  1.0000
  C   C221      1.0  0.24946  0.46479  0.33345  1.0000
  C   C222      1.0  0.23969  0.54233  0.33631  1.0000
  C   C223      1.0  0.21776  0.53300  0.33517  1.0000
  C   C224      1.0  0.20804  0.54514  0.33468  1.0000
  C   C225      1.0  0.22009  0.56698  0.33573  1.0000
  C   C226      1.0  0.24190  0.57642  0.33692  1.0000
  C   C227      1.0  0.25148  0.56432  0.33730  1.0000
  C   C228      1.0  0.30423  0.54230  0.33498  1.0000
  C   C229      1.0  0.31445  0.56428  0.33358  1.0000
  C   C230      1.0  0.33613  0.57636  0.33249  1.0000
  C   C231      1.0  0.34848  0.56690  0.33313  1.0000
  C   C232      1.0  0.33865  0.54505  0.33486  1.0000
  C   C233      1.0  0.31679  0.53294  0.33562  1.0000
  H   H111      1.0  0.19220  0.53798  0.33318  1.0000
  H   H112      1.0  0.20858  0.51720  0.33414  1.0000
  H   H113      1.0  0.25105  0.59226  0.33704  1.0000
  H   H114      1.0  0.26734  0.57199  0.33794  1.0000
  H   H115      1.0  0.30627  0.57197  0.33288  1.0000
  H   H116      1.0  0.34284  0.59220  0.33103  1.0000
  H   H117      1.0  0.31015  0.51714  0.33652  1.0000
  H   H118      1.0  0.34732  0.53787  0.33496  1.0000
  H   H119      1.0  0.26532  0.47221  0.33380  1.0000
  H   H120      1.0  0.24674  0.43523  0.33433  1.0000
  H   H121      1.0  0.19005  0.43524  0.33440  1.0000
  H   H122      1.0  0.20845  0.47222  0.33386  1.0000
  C   C234      1.0  0.45814  0.70652  0.33589  1.0000
  N   N46       1.0  0.47922  0.71748  0.33502  1.0000
  C   C235      1.0  0.49021  0.73865  0.33433  1.0000
  N   N47       1.0  0.47924  0.74884  0.33450  1.0000
  C   C236      1.0  0.45816  0.73874  0.33531  1.0000
  N   N48       1.0  0.44835  0.71773  0.33596  1.0000
  C   C237      1.0  0.51236  0.74972  0.33359  1.0000
  C   C238      1.0  0.52377  0.73913  0.33350  1.0000
  C   C239      1.0  0.54560  0.75001  0.33367  1.0000
  C   C240      1.0  0.55668  0.77188  0.33359  1.0000
  C   C241      1.0  0.54560  0.78266  0.33360  1.0000
  C   C242      1.0  0.52377  0.77172  0.33345  1.0000
  C   C243      1.0  0.44623  0.68439  0.33627  1.0000
  C   C244      1.0  0.45556  0.67180  0.33515  1.0000
  C   C245      1.0  0.44342  0.64994  0.33469  1.0000
  C   C246      1.0  0.42158  0.64014  0.33571  1.0000
  C   C247      1.0  0.41214  0.65252  0.33687  1.0000
  C   C248      1.0  0.42425  0.67420  0.33724  1.0000
  C   C249      1.0  0.44626  0.74897  0.33499  1.0000
  C   C250      1.0  0.42428  0.73720  0.33361  1.0000
  C   C251      1.0  0.41220  0.74681  0.33252  1.0000
  C   C252      1.0  0.42167  0.76862  0.33312  1.0000
  C   C253      1.0  0.44351  0.78064  0.33487  1.0000
  C   C254      1.0  0.45562  0.77089  0.33562  1.0000
  H   H123      1.0  0.45059  0.64126  0.33324  1.0000
  H   H124      1.0  0.47136  0.67842  0.33416  1.0000
  H   H125      1.0  0.39630  0.64583  0.33700  1.0000
  H   H126      1.0  0.41658  0.68239  0.33785  1.0000
  H   H127      1.0  0.41659  0.72133  0.33292  1.0000
  H   H128      1.0  0.39636  0.73767  0.33107  1.0000
  H   H129      1.0  0.47143  0.78006  0.33651  1.0000
  H   H130      1.0  0.45069  0.79649  0.33494  1.0000
  H   H131      1.0  0.51635  0.78015  0.33379  1.0000
  H   H132      1.0  0.55333  0.79855  0.33432  1.0000
  H   H133      1.0  0.55332  0.74185  0.33440  1.0000
  H   H134      1.0  0.51634  0.72327  0.33388  1.0000
  C   C255      1.0  0.28202  0.73865  0.33599  1.0000
  N   N49       1.0  0.27106  0.74878  0.33510  1.0000
  C   C256      1.0  0.24990  0.73859  0.33438  1.0000
  N   N50       1.0  0.23970  0.71742  0.33453  1.0000
  C   C257      1.0  0.24981  0.70645  0.33536  1.0000
  N   N51       1.0  0.27081  0.71765  0.33605  1.0000
  C   C258      1.0  0.23883  0.74967  0.33362  1.0000
  C   C259      1.0  0.24942  0.77167  0.33353  1.0000
  C   C260      1.0  0.23854  0.78262  0.33367  1.0000
  C   C261      1.0  0.21667  0.77184  0.33359  1.0000
  C   C262      1.0  0.20588  0.74997  0.33362  1.0000
  C   C263      1.0  0.21682  0.73909  0.33346  1.0000
  C   C264      1.0  0.30415  0.74887  0.33638  1.0000
  C   C265      1.0  0.31674  0.77080  0.33522  1.0000
  C   C266      1.0  0.33859  0.78052  0.33469  1.0000
  C   C267      1.0  0.34840  0.76848  0.33572  1.0000
  C   C268      1.0  0.33603  0.74667  0.33693  1.0000
  C   C269      1.0  0.31435  0.73709  0.33735  1.0000
  C   C270      1.0  0.23957  0.68433  0.33501  1.0000
  C   C271      1.0  0.25134  0.67411  0.33360  1.0000
  C   C272      1.0  0.24173  0.65242  0.33248  1.0000
  C   C273      1.0  0.21991  0.64007  0.33312  1.0000
  C   C274      1.0  0.20790  0.64990  0.33488  1.0000
  C   C275      1.0  0.21765  0.67176  0.33566  1.0000
  H   H135      1.0  0.34728  0.79637  0.33315  1.0000
  H   H136      1.0  0.31011  0.77997  0.33419  1.0000
  H   H137      1.0  0.34272  0.73752  0.33701  1.0000
  H   H138      1.0  0.30615  0.72122  0.33799  1.0000
  H   H139      1.0  0.26720  0.68228  0.33289  1.0000
  H   H140      1.0  0.25085  0.64571  0.33101  1.0000
  H   H141      1.0  0.20849  0.67841  0.33657  1.0000
  H   H142      1.0  0.19204  0.64124  0.33499  1.0000
  H   H143      1.0  0.20839  0.72323  0.33382  1.0000
  H   H144      1.0  0.19000  0.74182  0.33432  1.0000
  H   H145      1.0  0.24670  0.79851  0.33440  1.0000
  H   H146      1.0  0.26528  0.78010  0.33389  1.0000
  C   C276      1.0  0.74350  0.45333  0.33607  1.0000
  N   N52       1.0  0.75362  0.47441  0.33515  1.0000
  C   C277      1.0  0.74343  0.48539  0.33443  1.0000
  N   N53       1.0  0.72226  0.47442  0.33460  1.0000
  C   C278      1.0  0.71129  0.45334  0.33547  1.0000
  N   N54       1.0  0.72249  0.44353  0.33614  1.0000
  C   C279      1.0  0.75451  0.50754  0.33364  1.0000
  C   C280      1.0  0.77651  0.51895  0.33354  1.0000
  C   C281      1.0  0.78746  0.54078  0.33367  1.0000
  C   C282      1.0  0.77667  0.55187  0.33358  1.0000
  C   C283      1.0  0.75480  0.54078  0.33361  1.0000
  C   C284      1.0  0.74392  0.51896  0.33348  1.0000
  C   C285      1.0  0.75372  0.44142  0.33645  1.0000
  C   C286      1.0  0.77564  0.45076  0.33523  1.0000
  C   C287      1.0  0.78537  0.43863  0.33469  1.0000
  C   C288      1.0  0.77333  0.41678  0.33578  1.0000
  C   C289      1.0  0.75152  0.40734  0.33697  1.0000
  C   C290      1.0  0.74193  0.41944  0.33743  1.0000
  C   C291      1.0  0.68917  0.44145  0.33513  1.0000
  C   C292      1.0  0.67895  0.41946  0.33376  1.0000
  C   C293      1.0  0.65726  0.40738  0.33260  1.0000
  C   C294      1.0  0.64492  0.41685  0.33318  1.0000
  C   C295      1.0  0.65474  0.43870  0.33488  1.0000
  C   C296      1.0  0.67660  0.45081  0.33570  1.0000
  H   H147      1.0  0.80121  0.44580  0.33312  1.0000
  H   H148      1.0  0.78481  0.46656  0.33420  1.0000
  H   H149      1.0  0.74237  0.39150  0.33704  1.0000
  H   H150      1.0  0.72606  0.41176  0.33806  1.0000
  H   H151      1.0  0.68713  0.41177  0.33309  1.0000
  H   H152      1.0  0.65055  0.39155  0.33111  1.0000
  H   H153      1.0  0.68325  0.46661  0.33655  1.0000
  H   H154      1.0  0.64608  0.44588  0.33487  1.0000
  H   H155      1.0  0.72806  0.51153  0.33384  1.0000
  H   H156      1.0  0.74665  0.54851  0.33432  1.0000
  H   H157      1.0  0.80334  0.54851  0.33440  1.0000
  H   H158      1.0  0.78494  0.51152  0.33392  1.0000
  C   C297      1.0  0.53524  0.27720  0.33604  1.0000
  N   N55       1.0  0.51416  0.26624  0.33513  1.0000
  C   C298      1.0  0.50318  0.24507  0.33442  1.0000
  N   N56       1.0  0.51415  0.23488  0.33458  1.0000
  C   C299      1.0  0.53523  0.24499  0.33543  1.0000
  N   N57       1.0  0.54504  0.26599  0.33610  1.0000
  C   C300      1.0  0.48103  0.23400  0.33364  1.0000
  C   C301      1.0  0.46961  0.24459  0.33354  1.0000
  C   C302      1.0  0.44779  0.23372  0.33368  1.0000
  C   C303      1.0  0.43670  0.21185  0.33358  1.0000
  C   C304      1.0  0.44778  0.20106  0.33362  1.0000
  C   C305      1.0  0.46961  0.21200  0.33348  1.0000
  C   C306      1.0  0.54714  0.29933  0.33641  1.0000
  C   C307      1.0  0.53780  0.31191  0.33523  1.0000
  C   C308      1.0  0.54994  0.33377  0.33469  1.0000
  C   C309      1.0  0.57178  0.34358  0.33573  1.0000
  C   C310      1.0  0.58123  0.33121  0.33695  1.0000
  C   C311      1.0  0.56913  0.30953  0.33739  1.0000
  C   C312      1.0  0.54712  0.23475  0.33508  1.0000
  C   C313      1.0  0.56911  0.24652  0.33367  1.0000
  C   C314      1.0  0.58118  0.23691  0.33253  1.0000
  C   C315      1.0  0.57171  0.21509  0.33316  1.0000
  C   C316      1.0  0.54987  0.20308  0.33489  1.0000
  C   C317      1.0  0.53776  0.21283  0.33569  1.0000
  H   H159      1.0  0.54277  0.34245  0.33313  1.0000
  H   H160      1.0  0.52200  0.30528  0.33420  1.0000
  H   H161      1.0  0.59707  0.33790  0.33703  1.0000
  H   H162      1.0  0.57680  0.30134  0.33804  1.0000
  H   H163      1.0  0.57679  0.26239  0.33297  1.0000
  H   H164      1.0  0.59702  0.24604  0.33103  1.0000
  H   H165      1.0  0.52196  0.20367  0.33659  1.0000
  H   H166      1.0  0.54268  0.18723  0.33494  1.0000
  H   H167      1.0  0.47703  0.20357  0.33384  1.0000
  H   H168      1.0  0.44005  0.18518  0.33432  1.0000
  H   H169      1.0  0.44006  0.24188  0.33440  1.0000
  H   H170      1.0  0.47705  0.26045  0.33391  1.0000
  C   C318      1.0  0.71133  0.24507  0.33596  1.0000
  N   N58       1.0  0.72229  0.23494  0.33507  1.0000
  C   C319      1.0  0.74346  0.24513  0.33438  1.0000
  N   N59       1.0  0.75366  0.26630  0.33457  1.0000
  C   C320      1.0  0.74355  0.27727  0.33541  1.0000
  N   N60       1.0  0.72254  0.26607  0.33605  1.0000
  C   C321      1.0  0.75453  0.23405  0.33362  1.0000
  C   C322      1.0  0.74394  0.21205  0.33352  1.0000
  C   C323      1.0  0.75482  0.20110  0.33367  1.0000
  C   C324      1.0  0.77669  0.21188  0.33359  1.0000
  C   C325      1.0  0.78748  0.23375  0.33362  1.0000
  C   C326      1.0  0.77653  0.24463  0.33347  1.0000
  C   C327      1.0  0.68921  0.23485  0.33633  1.0000
  C   C328      1.0  0.67661  0.21293  0.33516  1.0000
  C   C329      1.0  0.65476  0.20321  0.33468  1.0000
  C   C330      1.0  0.64495  0.21525  0.33576  1.0000
  C   C331      1.0  0.65733  0.23707  0.33694  1.0000
  C   C332      1.0  0.67901  0.24664  0.33732  1.0000
  C   C333      1.0  0.75378  0.29939  0.33511  1.0000
  C   C334      1.0  0.74201  0.30961  0.33375  1.0000
  C   C335      1.0  0.75162  0.33130  0.33261  1.0000
  C   C336      1.0  0.77344  0.34364  0.33318  1.0000
  C   C337      1.0  0.78545  0.33382  0.33488  1.0000
  C   C338      1.0  0.77571  0.31196  0.33567  1.0000
  H   H171      1.0  0.64607  0.18736  0.33318  1.0000
  H   H172      1.0  0.68324  0.20375  0.33414  1.0000
  H   H173      1.0  0.65064  0.24622  0.33706  1.0000
  H   H174      1.0  0.68721  0.26251  0.33795  1.0000
  H   H175      1.0  0.72615  0.30143  0.33308  1.0000
  H   H176      1.0  0.74249  0.33800  0.33113  1.0000
  H   H177      1.0  0.78487  0.30532  0.33652  1.0000
  H   H178      1.0  0.80131  0.34248  0.33486  1.0000
  H   H179      1.0  0.78497  0.26049  0.33382  1.0000
  H   H180      1.0  0.80336  0.24191  0.33432  1.0000
  H   H181      1.0  0.74667  0.18522  0.33440  1.0000
  H   H182      1.0  0.72808  0.20362  0.33390  1.0000
  C   C339      1.0  0.18370  0.36585  0.33934  1.0000
  C   C340      1.0  0.18927  0.37701  0.42133  1.0000
  C   C341      1.0  0.20033  0.39913  0.41902  1.0000
  C   C342      1.0  0.20574  0.40994  0.33676  1.0000
  N   N61       1.0  0.20558  0.40965  0.49779  1.0000
  C   C343      1.0  0.20086  0.40020  0.57843  1.0000
  C   C344      1.0  0.18998  0.37845  0.58145  1.0000
  N   N62       1.0  0.18456  0.36759  0.50353  1.0000
  H   H183      1.0  0.20518  0.40885  0.63558  1.0000
  O   O13       1.0  0.18504  0.36858  0.66119  1.0000
  H   H184      1.0  0.17703  0.35253  0.50802  1.0000
  C   C345      1.0  0.62271  0.80490  0.33934  1.0000
  C   C346      1.0  0.61155  0.79931  0.42132  1.0000
  C   C347      1.0  0.58944  0.78825  0.41900  1.0000
  C   C348      1.0  0.57862  0.78285  0.33675  1.0000
  N   N63       1.0  0.57891  0.78298  0.49778  1.0000
  C   C349      1.0  0.58836  0.78771  0.57842  1.0000
  C   C350      1.0  0.61011  0.79858  0.58144  1.0000
  N   N64       1.0  0.62097  0.80402  0.50352  1.0000
  H   H185      1.0  0.57971  0.78338  0.63556  1.0000
  O   O14       1.0  0.61998  0.80351  0.66118  1.0000
  H   H186      1.0  0.63604  0.81155  0.50801  1.0000
  C   C351      1.0  0.18366  0.80486  0.33934  1.0000
  C   C352      1.0  0.18925  0.79929  0.42132  1.0000
  C   C353      1.0  0.20030  0.78823  0.41901  1.0000
  C   C354      1.0  0.20571  0.78281  0.33675  1.0000
  N   N65       1.0  0.20557  0.78297  0.49778  1.0000
  C   C355      1.0  0.20085  0.78770  0.57843  1.0000
  C   C356      1.0  0.18998  0.79858  0.58145  1.0000
  N   N66       1.0  0.18454  0.80400  0.50353  1.0000
  H   H187      1.0  0.20518  0.78338  0.63557  1.0000
  O   O15       1.0  0.18505  0.80352  0.66119  1.0000
  H   H188      1.0  0.17701  0.81153  0.50802  1.0000
  C   C357      1.0  0.80969  0.61790  0.33934  1.0000
  C   C358      1.0  0.80411  0.60673  0.42132  1.0000
  C   C359      1.0  0.79305  0.58462  0.41900  1.0000
  C   C360      1.0  0.78764  0.57380  0.33674  1.0000
  N   N67       1.0  0.78780  0.57409  0.49777  1.0000
  C   C361      1.0  0.79253  0.58354  0.57841  1.0000
  C   C362      1.0  0.80340  0.60529  0.58144  1.0000
  N   N68       1.0  0.80882  0.61615  0.50352  1.0000
  H   H189      1.0  0.78820  0.57489  0.63556  1.0000
  O   O16       1.0  0.80834  0.61516  0.66118  1.0000
  H   H190      1.0  0.81635  0.63121  0.50801  1.0000
  C   C363      1.0  0.37067  0.17884  0.33934  1.0000
  C   C364      1.0  0.38183  0.18443  0.42132  1.0000
  C   C365      1.0  0.40395  0.19548  0.41900  1.0000
  C   C366      1.0  0.41476  0.20088  0.33675  1.0000
  N   N69       1.0  0.41447  0.20075  0.49778  1.0000
  C   C367      1.0  0.40502  0.19603  0.57842  1.0000
  C   C368      1.0  0.38327  0.18516  0.58144  1.0000
  N   N70       1.0  0.37241  0.17972  0.50352  1.0000
  H   H191      1.0  0.41367  0.20036  0.63556  1.0000
  O   O17       1.0  0.37340  0.18023  0.66118  1.0000
  H   H192      1.0  0.35735  0.17219  0.50802  1.0000
  C   C369      1.0  0.80972  0.17888  0.33933  1.0000
  C   C370      1.0  0.80413  0.18445  0.42132  1.0000
  C   C371      1.0  0.79307  0.19551  0.41900  1.0000
  C   C372      1.0  0.78766  0.20092  0.33675  1.0000
  N   N71       1.0  0.78780  0.20076  0.49778  1.0000
  C   C373      1.0  0.79253  0.19604  0.57842  1.0000
  C   C374      1.0  0.80340  0.18516  0.58144  1.0000
  N   N72       1.0  0.80884  0.17974  0.50351  1.0000
  H   H193      1.0  0.78820  0.20036  0.63556  1.0000
  O   O18       1.0  0.80833  0.18022  0.66118  1.0000
  H   H194      1.0  0.81637  0.17221  0.50801  1.0000
  C   C375      1.0  0.20041  0.18481  0.41302  1.0000
  C   C376      1.0  0.18952  0.19571  0.41206  1.0000
  H   H195      1.0  0.18561  0.19957  0.47173  1.0000
  H   H196      1.0  0.20416  0.18101  0.47322  1.0000
  C   C377      1.0  0.80375  0.00266  0.41302  1.0000
  C   C378      1.0  0.79285  0.98086  0.41206  1.0000
  H   H197      1.0  0.78899  0.97309  0.47173  1.0000
  H   H198      1.0  0.80755  0.01020  0.47322  1.0000
  C   C379      1.0  0.98591  0.78815  0.41302  1.0000
  H   H199      1.0  0.97836  0.78440  0.47322  1.0000
  C   C380      1.0  0.79297  0.79893  0.41302  1.0000
  C   C381      1.0  0.80386  0.78803  0.41206  1.0000
  H   H200      1.0  0.80776  0.78417  0.47173  1.0000
  H   H201      1.0  0.78923  0.80273  0.47322  1.0000
  C   C382      1.0  0.18963  0.98109  0.41302  1.0000
  C   C383      1.0  0.20053  0.00288  0.41206  1.0000
  H   H202      1.0  0.20439  0.01065  0.47173  1.0000
  H   H203      1.0  0.18583  0.97354  0.47323  1.0000
  C   C384      1.0  0.98568  0.18470  0.41206  1.0000
  H   H204      1.0  0.97791  0.18079  0.47173  1.0000
  C   C385      1.0  0.21066  0.58962  0.41344  1.0000
  C   C386      1.0  0.21049  0.60840  0.41237  1.0000
  H   H205      1.0  0.21256  0.61608  0.47163  1.0000
  H   H206      1.0  0.21278  0.58432  0.47345  1.0000
  C   C387      1.0  0.39897  0.60809  0.41356  1.0000
  C   C388      1.0  0.38014  0.58920  0.41237  1.0000
  H   H207      1.0  0.37250  0.58352  0.47167  1.0000
  H   H208      1.0  0.40429  0.61552  0.47351  1.0000
  C   C389      1.0  0.38042  0.77785  0.41334  1.0000
  C   C390      1.0  0.39937  0.77803  0.41232  1.0000
  H   H209      1.0  0.40498  0.77600  0.47168  1.0000
  H   H210      1.0  0.37302  0.77582  0.47333  1.0000
  C   C391      1.0  0.78269  0.39414  0.41329  1.0000
  C   C392      1.0  0.78280  0.37533  0.41216  1.0000
  H   H211      1.0  0.78075  0.36768  0.47150  1.0000
  H   H212      1.0  0.78059  0.39945  0.47329  1.0000
  C   C393      1.0  0.59443  0.37561  0.41328  1.0000
  C   C394      1.0  0.61323  0.39454  0.41215  1.0000
  H   H213      1.0  0.62088  0.40014  0.47150  1.0000
  H   H214      1.0  0.58913  0.36820  0.47329  1.0000
  C   C395      1.0  0.61293  0.20587  0.41350  1.0000
  C   C396      1.0  0.59400  0.20573  0.41230  1.0000
  H   H215      1.0  0.58838  0.20778  0.47160  1.0000
  H   H216      1.0  0.62035  0.20798  0.47351  1.0000
