data_image0
_chemical_formula_structural       C2NCNH2C2NCNH2NCHNCHNCHNCHC2NCNH2C2NCNH2C2NCNH2C2NCNH2NCHNCHNCHNCHC2NCNH2C2NCNH2C2NCNH2C2NCNH2CNCNCNCNCNCNCNCNCNCNCNCNCNCNCNCNCNCNCNCNCNCNCNCNCNCNCNCNCNCNCNCNCNCNCNCN2CHNCHC2NCNH2C2NCNH2C2NCNH2C2NCNH2NCHNCHNCHNCHC2NCNH2C2NCNH2C2NCNH2C2NCNH2NCHNCHNCHNCH
_chemical_formula_sum              "C108 N90 H54"
_cell_length_a       33.8069
_cell_length_b       33.6459
_cell_length_c       14.8933
_cell_angle_alpha    90
_cell_angle_beta     90
_cell_angle_gamma    90.2807

_space_group_name_H-M_alt    "P 1"
_space_group_IT_number       1

loop_
  _space_group_symop_operation_xyz
  'x, y, z'

loop_
  _atom_site_type_symbol
  _atom_site_label
  _atom_site_symmetry_multiplicity
  _atom_site_fract_x
  _atom_site_fract_y
  _atom_site_fract_z
  _atom_site_occupancy
  C   C1        1.0  0.97257  0.53078  0.32056  1.0000
  C   C2        1.0  0.02911  0.46934  0.33028  1.0000
  N   N1        1.0  0.03890  0.50730  0.30833  1.0000
  C   C3        1.0  0.01333  0.53833  0.30163  1.0000
  N   N2        1.0  0.02956  0.57313  0.27353  1.0000
  H   H1        1.0  0.01350  0.59531  0.25465  1.0000
  H   H2        1.0  0.05758  0.57453  0.25865  1.0000
  C   C4        1.0  0.47287  0.97706  0.32229  1.0000
  C   C5        1.0  0.53539  0.03293  0.32885  1.0000
  N   N3        1.0  0.49780  0.04319  0.30702  1.0000
  C   C6        1.0  0.46628  0.01793  0.30176  1.0000
  N   N4        1.0  0.43199  0.03449  0.27341  1.0000
  H   H3        1.0  0.40917  0.01866  0.25705  1.0000
  H   H4        1.0  0.43101  0.06262  0.25824  1.0000
  N   N5        1.0  0.08477  0.26269  0.32967  1.0000
  C   C7        1.0  0.09611  0.30115  0.32123  1.0000
  H   H5        1.0  0.12275  0.30749  0.29202  1.0000
  N   N6        1.0  0.91891  0.73718  0.35113  1.0000
  C   C8        1.0  0.90538  0.69934  0.34528  1.0000
  H   H6        1.0  0.87563  0.69432  0.34025  1.0000
  N   N7        1.0  0.74285  0.08279  0.33909  1.0000
  C   C9        1.0  0.70549  0.09697  0.33259  1.0000
  H   H7        1.0  0.70129  0.12604  0.31540  1.0000
  N   N8        1.0  0.28002  0.97860  0.33600  1.0000
  C   C10       1.0  0.31974  0.97345  0.33103  1.0000
  H   H8        1.0  0.33734  0.99707  0.31442  1.0000
  C   C11       1.0  0.45323  0.75406  0.31461  1.0000
  C   C12       1.0  0.43764  0.83645  0.32346  1.0000
  N   N9        1.0  0.40933  0.80917  0.30299  1.0000
  C   C13       1.0  0.41468  0.76920  0.29619  1.0000
  N   N10       1.0  0.38246  0.74814  0.26943  1.0000
  H   H9        1.0  0.38414  0.72064  0.25106  1.0000
  H   H10       1.0  0.35778  0.76171  0.25588  1.0000
  C   C14       1.0  0.54451  0.25064  0.30761  1.0000
  C   C15       1.0  0.57187  0.17145  0.31600  1.0000
  N   N11       1.0  0.53346  0.18056  0.29936  1.0000
  C   C16       1.0  0.51821  0.21792  0.29343  1.0000
  N   N12       1.0  0.47921  0.21975  0.27290  1.0000
  H   H11       1.0  0.46626  0.24449  0.25905  1.0000
  H   H12       1.0  0.46406  0.19551  0.26228  1.0000
  C   C17       1.0  0.75178  0.54444  0.30953  1.0000
  C   C18       1.0  0.83247  0.56681  0.31976  1.0000
  N   N13       1.0  0.82080  0.52892  0.30234  1.0000
  C   C19       1.0  0.78253  0.51604  0.29601  1.0000
  N   N14       1.0  0.77802  0.47701  0.27587  1.0000
  H   H13       1.0  0.75257  0.46530  0.26335  1.0000
  H   H14       1.0  0.80106  0.46032  0.26564  1.0000
  C   C20       1.0  0.24806  0.45941  0.31461  1.0000
  C   C21       1.0  0.16804  0.43434  0.31894  1.0000
  N   N15       1.0  0.17867  0.47312  0.30986  1.0000
  C   C22       1.0  0.21654  0.48734  0.30665  1.0000
  N   N16       1.0  0.21988  0.52721  0.29600  1.0000
  H   H15       1.0  0.24503  0.54046  0.28959  1.0000
  H   H16       1.0  0.19637  0.54365  0.29035  1.0000
  N   N17       1.0  0.11403  0.05089  0.27052  1.0000
  C   C23       1.0  0.08948  0.08225  0.26584  1.0000
  H   H17       1.0  0.06497  0.08016  0.22586  1.0000
  N   N18       1.0  0.85471  0.92093  0.33946  1.0000
  C   C24       1.0  0.87558  0.88638  0.33850  1.0000
  H   H18       1.0  0.86865  0.86490  0.29254  1.0000
  N   N19       1.0  0.95826  0.10022  0.29471  1.0000
  C   C25       1.0  0.92708  0.07529  0.28849  1.0000
  H   H19       1.0  0.93108  0.04808  0.25940  1.0000
  N   N20       1.0  0.04537  0.89880  0.30418  1.0000
  C   C26       1.0  0.07670  0.92305  0.29140  1.0000
  H   H20       1.0  0.07246  0.94912  0.25759  1.0000
  C   C27       1.0  0.36417  0.54885  0.34344  1.0000
  C   C28       1.0  0.41505  0.61521  0.35409  1.0000
  N   N21       1.0  0.38073  0.61611  0.30629  1.0000
  C   C29       1.0  0.35457  0.58507  0.29918  1.0000
  N   N22       1.0  0.32310  0.59021  0.24431  1.0000
  H   H21       1.0  0.30535  0.56855  0.22944  1.0000
  H   H22       1.0  0.31926  0.61532  0.21312  1.0000
  C   C30       1.0  0.63526  0.45635  0.33002  1.0000
  C   C31       1.0  0.58540  0.38929  0.34039  1.0000
  N   N23       1.0  0.61849  0.38964  0.28829  1.0000
  C   C32       1.0  0.64416  0.42110  0.28119  1.0000
  N   N24       1.0  0.67428  0.41753  0.22195  1.0000
  H   H23       1.0  0.69101  0.43990  0.20637  1.0000
  H   H24       1.0  0.67750  0.39321  0.18738  1.0000
  C   C33       1.0  0.55116  0.64601  0.34703  1.0000
  C   C34       1.0  0.61727  0.59519  0.34668  1.0000
  N   N25       1.0  0.61483  0.62721  0.29090  1.0000
  C   C35       1.0  0.58393  0.65350  0.28923  1.0000
  N   N26       1.0  0.58512  0.68285  0.22714  1.0000
  H   H25       1.0  0.56385  0.70187  0.22077  1.0000
  H   H26       1.0  0.60798  0.68590  0.18799  1.0000
  C   C36       1.0  0.44910  0.36035  0.34182  1.0000
  C   C37       1.0  0.38286  0.41035  0.35011  1.0000
  N   N27       1.0  0.38462  0.37925  0.29176  1.0000
  C   C38       1.0  0.41567  0.35336  0.28574  1.0000
  N   N28       1.0  0.41396  0.32528  0.22080  1.0000
  H   H27       1.0  0.43589  0.30759  0.20908  1.0000
  H   H28       1.0  0.39080  0.32297  0.18232  1.0000
  C   C39       1.0  0.12756  0.42319  0.32437  1.0000
  N   N29       1.0  0.09797  0.45050  0.32431  1.0000
  C   C40       1.0  0.05912  0.43993  0.33268  1.0000
  N   N30       1.0  0.05030  0.40055  0.34137  1.0000
  C   C41       1.0  0.07892  0.37224  0.34065  1.0000
  N   N31       1.0  0.11709  0.38435  0.33222  1.0000
  C   C42       1.0  0.87325  0.57694  0.32440  1.0000
  N   N32       1.0  0.90267  0.54933  0.31977  1.0000
  C   C43       1.0  0.94181  0.55967  0.32353  1.0000
  N   N33       1.0  0.95044  0.59889  0.33394  1.0000
  C   C44       1.0  0.92235  0.62749  0.33820  1.0000
  N   N34       1.0  0.88404  0.61569  0.33316  1.0000
  C   C45       1.0  0.58349  0.13109  0.32255  1.0000
  N   N35       1.0  0.55577  0.10163  0.32198  1.0000
  C   C46       1.0  0.56537  0.06257  0.33048  1.0000
  N   N36       1.0  0.60431  0.05337  0.33934  1.0000
  C   C47       1.0  0.63320  0.08171  0.33944  1.0000
  N   N37       1.0  0.62206  0.12037  0.33115  1.0000
  C   C48       1.0  0.42712  0.87720  0.32801  1.0000
  N   N38       1.0  0.45431  0.90719  0.32429  1.0000
  C   C49       1.0  0.44372  0.94629  0.32563  1.0000
  N   N39       1.0  0.40450  0.95447  0.33315  1.0000
  C   C50       1.0  0.37616  0.92578  0.33746  1.0000
  N   N40       1.0  0.38828  0.88735  0.33434  1.0000
  C   C51       1.0  0.99607  0.15513  0.34145  1.0000
  N   N41       1.0  0.00397  0.19436  0.35560  1.0000
  C   C52       1.0  0.04176  0.20887  0.36165  1.0000
  N   N42       1.0  0.07243  0.18287  0.35118  1.0000
  C   C53       1.0  0.06607  0.14359  0.33582  1.0000
  N   N43       1.0  0.02797  0.13116  0.33153  1.0000
  C   C54       1.0  0.00933  0.84530  0.36222  1.0000
  N   N44       1.0  0.00243  0.80557  0.35675  1.0000
  C   C55       1.0  0.96530  0.78971  0.36289  1.0000
  N   N45       1.0  0.93437  0.81546  0.37301  1.0000
  C   C56       1.0  0.94012  0.85532  0.37967  1.0000
  N   N46       1.0  0.97763  0.86922  0.37359  1.0000
  C   C57       1.0  0.84700  0.98976  0.37505  1.0000
  N   N47       1.0  0.80779  0.99811  0.37465  1.0000
  C   C58       1.0  0.79393  0.03567  0.36085  1.0000
  N   N48       1.0  0.82129  0.06518  0.34577  1.0000
  C   C59       1.0  0.86078  0.05763  0.34216  1.0000
  N   N49       1.0  0.87244  0.01986  0.35779  1.0000
  C   C60       1.0  0.16271  0.00971  0.33164  1.0000
  N   N50       1.0  0.20123  0.99907  0.34363  1.0000
  C   C61       1.0  0.21244  0.96004  0.35086  1.0000
  N   N51       1.0  0.18355  0.93165  0.34506  1.0000
  C   C62       1.0  0.14489  0.94083  0.33278  1.0000
  N   N52       1.0  0.13592  0.97979  0.32677  1.0000
  C   C63       1.0  0.51250  0.66249  0.34158  1.0000
  N   N53       1.0  0.50241  0.70125  0.32747  1.0000
  C   C64       1.0  0.46368  0.71309  0.32237  1.0000
  N   N54       1.0  0.43511  0.68464  0.33264  1.0000
  C   C65       1.0  0.44369  0.64588  0.34730  1.0000
  N   N55       1.0  0.48237  0.63608  0.35110  1.0000
  C   C66       1.0  0.48744  0.34378  0.33298  1.0000
  N   N56       1.0  0.49644  0.30480  0.32064  1.0000
  C   C67       1.0  0.53459  0.29184  0.31312  1.0000
  N   N57       1.0  0.56419  0.31967  0.31949  1.0000
  C   C68       1.0  0.55653  0.35881  0.33351  1.0000
  N   N58       1.0  0.51814  0.36956  0.33972  1.0000
  C   C69       1.0  0.65426  0.49405  0.32473  1.0000
  N   N59       1.0  0.69376  0.50049  0.31497  1.0000
  C   C70       1.0  0.70995  0.53776  0.31258  1.0000
  N   N60       1.0  0.68474  0.56934  0.32186  1.0000
  C   C71       1.0  0.64512  0.56435  0.33347  1.0000
  N   N61       1.0  0.63119  0.52656  0.33486  1.0000
  C   C72       1.0  0.34492  0.51126  0.33638  1.0000
  N   N62       1.0  0.30549  0.50449  0.32509  1.0000
  C   C73       1.0  0.28969  0.46707  0.31986  1.0000
  N   N63       1.0  0.31523  0.43570  0.32727  1.0000
  C   C74       1.0  0.35467  0.44099  0.34044  1.0000
  N   N64       1.0  0.36818  0.47881  0.34451  1.0000
  N   N65       1.0  0.96262  0.49256  0.34151  1.0000
  C   C75       1.0  0.98860  0.46194  0.34616  1.0000
  H   H29       1.0  0.97840  0.43425  0.36259  1.0000
  N   N66       1.0  0.51071  0.96671  0.34325  1.0000
  C   C76       1.0  0.54184  0.99230  0.34653  1.0000
  H   H30       1.0  0.56916  0.98179  0.36331  1.0000
  C   C77       1.0  0.04989  0.25036  0.36623  1.0000
  C   C78       1.0  0.06986  0.33129  0.34843  1.0000
  N   N67       1.0  0.03520  0.31924  0.38595  1.0000
  C   C79       1.0  0.02399  0.28059  0.39770  1.0000
  N   N68       1.0  0.98992  0.27418  0.44327  1.0000
  H   H31       1.0  0.98360  0.24820  0.46726  1.0000
  H   H32       1.0  0.97486  0.29652  0.46659  1.0000
  C   C80       1.0  0.95773  0.74803  0.35760  1.0000
  C   C81       1.0  0.93292  0.66807  0.34553  1.0000
  N   N69       1.0  0.97160  0.67861  0.35217  1.0000
  C   C82       1.0  0.98582  0.71646  0.35853  1.0000
  N   N70       1.0  0.02568  0.71945  0.36631  1.0000
  H   H33       1.0  0.03923  0.74447  0.37385  1.0000
  H   H34       1.0  0.04201  0.69567  0.36714  1.0000
  C   C83       1.0  0.75263  0.04464  0.36045  1.0000
  C   C84       1.0  0.67350  0.07075  0.34701  1.0000
  N   N71       1.0  0.68302  0.03281  0.36878  1.0000
  C   C85       1.0  0.72034  0.01811  0.37739  1.0000
  N   N72       1.0  0.72212  0.97940  0.40246  1.0000
  H   H35       1.0  0.74663  0.96625  0.41670  1.0000
  H   H36       1.0  0.69793  0.96440  0.41401  1.0000
  C   C86       1.0  0.25326  0.94948  0.35617  1.0000
  C   C87       1.0  0.33539  0.93513  0.34432  1.0000
  N   N73       1.0  0.30889  0.90614  0.36546  1.0000
  C   C88       1.0  0.26903  0.91093  0.37353  1.0000
  N   N74       1.0  0.24863  0.87816  0.40007  1.0000
  H   H37       1.0  0.22119  0.87925  0.41803  1.0000
  H   H38       1.0  0.26252  0.85349  0.41268  1.0000
  N   N75       1.0  0.48182  0.78154  0.33395  1.0000
  C   C89       1.0  0.47605  0.82149  0.33721  1.0000
  H   H39       1.0  0.49919  0.83979  0.35323  1.0000
  N   N76       1.0  0.58311  0.24128  0.32350  1.0000
  C   C90       1.0  0.59788  0.20392  0.32709  1.0000
  H   H40       1.0  0.62725  0.20006  0.34042  1.0000
  N   N77       1.0  0.76381  0.58239  0.32654  1.0000
  C   C91       1.0  0.80191  0.59475  0.33144  1.0000
  H   H41       1.0  0.80757  0.62399  0.34497  1.0000
  N   N78       1.0  0.23702  0.42058  0.32324  1.0000
  C   C92       1.0  0.19931  0.40691  0.32487  1.0000
  H   H42       1.0  0.19443  0.37712  0.33265  1.0000
  C   C93       1.0  0.14670  0.04860  0.32362  1.0000
  C   C94       1.0  0.09610  0.11486  0.32334  1.0000
  N   N79       1.0  0.12918  0.11352  0.37560  1.0000
  C   C95       1.0  0.15536  0.08250  0.37746  1.0000
  N   N80       1.0  0.18599  0.08485  0.43574  1.0000
  H   H43       1.0  0.20512  0.06363  0.44171  1.0000
  H   H44       1.0  0.18990  0.10853  0.47225  1.0000
  C   C96       1.0  0.86359  0.95226  0.39399  1.0000
  C   C97       1.0  0.91013  0.88380  0.39122  1.0000
  N   N81       1.0  0.91858  0.91509  0.44549  1.0000
  C   C98       1.0  0.89670  0.94860  0.45218  1.0000
  N   N82       1.0  0.90896  0.97648  0.51186  1.0000
  H   H45       1.0  0.89335  0.00003  0.52414  1.0000
  H   H46       1.0  0.93171  0.97159  0.55028  1.0000
  C   C99       1.0  0.95803  0.13662  0.33457  1.0000
  C   C100      1.0  0.89107  0.08622  0.32893  1.0000
  N   N83       1.0  0.88984  0.12288  0.36738  1.0000
  C   C101      1.0  0.92097  0.14907  0.37054  1.0000
  N   N84       1.0  0.91445  0.18394  0.41303  1.0000
  H   H47       1.0  0.93460  0.20419  0.41742  1.0000
  H   H48       1.0  0.88834  0.19026  0.43649  1.0000
  C   C102      1.0  0.04655  0.86394  0.35006  1.0000
  C   C103      1.0  0.11338  0.91299  0.33024  1.0000
  N   N85       1.0  0.11503  0.87784  0.37538  1.0000
  C   C104      1.0  0.08369  0.85237  0.38631  1.0000
  N   N86       1.0  0.08943  0.81963  0.43735  1.0000
  H   H49       1.0  0.06777  0.80215  0.45391  1.0000
  H   H50       1.0  0.11526  0.81427  0.46338  1.0000
  N   N87       1.0  0.39835  0.54867  0.39171  1.0000
  C   C105      1.0  0.42349  0.57967  0.40009  1.0000
  H   H51       1.0  0.44891  0.57595  0.43622  1.0000
  N   N88       1.0  0.60241  0.45533  0.38266  1.0000
  C   C106      1.0  0.57788  0.42384  0.39102  1.0000
  H   H52       1.0  0.55339  0.42653  0.43081  1.0000
  N   N89       1.0  0.55442  0.61429  0.40320  1.0000
  C   C107      1.0  0.58575  0.58970  0.40744  1.0000
  H   H53       1.0  0.58447  0.56585  0.44994  1.0000
  N   N90       1.0  0.44669  0.39125  0.40038  1.0000
  C   C108      1.0  0.41522  0.41543  0.40878  1.0000
  H   H54       1.0  0.41701  0.43884  0.45239  1.0000
