data_image0
_chemical_formula_structural       C4OC4OH4N2C4OC4OH4N2C4OC4OH4N3C3NCHNC3NCHNC3NCHNC3NCHNC3NCHNC3NCHC2HC2HN2C2HC2HN2C2HC2HN2CNC2NCHCNC2NCHCNC2NCHCNC2NCHCNC2NCHCNC2NCH
_chemical_formula_sum              "C84 O6 H30 N36"
_cell_length_a       31.7033
_cell_length_b       31.7032
_cell_length_c       15.0346
_cell_angle_alpha    90
_cell_angle_beta     90
_cell_angle_gamma    120

_space_group_name_H-M_alt    "P 1"
_space_group_IT_number       1

loop_
  _space_group_symop_operation_xyz
  'x, y, z'

loop_
  _atom_site_type_symbol
  _atom_site_label
  _atom_site_symmetry_multiplicity
  _atom_site_fract_x
  _atom_site_fract_y
  _atom_site_fract_z
  _atom_site_occupancy
  C   C1        1.0  0.97222  0.48479  0.32558  1.0000
  C   C2        1.0  0.86811  0.42878  0.32775  1.0000
  C   C3        1.0  0.89590  0.40528  0.33488  1.0000
  C   C4        1.0  0.94687  0.43370  0.34200  1.0000
  O   O1        1.0  0.81844  0.40218  0.32591  1.0000
  C   C5        1.0  0.02431  0.51290  0.32556  1.0000
  C   C6        1.0  0.04966  0.56399  0.34200  1.0000
  C   C7        1.0  0.10064  0.59240  0.33501  1.0000
  C   C8        1.0  0.12841  0.56889  0.32785  1.0000
  O   O2        1.0  0.17809  0.59547  0.32612  1.0000
  H   H1        1.0  0.80771  0.38909  0.38617  1.0000
  H   H2        1.0  0.18879  0.60852  0.38641  1.0000
  H   H3        1.0  0.96524  0.41566  0.35553  1.0000
  H   H4        1.0  0.03129  0.58202  0.35566  1.0000
  N   N1        1.0  0.12260  0.64150  0.34120  1.0000
  N   N2        1.0  0.87397  0.35618  0.34101  1.0000
  C   C9        1.0  0.51235  0.48688  0.32558  1.0000
  C   C10       1.0  0.56841  0.43883  0.32773  1.0000
  C   C11       1.0  0.59188  0.49010  0.33488  1.0000
  C   C12       1.0  0.56344  0.51264  0.34200  1.0000
  O   O3        1.0  0.59502  0.41577  0.32588  1.0000
  C   C13       1.0  0.48422  0.51083  0.32554  1.0000
  C   C14       1.0  0.43312  0.48506  0.34192  1.0000
  C   C15       1.0  0.40469  0.50761  0.33487  1.0000
  C   C16       1.0  0.42817  0.55889  0.32776  1.0000
  O   O4        1.0  0.40157  0.58196  0.32600  1.0000
  H   H5        1.0  0.60811  0.41812  0.38614  1.0000
  H   H6        1.0  0.38849  0.57959  0.38628  1.0000
  H   H7        1.0  0.58147  0.54905  0.35555  1.0000
  H   H8        1.0  0.41510  0.44866  0.35555  1.0000
  N   N3        1.0  0.35558  0.48043  0.34102  1.0000
  N   N4        1.0  0.64099  0.51730  0.34097  1.0000
  C   C17       1.0  0.51025  0.02490  0.32543  1.0000
  C   C18       1.0  0.55834  0.12900  0.32788  1.0000
  C   C19       1.0  0.50705  0.10121  0.33494  1.0000
  C   C20       1.0  0.48449  0.05023  0.34192  1.0000
  O   O5        1.0  0.58140  0.17867  0.32615  1.0000
  C   C21       1.0  0.48627  0.97281  0.32526  1.0000
  C   C22       1.0  0.51202  0.94746  0.34165  1.0000
  C   C23       1.0  0.48947  0.89649  0.33451  1.0000
  C   C24       1.0  0.43819  0.86871  0.32727  1.0000
  O   O6        1.0  0.41510  0.81904  0.32546  1.0000
  H   H9        1.0  0.57903  0.18937  0.38644  1.0000
  H   H10       1.0  0.41744  0.80831  0.38574  1.0000
  H   H11       1.0  0.44807  0.03185  0.35539  1.0000
  H   H12       1.0  0.54841  0.96583  0.35539  1.0000
  N   N5        1.0  0.51664  0.87456  0.34070  1.0000
  N   N6        1.0  0.47988  0.12315  0.34109  1.0000
  N   N7        1.0  0.20529  0.47535  0.27104  1.0000
  C   C25       1.0  0.24246  0.46931  0.24210  1.0000
  C   C26       1.0  0.27810  0.47390  0.30442  1.0000
  C   C27       1.0  0.24392  0.46144  0.15752  1.0000
  N   N8        1.0  0.24529  0.45414  0.08308  1.0000
  C   C28       1.0  0.32431  0.48161  0.28112  1.0000
  H   H13       1.0  0.33686  0.49387  0.21818  1.0000
  N   N9        1.0  0.52171  0.72930  0.27101  1.0000
  C   C29       1.0  0.52777  0.77251  0.24203  1.0000
  C   C30       1.0  0.52322  0.80363  0.30425  1.0000
  C   C31       1.0  0.53573  0.78185  0.15746  1.0000
  N   N10       1.0  0.54310  0.79051  0.08304  1.0000
  C   C32       1.0  0.51547  0.84209  0.28087  1.0000
  H   H14       1.0  0.50321  0.84234  0.21792  1.0000
  N   N11       1.0  0.26779  0.79176  0.27093  1.0000
  C   C33       1.0  0.22458  0.75455  0.24211  1.0000
  C   C34       1.0  0.19357  0.71893  0.30453  1.0000
  C   C35       1.0  0.21524  0.75301  0.15752  1.0000
  N   N12       1.0  0.20656  0.75156  0.08307  1.0000
  C   C36       1.0  0.15500  0.67276  0.28122  1.0000
  H   H15       1.0  0.15466  0.66020  0.21828  1.0000
  N   N13       1.0  0.79127  0.52233  0.27112  1.0000
  C   C37       1.0  0.75412  0.52842  0.24215  1.0000
  C   C38       1.0  0.71847  0.52389  0.30440  1.0000
  C   C39       1.0  0.75269  0.53628  0.15757  1.0000
  N   N14       1.0  0.75135  0.54358  0.08311  1.0000
  C   C40       1.0  0.67227  0.51618  0.28104  1.0000
  H   H16       1.0  0.65971  0.50381  0.21816  1.0000
  N   N15       1.0  0.47488  0.26838  0.27104  1.0000
  C   C41       1.0  0.46879  0.22515  0.24212  1.0000
  C   C42       1.0  0.47337  0.19409  0.30446  1.0000
  C   C43       1.0  0.46091  0.21581  0.15754  1.0000
  N   N16       1.0  0.45360  0.20713  0.08311  1.0000
  C   C44       1.0  0.48104  0.15557  0.28116  1.0000
  H   H17       1.0  0.49329  0.15526  0.21822  1.0000
  N   N17       1.0  0.72875  0.20589  0.27110  1.0000
  C   C45       1.0  0.77195  0.24306  0.24213  1.0000
  C   C46       1.0  0.80302  0.27870  0.30444  1.0000
  C   C47       1.0  0.78131  0.24448  0.15758  1.0000
  N   N18       1.0  0.78999  0.24581  0.08315  1.0000
  C   C48       1.0  0.84152  0.32490  0.28111  1.0000
  H   H18       1.0  0.84181  0.33745  0.21817  1.0000
  C   C49       1.0  0.94283  0.50641  0.31008  1.0000
  C   C50       1.0  0.89175  0.47995  0.31834  1.0000
  H   H19       1.0  0.95837  0.54274  0.29691  1.0000
  C   C51       1.0  0.10477  0.51773  0.31831  1.0000
  C   C52       1.0  0.05370  0.49129  0.30990  1.0000
  H   H20       1.0  0.03815  0.45495  0.29682  1.0000
  N   N19       1.0  0.12906  0.49260  0.31899  1.0000
  N   N20       1.0  0.86745  0.50507  0.31906  1.0000
  C   C53       1.0  0.49076  0.43588  0.31003  1.0000
  C   C54       1.0  0.51724  0.41128  0.31829  1.0000
  H   H21       1.0  0.45443  0.41507  0.29684  1.0000
  C   C55       1.0  0.47934  0.58644  0.31830  1.0000
  C   C56       1.0  0.50580  0.56182  0.30992  1.0000
  H   H22       1.0  0.54215  0.58265  0.29690  1.0000
  N   N21       1.0  0.50446  0.63585  0.31904  1.0000
  N   N22       1.0  0.49213  0.36185  0.31897  1.0000
  C   C57       1.0  0.56125  0.05430  0.30998  1.0000
  C   C58       1.0  0.58587  0.10538  0.31837  1.0000
  H   H23       1.0  0.58205  0.03877  0.29674  1.0000
  C   C59       1.0  0.41066  0.89235  0.31780  1.0000
  C   C60       1.0  0.43529  0.94343  0.30953  1.0000
  H   H24       1.0  0.41448  0.95898  0.29652  1.0000
  N   N23       1.0  0.36125  0.86806  0.31856  1.0000
  N   N24       1.0  0.63529  0.12968  0.31908  1.0000
  C   C61       1.0  0.19987  0.48551  0.35672  1.0000
  N   N25       1.0  0.27146  0.48192  0.39074  1.0000
  C   C62       1.0  0.23408  0.48749  0.41989  1.0000
  C   C63       1.0  0.23421  0.49760  0.50382  1.0000
  N   N26       1.0  0.23428  0.50687  0.57767  1.0000
  C   C64       1.0  0.16645  0.50132  0.37378  1.0000
  H   H25       1.0  0.17054  0.52069  0.43077  1.0000
  C   C65       1.0  0.51150  0.71374  0.35668  1.0000
  N   N27       1.0  0.51510  0.78892  0.39055  1.0000
  C   C66       1.0  0.50947  0.74596  0.41978  1.0000
  C   C67       1.0  0.49934  0.73601  0.50372  1.0000
  N   N28       1.0  0.49006  0.72683  0.57756  1.0000
  C   C68       1.0  0.49568  0.66451  0.37377  1.0000
  H   H26       1.0  0.47627  0.64922  0.43073  1.0000
  C   C69       1.0  0.28337  0.79729  0.35662  1.0000
  N   N29       1.0  0.20825  0.72570  0.39084  1.0000
  C   C70       1.0  0.25120  0.76313  0.41989  1.0000
  C   C71       1.0  0.26120  0.76316  0.50385  1.0000
  N   N30       1.0  0.27043  0.76325  0.57771  1.0000
  C   C72       1.0  0.33263  0.83071  0.37347  1.0000
  H   H27       1.0  0.34796  0.82668  0.43045  1.0000
  C   C73       1.0  0.79665  0.51219  0.35682  1.0000
  N   N31       1.0  0.72508  0.51579  0.39070  1.0000
  C   C74       1.0  0.76243  0.51020  0.41995  1.0000
  C   C75       1.0  0.76219  0.49996  0.50383  1.0000
  N   N32       1.0  0.76203  0.49057  0.57763  1.0000
  C   C76       1.0  0.83001  0.49629  0.37378  1.0000
  H   H28       1.0  0.82590  0.47688  0.43074  1.0000
  C   C77       1.0  0.48506  0.28397  0.35670  1.0000
  N   N33       1.0  0.48143  0.20878  0.39075  1.0000
  C   C78       1.0  0.48703  0.25174  0.41989  1.0000
  C   C79       1.0  0.49715  0.26173  0.50382  1.0000
  N   N34       1.0  0.50642  0.27093  0.57766  1.0000
  C   C80       1.0  0.50090  0.33321  0.37373  1.0000
  H   H29       1.0  0.52029  0.34850  0.43071  1.0000
  C   C81       1.0  0.71318  0.20050  0.35678  1.0000
  N   N35       1.0  0.78836  0.27209  0.39075  1.0000
  C   C82       1.0  0.74540  0.23474  0.41992  1.0000
  C   C83       1.0  0.73543  0.23485  0.50387  1.0000
  N   N36       1.0  0.72625  0.23491  0.57773  1.0000
  C   C84       1.0  0.66395  0.16708  0.37385  1.0000
  H   H30       1.0  0.64866  0.17119  0.43083  1.0000
