data_image0
_chemical_formula_structural       C2NCHC4NC17H8C2NCHC3H2NCHNC16H6C2NC2HC3H2NCHC3NC7H10OH2COH2C12H13
_chemical_formula_sum              "C78 N8 H50 O2"
_cell_length_a       29.8851
_cell_length_b       29.885
_cell_length_c       14.8366
_cell_angle_alpha    90
_cell_angle_beta     90
_cell_angle_gamma    90.0717

_space_group_name_H-M_alt    "P 1"
_space_group_IT_number       1

loop_
  _space_group_symop_operation_xyz
  'x, y, z'

loop_
  _atom_site_type_symbol
  _atom_site_label
  _atom_site_symmetry_multiplicity
  _atom_site_fract_x
  _atom_site_fract_y
  _atom_site_fract_z
  _atom_site_occupancy
  C   C1        1.0  0.09110  0.12270  0.34763  1.0000
  C   C2        1.0  0.04943  0.10149  0.34395  1.0000
  N   N1        1.0  0.05860  0.05704  0.34173  1.0000
  C   C3        1.0  0.00743  0.12394  0.34360  1.0000
  H   H1        1.0  0.03603  0.03424  0.33752  1.0000
  C   C4        1.0  0.12391  0.09022  0.34759  1.0000
  C   C5        1.0  0.10315  0.04833  0.34382  1.0000
  C   C6        1.0  0.12603  0.00655  0.34337  1.0000
  C   C7        1.0  0.89095  0.00634  0.34414  1.0000
  N   N2        1.0  0.95667  0.05773  0.34386  1.0000
  C   C8        1.0  0.96513  0.10219  0.34352  1.0000
  C   C9        1.0  0.92341  0.12322  0.34351  1.0000
  C   C10       1.0  0.89089  0.09038  0.34424  1.0000
  C   C11       1.0  0.84318  0.00574  0.34388  1.0000
  C   C12       1.0  0.81908  0.00975  0.26244  1.0000
  C   C13       1.0  0.77197  0.00994  0.26271  1.0000
  C   C14       1.0  0.74734  0.00611  0.34407  1.0000
  C   C15       1.0  0.69930  0.00672  0.34434  1.0000
  C   C16       1.0  0.60284  0.00811  0.34495  1.0000
  C   C17       1.0  0.17384  0.00725  0.34284  1.0000
  C   C18       1.0  0.19749  0.01542  0.26208  1.0000
  C   C19       1.0  0.24459  0.01632  0.26145  1.0000
  C   C20       1.0  0.26960  0.00881  0.34119  1.0000
  C   C21       1.0  0.31753  0.00953  0.34008  1.0000
  C   C22       1.0  0.41346  0.01019  0.33506  1.0000
  C   C23       1.0  0.38842  0.04364  0.29061  1.0000
  C   C24       1.0  0.34131  0.04316  0.29272  1.0000
  H   H2        1.0  0.40427  0.06914  0.25746  1.0000
  H   H3        1.0  0.32449  0.06832  0.26054  1.0000
  H   H4        1.0  0.26051  0.02170  0.20135  1.0000
  H   H5        1.0  0.18054  0.02070  0.20306  1.0000
  H   H6        1.0  0.15744  0.09676  0.35104  1.0000
  H   H7        1.0  0.85722  0.09636  0.34448  1.0000
  H   H8        1.0  0.83572  0.01299  0.20246  1.0000
  H   H9        1.0  0.75579  0.01397  0.20249  1.0000
  C   C25       1.0  0.46099  0.01025  0.33320  1.0000
  C   C26       1.0  0.55500  0.00898  0.34379  1.0000
  N   N3        1.0  0.53272  0.00672  0.26387  1.0000
  C   C27       1.0  0.48744  0.00740  0.25381  1.0000
  H   H10       1.0  0.45058  0.03288  0.14389  1.0000
  C   C28       1.0  0.91229  0.04885  0.34422  1.0000
  C   C29       1.0  0.62795  0.03063  0.41204  1.0000
  C   C30       1.0  0.67507  0.03003  0.41160  1.0000
  H   H11       1.0  0.69156  0.04786  0.46023  1.0000
  H   H12       1.0  0.61222  0.04892  0.46091  1.0000
  N   N4        1.0  0.48288  0.01154  0.41356  1.0000
  C   C31       1.0  0.52808  0.01134  0.42194  1.0000
  H   H13       1.0  0.54168  0.01176  0.48508  1.0000
  N   N5        1.0  0.06026  0.95513  0.34399  1.0000
  C   C32       1.0  0.05177  0.91067  0.34422  1.0000
  C   C33       1.0  0.09351  0.88968  0.34423  1.0000
  C   C34       1.0  0.00946  0.88886  0.34416  1.0000
  C   C35       1.0  0.00765  0.17171  0.34413  1.0000
  C   C36       1.0  0.01224  0.19594  0.26298  1.0000
  C   C37       1.0  0.01264  0.24306  0.26361  1.0000
  C   C38       1.0  0.00843  0.26754  0.34506  1.0000
  C   C39       1.0  0.00895  0.31558  0.34556  1.0000
  C   C40       1.0  0.00930  0.84105  0.34307  1.0000
  C   C41       1.0  0.01026  0.74528  0.34140  1.0000
  C   C42       1.0  0.01796  0.77026  0.26168  1.0000
  C   C43       1.0  0.01732  0.81737  0.26230  1.0000
  C   C44       1.0  0.01107  0.69735  0.34048  1.0000
  C   C45       1.0  0.04494  0.67371  0.29373  1.0000
  C   C46       1.0  0.04561  0.62661  0.29193  1.0000
  C   C47       1.0  0.01212  0.60143  0.33613  1.0000
  H   H14       1.0  0.02291  0.83431  0.20337  1.0000
  H   H15       1.0  0.02342  0.75432  0.20165  1.0000
  H   H16       1.0  0.01693  0.25933  0.20356  1.0000
  H   H17       1.0  0.01555  0.17943  0.20290  1.0000
  H   H18       1.0  0.07014  0.69063  0.26172  1.0000
  H   H19       1.0  0.07127  0.61086  0.25920  1.0000
  C   C48       1.0  0.01232  0.55389  0.33445  1.0000
  C   C49       1.0  0.01112  0.45988  0.34525  1.0000
  N   N6        1.0  0.00913  0.48212  0.26526  1.0000
  C   C50       1.0  0.00981  0.52740  0.25508  1.0000
  C   C51       1.0  0.00543  0.54551  0.16231  1.0000
  H   H20       1.0  0.03556  0.56427  0.14536  1.0000
  C   C52       1.0  0.03190  0.33985  0.41336  1.0000
  C   C53       1.0  0.03244  0.38698  0.41393  1.0000
  C   C54       1.0  0.01024  0.41204  0.34643  1.0000
  H   H21       1.0  0.05046  0.40274  0.46321  1.0000
  H   H22       1.0  0.04947  0.32339  0.46234  1.0000
  N   N7        1.0  0.01334  0.53205  0.41489  1.0000
  C   C55       1.0  0.01320  0.48685  0.42337  1.0000
  H   H23       1.0  0.01331  0.47330  0.48654  1.0000
  C   C56       1.0  0.10464  0.96404  0.34349  1.0000
  C   C57       1.0  0.12603  0.92251  0.34317  1.0000
  C   C58       1.0  0.96745  0.91133  0.34387  1.0000
  N   N8        1.0  0.95832  0.95579  0.34612  1.0000
  C   C59       1.0  0.91378  0.96454  0.34380  1.0000
  C   C60       1.0  0.89296  0.92268  0.34010  1.0000
  C   C61       1.0  0.92576  0.89018  0.33998  1.0000
  C   C62       1.0  0.98764  0.38780  0.27816  1.0000
  C   C63       1.0  0.98680  0.34068  0.27803  1.0000
  C   C64       1.0  0.67416  0.98428  0.27715  1.0000
  C   C65       1.0  0.62704  0.98520  0.27712  1.0000
  H   H24       1.0  0.09727  0.15631  0.35089  1.0000
  H   H25       1.0  0.98090  0.97858  0.35033  1.0000
  H   H26       1.0  0.15969  0.91650  0.34261  1.0000
  H   H27       1.0  0.09986  0.85609  0.34456  1.0000
  H   H28       1.0  0.91954  0.85658  0.33655  1.0000
  H   H29       1.0  0.85941  0.91621  0.33682  1.0000
  H   H30       1.0  0.61052  0.96801  0.22756  1.0000
  H   H31       1.0  0.68995  0.96627  0.22792  1.0000
  H   H32       1.0  0.96900  0.32486  0.22845  1.0000
  H   H33       1.0  0.97068  0.40428  0.22829  1.0000
  O   O1        1.0  0.96779  0.57476  0.15297  1.0000
  H   H34       1.0  0.00256  0.51845  0.11290  1.0000
  H   H35       1.0  0.94032  0.55699  0.16121  1.0000
  C   C66       1.0  0.46923  0.00277  0.16116  1.0000
  O   O2        1.0  0.43980  0.96515  0.15238  1.0000
  H   H36       1.0  0.49624  0.99970  0.11170  1.0000
  H   H37       1.0  0.45746  0.93768  0.16090  1.0000
  C   C67       1.0  0.00380  0.24273  0.42602  1.0000
  C   C68       1.0  0.00344  0.19562  0.42574  1.0000
  C   C69       1.0  0.77201  0.00190  0.42528  1.0000
  C   C70       1.0  0.81913  0.00176  0.42537  1.0000
  C   C71       1.0  0.00155  0.81650  0.42292  1.0000
  C   C72       1.0  0.00183  0.76938  0.42190  1.0000
  C   C73       1.0  0.97880  0.62477  0.38462  1.0000
  C   C74       1.0  0.97820  0.67189  0.38642  1.0000
  C   C75       1.0  0.19840  0.99988  0.42279  1.0000
  C   C76       1.0  0.24553  0.00047  0.42177  1.0000
  C   C77       1.0  0.34287  0.97668  0.38619  1.0000
  C   C78       1.0  0.38999  0.97711  0.38413  1.0000
  H   H38       1.0  0.40706  0.95237  0.41721  1.0000
  H   H39       1.0  0.32720  0.95137  0.42035  1.0000
  H   H40       1.0  0.26213  0.99558  0.48127  1.0000
  H   H41       1.0  0.18211  0.99407  0.48235  1.0000
  H   H42       1.0  0.99586  0.83281  0.48250  1.0000
  H   H43       1.0  0.99684  0.75278  0.48139  1.0000
  H   H44       1.0  0.91712  0.15682  0.34327  1.0000
  H   H45       1.0  0.83578  0.99875  0.48537  1.0000
  H   H46       1.0  0.75586  0.99823  0.48563  1.0000
  H   H47       1.0  0.99993  0.17886  0.48551  1.0000
  H   H48       1.0  0.99980  0.25879  0.48638  1.0000
  H   H49       1.0  0.95275  0.68747  0.42018  1.0000
  H   H50       1.0  0.95404  0.60760  0.41757  1.0000
