data_image0
_chemical_formula_structural       C3NC3NC5NC4NC35H25C21H18C16H16C8H4C6H4C8H4C8H4C6H4C8H4C18H17C3NC3NC2NC5NC34H24C3NC3NC5NC5NC36H26C2HC2HC2H4C3HC3HC2H4C2HC2HC2H4C2HC2HC2H4C3HC3HC2H4C2HC2HC2H4
_chemical_formula_sum              "C288 N12 H186"
_cell_length_a       67.2399
_cell_length_b       67.24
_cell_length_c       14.966
_cell_angle_alpha    89.8024
_cell_angle_beta     90.1976
_cell_angle_gamma    120

_space_group_name_H-M_alt    "P 1"
_space_group_IT_number       1

loop_
  _space_group_symop_operation_xyz
  'x, y, z'

loop_
  _atom_site_type_symbol
  _atom_site_label
  _atom_site_symmetry_multiplicity
  _atom_site_fract_x
  _atom_site_fract_y
  _atom_site_fract_z
  _atom_site_occupancy
  C   C1        1.0  0.04352  0.62826  0.33579  1.0000
  C   C2        1.0  0.01980  0.61638  0.33460  1.0000
  C   C3        1.0  0.01230  0.59289  0.33620  1.0000
  N   N1        1.0  0.03169  0.59142  0.33776  1.0000
  C   C4        1.0  0.05106  0.61230  0.33739  1.0000
  C   C5        1.0  0.07446  0.61791  0.33857  1.0000
  C   C6        1.0  0.08205  0.60162  0.33855  1.0000
  N   N2        1.0  0.06909  0.57846  0.33738  1.0000
  C   C7        1.0  0.08209  0.56831  0.33709  1.0000
  C   C8        1.0  0.10491  0.58615  0.33827  1.0000
  C   C9        1.0  0.10488  0.60665  0.33900  1.0000
  C   C10       1.0  0.07456  0.54445  0.33590  1.0000
  C   C11       1.0  0.05117  0.52663  0.33611  1.0000
  N   N3        1.0  0.03178  0.52809  0.33773  1.0000
  C   C12       1.0  0.01241  0.50721  0.33737  1.0000
  C   C13       1.0  0.01996  0.49126  0.33569  1.0000
  C   C14       1.0  0.04367  0.50314  0.33447  1.0000
  C   C15       1.0  0.98901  0.50160  0.33865  1.0000
  N   N4        1.0  0.99439  0.54104  0.33753  1.0000
  C   C16       1.0  0.98138  0.55120  0.33722  1.0000
  C   C17       1.0  0.95857  0.53336  0.33839  1.0000
  C   C18       1.0  0.95860  0.51285  0.33913  1.0000
  C   C19       1.0  0.98891  0.57506  0.33599  1.0000
  C   C20       1.0  0.97164  0.58145  0.33330  1.0000
  C   C21       1.0  0.96101  0.58129  0.25158  1.0000
  C   C22       1.0  0.94297  0.58618  0.24946  1.0000
  C   C23       1.0  0.93511  0.59149  0.32866  1.0000
  C   C24       1.0  0.91607  0.59537  0.32677  1.0000
  C   C25       1.0  0.87687  0.58390  0.27780  1.0000
  C   C26       1.0  0.89584  0.58043  0.27902  1.0000
  C   C27       1.0  0.97180  0.47792  0.33954  1.0000
  C   C28       1.0  0.96401  0.46546  0.25899  1.0000
  C   C29       1.0  0.94637  0.44233  0.25981  1.0000
  C   C30       1.0  0.93591  0.43105  0.34087  1.0000
  C   C31       1.0  0.91734  0.40786  0.34116  1.0000
  C   C32       1.0  0.91813  0.39068  0.28952  1.0000
  C   C33       1.0  0.89953  0.36799  0.28820  1.0000
  C   C34       1.0  0.87938  0.36161  0.33829  1.0000
  C   C35       1.0  0.09182  0.53804  0.33327  1.0000
  C   C36       1.0  0.12801  0.52754  0.32861  1.0000
  C   C37       1.0  0.12028  0.53319  0.24949  1.0000
  C   C38       1.0  0.10240  0.53831  0.25162  1.0000
  C   C39       1.0  0.14683  0.52331  0.32667  1.0000
  C   C40       1.0  0.16713  0.53814  0.27927  1.0000
  C   C41       1.0  0.18585  0.53428  0.27792  1.0000
  C   C42       1.0  0.18502  0.51539  0.32350  1.0000
  C   C43       1.0  0.09169  0.64158  0.33951  1.0000
  C   C44       1.0  0.09955  0.65408  0.25893  1.0000
  C   C45       1.0  0.11734  0.67715  0.25975  1.0000
  C   C46       1.0  0.12791  0.68831  0.34083  1.0000
  C   C47       1.0  0.14671  0.71138  0.34111  1.0000
  C   C48       1.0  0.18517  0.75736  0.33805  1.0000
  C   C49       1.0  0.16507  0.75130  0.28766  1.0000
  C   C50       1.0  0.14622  0.72876  0.28905  1.0000
  H   H1        1.0  0.16386  0.76335  0.24976  1.0000
  H   H2        1.0  0.13198  0.72520  0.25216  1.0000
  H   H3        1.0  0.12304  0.68549  0.19990  1.0000
  H   H4        1.0  0.09264  0.64636  0.19903  1.0000
  H   H5        1.0  0.05341  0.64576  0.33508  1.0000
  H   H6        1.0  0.00988  0.62396  0.33308  1.0000
  H   H7        1.0  0.03171  0.57716  0.33953  1.0000
  H   H8        1.0  0.03177  0.54236  0.33960  1.0000
  H   H9        1.0  0.11932  0.62251  0.33960  1.0000
  H   H10       1.0  0.11937  0.58477  0.33863  1.0000
  H   H11       1.0  0.09739  0.54256  0.19334  1.0000
  H   H12       1.0  0.12760  0.53360  0.18916  1.0000
  H   H13       1.0  0.05358  0.49555  0.33289  1.0000
  H   H14       1.0  0.01006  0.47375  0.33503  1.0000
  H   H15       1.0  0.94416  0.49699  0.33968  1.0000
  H   H16       1.0  0.97089  0.47325  0.19912  1.0000
  H   H17       1.0  0.94074  0.43400  0.19999  1.0000
  H   H18       1.0  0.90097  0.35609  0.25061  1.0000
  H   H19       1.0  0.93243  0.39447  0.25285  1.0000
  H   H20       1.0  0.89446  0.56644  0.24632  1.0000
  H   H21       1.0  0.86241  0.57226  0.24429  1.0000
  H   H22       1.0  0.93559  0.58581  0.18910  1.0000
  H   H23       1.0  0.96606  0.57721  0.19328  1.0000
  H   H24       1.0  0.16874  0.55230  0.24685  1.0000
  H   H25       1.0  0.20039  0.54584  0.24468  1.0000
  C   C51       1.0  0.52162  0.59844  0.33992  1.0000
  C   C52       1.0  0.50379  0.60342  0.34103  1.0000
  C   C53       1.0  0.48328  0.58288  0.34177  1.0000
  C   C54       1.0  0.50864  0.46452  0.25436  1.0000
  C   C55       1.0  0.50375  0.44159  0.25220  1.0000
  C   C56       1.0  0.50603  0.37773  0.28036  1.0000
  C   C57       1.0  0.50950  0.40016  0.28167  1.0000
  C   C58       1.0  0.62446  0.58338  0.26165  1.0000
  C   C59       1.0  0.64760  0.58888  0.26231  1.0000
  C   C60       1.0  0.69925  0.61227  0.29184  1.0000
  C   C61       1.0  0.72194  0.61636  0.29028  1.0000
  C   C62       1.0  0.72834  0.60248  0.33998  1.0000
  C   C63       1.0  0.55675  0.67188  0.25225  1.0000
  C   C64       1.0  0.55163  0.64888  0.25440  1.0000
  C   C65       1.0  0.55180  0.71374  0.28200  1.0000
  C   C66       1.0  0.55564  0.73631  0.28062  1.0000
  C   C67       1.0  0.43586  0.53019  0.26163  1.0000
  C   C68       1.0  0.41279  0.52491  0.26230  1.0000
  C   C69       1.0  0.33256  0.51242  0.33977  1.0000
  C   C70       1.0  0.33864  0.49841  0.28977  1.0000
  C   C71       1.0  0.36118  0.50212  0.29145  1.0000
  H   H26       1.0  0.32660  0.48518  0.25192  1.0000
  H   H27       1.0  0.36476  0.49146  0.25477  1.0000
  H   H28       1.0  0.40445  0.52230  0.20242  1.0000
  H   H29       1.0  0.44360  0.53106  0.20178  1.0000
  H   H30       1.0  0.46742  0.58146  0.34233  1.0000
  H   H31       1.0  0.54737  0.63969  0.19614  1.0000
  H   H32       1.0  0.55634  0.67888  0.19191  1.0000
  H   H33       1.0  0.59438  0.64269  0.33590  1.0000
  H   H34       1.0  0.61666  0.58261  0.20184  1.0000
  H   H35       1.0  0.65592  0.59173  0.20246  1.0000
  H   H36       1.0  0.73383  0.62979  0.25277  1.0000
  H   H37       1.0  0.69545  0.62286  0.25546  1.0000
  H   H38       1.0  0.52349  0.41282  0.24898  1.0000
  H   H39       1.0  0.51768  0.37496  0.24692  1.0000
  H   H40       1.0  0.50412  0.43468  0.19182  1.0000
  H   H41       1.0  0.51273  0.47375  0.19609  1.0000
  H   H42       1.0  0.53764  0.70123  0.24955  1.0000
  H   H43       1.0  0.54409  0.73934  0.24733  1.0000
  C   C72       1.0  0.62530  0.12885  0.25561  1.0000
  C   C73       1.0  0.64822  0.14689  0.25297  1.0000
  C   C74       1.0  0.71212  0.21300  0.27973  1.0000
  C   C75       1.0  0.68969  0.19405  0.28153  1.0000
  C   C76       1.0  0.50654  0.12585  0.26414  1.0000
  C   C77       1.0  0.50102  0.14347  0.26487  1.0000
  C   C78       1.0  0.47764  0.17170  0.29450  1.0000
  C   C79       1.0  0.47356  0.19030  0.29294  1.0000
  C   C80       1.0  0.41818  0.96972  0.25299  1.0000
  C   C81       1.0  0.44118  0.98760  0.25565  1.0000
  C   C82       1.0  0.37627  0.92285  0.28170  1.0000
  C   C83       1.0  0.35370  0.90414  0.27981  1.0000
  C   C84       1.0  0.55976  0.99045  0.26407  1.0000
  C   C85       1.0  0.56506  0.97267  0.26479  1.0000
  C   C86       1.0  0.59152  0.92495  0.29234  1.0000
  C   C87       1.0  0.58783  0.94379  0.29399  1.0000
  H   H44       1.0  0.60475  0.92620  0.25451  1.0000
  H   H45       1.0  0.59848  0.95808  0.25732  1.0000
  H   H46       1.0  0.56764  0.96701  0.20492  1.0000
  H   H47       1.0  0.55890  0.99741  0.20421  1.0000
  H   H48       1.0  0.45045  0.99267  0.19759  1.0000
  H   H49       1.0  0.41126  0.96246  0.19248  1.0000
  H   H50       1.0  0.50732  0.11894  0.20431  1.0000
  H   H51       1.0  0.49819  0.14907  0.20503  1.0000
  H   H52       1.0  0.46014  0.18883  0.25540  1.0000
  H   H53       1.0  0.46705  0.15737  0.25806  1.0000
  H   H54       1.0  0.67698  0.19540  0.24910  1.0000
  H   H55       1.0  0.71485  0.22744  0.24616  1.0000
  H   H56       1.0  0.65505  0.15421  0.19244  1.0000
  H   H57       1.0  0.61599  0.12375  0.19752  1.0000
  H   H58       1.0  0.38883  0.92126  0.24962  1.0000
  H   H59       1.0  0.35072  0.88963  0.24652  1.0000
  C   C88       1.0  0.30993  0.50938  0.33557  1.0000
  C   C89       1.0  0.29829  0.50570  0.25315  1.0000
  C   C90       1.0  0.27675  0.50431  0.24803  1.0000
  C   C91       1.0  0.26582  0.50657  0.32504  1.0000
  C   C92       1.0  0.24449  0.50689  0.32152  1.0000
  C   C93       1.0  0.23649  0.51244  0.24277  1.0000
  C   C94       1.0  0.21682  0.51470  0.24317  1.0000
  C   C95       1.0  0.20428  0.51177  0.32247  1.0000
  H   H60       1.0  0.24534  0.51587  0.18413  1.0000
  H   H61       1.0  0.21187  0.51880  0.18440  1.0000
  H   H62       1.0  0.30580  0.50484  0.19500  1.0000
  H   H63       1.0  0.26928  0.50167  0.18644  1.0000
  C   C96       1.0  0.58423  0.87738  0.25573  1.0000
  C   C97       1.0  0.58562  0.85723  0.25063  1.0000
  C   C98       1.0  0.58335  0.84392  0.32765  1.0000
  C   C99       1.0  0.58303  0.82228  0.32415  1.0000
  C   C100      1.0  0.57749  0.80885  0.24541  1.0000
  C   C101      1.0  0.57523  0.78692  0.24582  1.0000
  H   H64       1.0  0.57406  0.81435  0.18676  1.0000
  H   H65       1.0  0.57113  0.77795  0.18707  1.0000
  H   H66       1.0  0.58509  0.88583  0.19757  1.0000
  H   H67       1.0  0.58826  0.85249  0.18905  1.0000
  C   C102      1.0  0.20476  0.77999  0.33422  1.0000
  C   C103      1.0  0.21269  0.79168  0.25195  1.0000
  C   C104      1.0  0.23283  0.81324  0.24725  1.0000
  C   C105      1.0  0.24603  0.82412  0.32455  1.0000
  C   C106      1.0  0.26767  0.84546  0.32150  1.0000
  C   C107      1.0  0.28121  0.85352  0.24306  1.0000
  C   C108      1.0  0.30315  0.87319  0.24394  1.0000
  C   C109      1.0  0.31276  0.88568  0.32345  1.0000
  H   H68       1.0  0.27580  0.84471  0.18430  1.0000
  H   H69       1.0  0.31219  0.87819  0.18539  1.0000
  H   H70       1.0  0.20432  0.78421  0.19363  1.0000
  H   H71       1.0  0.23766  0.82075  0.18577  1.0000
  C   C110      1.0  0.75113  0.60593  0.33589  1.0000
  C   C111      1.0  0.76279  0.61002  0.25357  1.0000
  C   C112      1.0  0.78451  0.61185  0.24851  1.0000
  C   C113      1.0  0.79562  0.60963  0.32548  1.0000
  C   C114      1.0  0.81716  0.60976  0.32198  1.0000
  C   C115      1.0  0.82533  0.60464  0.24311  1.0000
  C   C116      1.0  0.84525  0.60279  0.24348  1.0000
  C   C117      1.0  0.85787  0.60573  0.32286  1.0000
  H   H72       1.0  0.81646  0.60122  0.18438  1.0000
  H   H73       1.0  0.85032  0.59899  0.18462  1.0000
  H   H74       1.0  0.75517  0.61087  0.19543  1.0000
  H   H75       1.0  0.79199  0.61477  0.18700  1.0000
  C   C118      1.0  0.47992  0.23755  0.25621  1.0000
  C   C119      1.0  0.47810  0.25747  0.25114  1.0000
  C   C120      1.0  0.48031  0.27067  0.32811  1.0000
  C   C121      1.0  0.48019  0.29209  0.32460  1.0000
  C   C122      1.0  0.48531  0.30550  0.24573  1.0000
  C   C123      1.0  0.48715  0.32726  0.24608  1.0000
  H   H76       1.0  0.48874  0.30014  0.18701  1.0000
  H   H77       1.0  0.49096  0.33623  0.18723  1.0000
  H   H78       1.0  0.47907  0.22918  0.19807  1.0000
  H   H79       1.0  0.47518  0.26212  0.18962  1.0000
  C   C124      1.0  0.86004  0.33882  0.33456  1.0000
  C   C125      1.0  0.85223  0.32711  0.25238  1.0000
  C   C126      1.0  0.83233  0.30537  0.24775  1.0000
  C   C127      1.0  0.81925  0.29431  0.32501  1.0000
  C   C128      1.0  0.79783  0.27275  0.32197  1.0000
  C   C129      1.0  0.78429  0.26452  0.24340  1.0000
  C   C130      1.0  0.76254  0.24460  0.24425  1.0000
  C   C131      1.0  0.75310  0.23204  0.32385  1.0000
  H   H80       1.0  0.78956  0.27335  0.18456  1.0000
  H   H81       1.0  0.75348  0.23949  0.18561  1.0000
  H   H82       1.0  0.86052  0.33468  0.19407  1.0000
  H   H83       1.0  0.82759  0.29784  0.18633  1.0000
  C   C132      1.0  0.98143  0.51789  0.33872  1.0000
  C   C133      1.0  0.94620  0.59206  0.41006  1.0000
  C   C134      1.0  0.96413  0.58697  0.41253  1.0000
  C   C135      1.0  0.91658  0.61389  0.37337  1.0000
  C   C136      1.0  0.89762  0.61743  0.37174  1.0000
  C   C137      1.0  0.87738  0.60251  0.32381  1.0000
  C   C138      1.0  0.94397  0.44369  0.42131  1.0000
  C   C139      1.0  0.96170  0.46678  0.42082  1.0000
  C   C140      1.0  0.87867  0.37880  0.39022  1.0000
  C   C141      1.0  0.89728  0.40145  0.39179  1.0000
  C   C142      1.0  0.09923  0.53222  0.41244  1.0000
  C   C143      1.0  0.11700  0.52692  0.40996  1.0000
  C   C144      1.0  0.16470  0.50059  0.37107  1.0000
  C   C145      1.0  0.14599  0.50450  0.37282  1.0000
  C   C146      1.0  0.10186  0.65263  0.42083  1.0000
  C   C147      1.0  0.11975  0.67564  0.42132  1.0000
  C   C148      1.0  0.16672  0.71747  0.39200  1.0000
  C   C149      1.0  0.18557  0.73998  0.39040  1.0000
  H   H84       1.0  0.19995  0.74335  0.42593  1.0000
  H   H85       1.0  0.16809  0.70534  0.42876  1.0000
  H   H86       1.0  0.12675  0.68311  0.48147  1.0000
  H   H87       1.0  0.09654  0.64389  0.48009  1.0000
  H   H88       1.0  0.09200  0.53216  0.47260  1.0000
  H   H89       1.0  0.12239  0.52339  0.46890  1.0000
  H   H90       1.0  0.94410  0.53473  0.33869  1.0000
  H   H91       1.0  0.96700  0.47548  0.48007  1.0000
  H   H92       1.0  0.93705  0.43614  0.48144  1.0000
  H   H93       1.0  0.89568  0.41343  0.42824  1.0000
  H   H94       1.0  0.86423  0.37519  0.42556  1.0000
  H   H95       1.0  0.97137  0.58691  0.47275  1.0000
  H   H96       1.0  0.94072  0.59531  0.46906  1.0000
  H   H97       1.0  0.89891  0.63129  0.40502  1.0000
  H   H98       1.0  0.93098  0.62528  0.40784  1.0000
  H   H99       1.0  0.13152  0.49317  0.40696  1.0000
  H   H100      1.0  0.16318  0.48653  0.40400  1.0000
  C   C150      1.0  0.46168  0.49992  0.33869  1.0000
  C   C151      1.0  0.47356  0.48809  0.33750  1.0000
  C   C152      1.0  0.49705  0.50407  0.33909  1.0000
  N   N5        1.0  0.49851  0.52493  0.34066  1.0000
  C   C153      1.0  0.47763  0.52342  0.34028  1.0000
  C   C154      1.0  0.47203  0.54121  0.34144  1.0000
  C   C155      1.0  0.48831  0.56508  0.34143  1.0000
  N   N6        1.0  0.51147  0.57528  0.34027  1.0000
  C   C156      1.0  0.54548  0.61477  0.33873  1.0000
  C   C157      1.0  0.56331  0.60920  0.33901  1.0000
  N   N7        1.0  0.56184  0.58835  0.34061  1.0000
  C   C158      1.0  0.58272  0.58986  0.34027  1.0000
  C   C159      1.0  0.59867  0.61336  0.33865  1.0000
  C   C160      1.0  0.58680  0.62519  0.33744  1.0000
  C   C161      1.0  0.58833  0.57207  0.34149  1.0000
  C   C162      1.0  0.57205  0.54820  0.34153  1.0000
  N   N8        1.0  0.54889  0.53800  0.34041  1.0000
  C   C163      1.0  0.53874  0.51484  0.34006  1.0000
  C   C164      1.0  0.55658  0.50987  0.34115  1.0000
  C   C165      1.0  0.57708  0.53040  0.34187  1.0000
  C   C166      1.0  0.51488  0.49851  0.33885  1.0000
  C   C167      1.0  0.50849  0.47486  0.33612  1.0000
  C   C168      1.0  0.49843  0.42829  0.33136  1.0000
  C   C169      1.0  0.49789  0.43869  0.41280  1.0000
  C   C170      1.0  0.50295  0.46168  0.41532  1.0000
  C   C171      1.0  0.49456  0.40538  0.32942  1.0000
  C   C172      1.0  0.47603  0.38728  0.37599  1.0000
  C   C173      1.0  0.47250  0.36479  0.37434  1.0000
  C   C174      1.0  0.48742  0.35954  0.32640  1.0000
  C   C175      1.0  0.61202  0.57854  0.34225  1.0000
  C   C176      1.0  0.65889  0.58953  0.34327  1.0000
  C   C177      1.0  0.64626  0.58477  0.42378  1.0000
  C   C178      1.0  0.62318  0.57941  0.42344  1.0000
  C   C179      1.0  0.68209  0.59417  0.34339  1.0000
  C   C180      1.0  0.71117  0.58446  0.39185  1.0000
  C   C181      1.0  0.68852  0.58040  0.39363  1.0000
  C   C182      1.0  0.55189  0.63843  0.33608  1.0000
  C   C183      1.0  0.55772  0.65156  0.41523  1.0000
  C   C184      1.0  0.56301  0.67463  0.41272  1.0000
  C   C185      1.0  0.56240  0.68515  0.33136  1.0000
  C   C186      1.0  0.56662  0.70819  0.32940  1.0000
  C   C187      1.0  0.57454  0.75431  0.32619  1.0000
  C   C188      1.0  0.58933  0.74872  0.37381  1.0000
  C   C189      1.0  0.58543  0.72610  0.37554  1.0000
  C   C190      1.0  0.44835  0.53476  0.34226  1.0000
  C   C191      1.0  0.43729  0.53380  0.42349  1.0000
  C   C192      1.0  0.40161  0.52423  0.34329  1.0000
  C   C193      1.0  0.41427  0.52867  0.42383  1.0000
  C   C194      1.0  0.37853  0.51993  0.34339  1.0000
  C   C195      1.0  0.37242  0.53382  0.39395  1.0000
  C   C196      1.0  0.34991  0.53015  0.39207  1.0000
  H   H101      1.0  0.34653  0.54114  0.42735  1.0000
  H   H102      1.0  0.38454  0.54729  0.43063  1.0000
  H   H103      1.0  0.40680  0.52815  0.48391  1.0000
  H   H104      1.0  0.44603  0.53719  0.48278  1.0000
  H   H105      1.0  0.44417  0.49231  0.33797  1.0000
  H   H106      1.0  0.46598  0.47059  0.33597  1.0000
  H   H107      1.0  0.51278  0.53921  0.34242  1.0000
  H   H108      1.0  0.54758  0.57407  0.34232  1.0000
  H   H109      1.0  0.50516  0.61926  0.34133  1.0000
  H   H110      1.0  0.55775  0.64429  0.47541  1.0000
  H   H111      1.0  0.56654  0.68346  0.47166  1.0000
  H   H112      1.0  0.61618  0.62097  0.33806  1.0000
  H   H113      1.0  0.55520  0.49402  0.34141  1.0000
  H   H114      1.0  0.59295  0.53182  0.34237  1.0000
  H   H115      1.0  0.61449  0.57588  0.48273  1.0000
  H   H116      1.0  0.65383  0.58528  0.48384  1.0000
  H   H117      1.0  0.67656  0.56676  0.43011  1.0000
  H   H118      1.0  0.71480  0.57356  0.42697  1.0000
  H   H119      1.0  0.50302  0.46889  0.47556  1.0000
  H   H120      1.0  0.49461  0.42984  0.47177  1.0000
  H   H121      1.0  0.45864  0.35216  0.40764  1.0000
  H   H122      1.0  0.46464  0.39024  0.41049  1.0000
  H   H123      1.0  0.59676  0.72290  0.40969  1.0000
  H   H124      1.0  0.60340  0.76121  0.40669  1.0000
  C   C197      1.0  0.59002  0.04643  0.34085  1.0000
  C   C198      1.0  0.60185  0.07014  0.33952  1.0000
  C   C199      1.0  0.58586  0.07764  0.34114  1.0000
  N   N9        1.0  0.56501  0.05825  0.34290  1.0000
  C   C200      1.0  0.56652  0.03888  0.34256  1.0000
  C   C201      1.0  0.54873  0.01548  0.34383  1.0000
  C   C202      1.0  0.52486  0.00789  0.34377  1.0000
  N   N10       1.0  0.51466  0.02084  0.34252  1.0000
  C   C203      1.0  0.49150  0.00783  0.34202  1.0000
  C   C204      1.0  0.48653  0.98502  0.34311  1.0000
  C   C205      1.0  0.50706  0.98505  0.34405  1.0000
  C   C206      1.0  0.47517  0.01536  0.34070  1.0000
  C   C207      1.0  0.48073  0.03875  0.34111  1.0000
  N   N11       1.0  0.50158  0.05814  0.34292  1.0000
  C   C208      1.0  0.50007  0.07751  0.34260  1.0000
  C   C209      1.0  0.47657  0.06996  0.34085  1.0000
  C   C210      1.0  0.46474  0.04625  0.33943  1.0000
  C   C211      1.0  0.51785  0.10091  0.34389  1.0000
  C   C212      1.0  0.54172  0.10850  0.34384  1.0000
  N   N12       1.0  0.55193  0.09554  0.34262  1.0000
  C   C213      1.0  0.57508  0.10855  0.34212  1.0000
  C   C214      1.0  0.58005  0.13136  0.34321  1.0000
  C   C215      1.0  0.55952  0.13133  0.34412  1.0000
  C   C216      1.0  0.59141  0.10103  0.34076  1.0000
  C   C217      1.0  0.61507  0.11830  0.33759  1.0000
  C   C218      1.0  0.66162  0.15482  0.33188  1.0000
  C   C219      1.0  0.65133  0.14382  0.41354  1.0000
  C   C220      1.0  0.62834  0.12588  0.41654  1.0000
  C   C221      1.0  0.68453  0.17385  0.32943  1.0000
  C   C222      1.0  0.70269  0.17338  0.37564  1.0000
  C   C223      1.0  0.72518  0.19233  0.37343  1.0000
  C   C224      1.0  0.73037  0.21253  0.32533  1.0000
  C   C225      1.0  0.51138  0.11812  0.34471  1.0000
  C   C226      1.0  0.50038  0.15400  0.34586  1.0000
  C   C227      1.0  0.50514  0.14599  0.42633  1.0000
  C   C228      1.0  0.51050  0.12827  0.42593  1.0000
  C   C229      1.0  0.49574  0.17255  0.34603  1.0000
  C   C230      1.0  0.48744  0.21051  0.34265  1.0000
  C   C231      1.0  0.50545  0.21126  0.39459  1.0000
  C   C232      1.0  0.50949  0.19266  0.39636  1.0000
  C   C233      1.0  0.45151  0.99810  0.33756  1.0000
  C   C234      1.0  0.43827  0.99062  0.41643  1.0000
  C   C235      1.0  0.41520  0.97284  0.41340  1.0000
  C   C236      1.0  0.40480  0.96192  0.33180  1.0000
  C   C237      1.0  0.38176  0.94311  0.32929  1.0000
  C   C238      1.0  0.33564  0.90493  0.32500  1.0000
  C   C239      1.0  0.34116  0.92521  0.37275  1.0000
  C   C240      1.0  0.36379  0.94392  0.37504  1.0000
  C   C241      1.0  0.55520  0.99826  0.34469  1.0000
  C   C242      1.0  0.55614  0.98802  0.42592  1.0000
  C   C243      1.0  0.56572  0.96204  0.34579  1.0000
  C   C244      1.0  0.56127  0.97014  0.42631  1.0000
  C   C245      1.0  0.57001  0.94325  0.34592  1.0000
  C   C246      1.0  0.55612  0.92319  0.39650  1.0000
  C   C247      1.0  0.55977  0.90434  0.39457  1.0000
  C   C248      1.0  0.57751  0.90479  0.34232  1.0000
  H   H125      1.0  0.54879  0.88992  0.42991  1.0000
  H   H126      1.0  0.54265  0.92178  0.43315  1.0000
  H   H127      1.0  0.56178  0.96309  0.48640  1.0000
  H   H128      1.0  0.55276  0.99329  0.48521  1.0000
  H   H129      1.0  0.59763  0.03654  0.34016  1.0000
  H   H130      1.0  0.61935  0.08006  0.33786  1.0000
  H   H131      1.0  0.55073  0.05822  0.34467  1.0000
  H   H132      1.0  0.51586  0.05816  0.34479  1.0000
  H   H133      1.0  0.50849  0.97061  0.34456  1.0000
  H   H134      1.0  0.47068  0.97055  0.34330  1.0000
  H   H135      1.0  0.44546  0.99779  0.47677  1.0000
  H   H136      1.0  0.40629  0.96741  0.47214  1.0000
  H   H137      1.0  0.44724  0.03633  0.33767  1.0000
  H   H138      1.0  0.46895  0.07985  0.34009  1.0000
  H   H139      1.0  0.59589  0.14583  0.34338  1.0000
  H   H140      1.0  0.55809  0.14577  0.34463  1.0000
  H   H141      1.0  0.51403  0.12301  0.48521  1.0000
  H   H142      1.0  0.50464  0.15295  0.48642  1.0000
  H   H143      1.0  0.52315  0.19429  0.43273  1.0000
  H   H144      1.0  0.51636  0.22574  0.42963  1.0000
  H   H145      1.0  0.62121  0.11869  0.47692  1.0000
  H   H146      1.0  0.66025  0.14933  0.47232  1.0000
  H   H147      1.0  0.73786  0.19107  0.40643  1.0000
  H   H148      1.0  0.69978  0.15901  0.41018  1.0000
  H   H149      1.0  0.36694  0.95836  0.40931  1.0000
  H   H150      1.0  0.32863  0.92671  0.40541  1.0000
  C   C249      1.0  0.27683  0.50891  0.40905  1.0000
  C   C250      1.0  0.29869  0.51068  0.41320  1.0000
  H   H151      1.0  0.30650  0.51290  0.47413  1.0000
  C   C251      1.0  0.21201  0.50603  0.40120  1.0000
  C   C252      1.0  0.23181  0.50372  0.40154  1.0000
  H   H152      1.0  0.20351  0.50416  0.46004  1.0000
  C   C253      1.0  0.23955  0.49786  0.48582  1.0000
  C   C254      1.0  0.26608  0.51101  0.49268  1.0000
  H   H153      1.0  0.23329  0.47939  0.48583  1.0000
  H   H154      1.0  0.23255  0.50174  0.54484  1.0000
  H   H155      1.0  0.27094  0.50420  0.54999  1.0000
  H   H156      1.0  0.27228  0.52921  0.50493  1.0000
  C   C255      1.0  0.58054  0.88520  0.33815  1.0000
  C   C256      1.0  0.58102  0.85247  0.41165  1.0000
  C   C257      1.0  0.57924  0.87255  0.41578  1.0000
  H   H157      1.0  0.57703  0.87805  0.47670  1.0000
  C   C258      1.0  0.57815  0.77718  0.32514  1.0000
  C   C259      1.0  0.58390  0.79054  0.40386  1.0000
  C   C260      1.0  0.58621  0.81265  0.40418  1.0000
  H   H158      1.0  0.58576  0.78382  0.46270  1.0000
  C   C261      1.0  0.59207  0.82612  0.48845  1.0000
  C   C262      1.0  0.57891  0.83949  0.49530  1.0000
  H   H159      1.0  0.61053  0.83833  0.48846  1.0000
  H   H160      1.0  0.58819  0.81516  0.54748  1.0000
  H   H161      1.0  0.58573  0.85108  0.55259  1.0000
  H   H162      1.0  0.56071  0.82747  0.50755  1.0000
  C   C263      1.0  0.23736  0.81306  0.40838  1.0000
  C   C264      1.0  0.21729  0.79119  0.41211  1.0000
  H   H163      1.0  0.21170  0.78335  0.47293  1.0000
  C   C265      1.0  0.29929  0.87790  0.40188  1.0000
  C   C266      1.0  0.27718  0.85809  0.40172  1.0000
  H   H164      1.0  0.30592  0.88635  0.46085  1.0000
  C   C267      1.0  0.26358  0.85030  0.48569  1.0000
  C   C268      1.0  0.25022  0.82376  0.49230  1.0000
  H   H165      1.0  0.25136  0.85655  0.48538  1.0000
  H   H166      1.0  0.27446  0.85727  0.54496  1.0000
  H   H167      1.0  0.23854  0.81886  0.54934  1.0000
  H   H168      1.0  0.26223  0.81757  0.50486  1.0000
  C   C269      1.0  0.78456  0.60688  0.40942  1.0000
  C   C270      1.0  0.76252  0.60467  0.41350  1.0000
  H   H169      1.0  0.75469  0.60217  0.47437  1.0000
  C   C271      1.0  0.84997  0.61107  0.40171  1.0000
  C   C272      1.0  0.82993  0.61295  0.40208  1.0000
  H   H170      1.0  0.85852  0.61293  0.46059  1.0000
  C   C273      1.0  0.82201  0.61838  0.48649  1.0000
  C   C274      1.0  0.79548  0.60481  0.49302  1.0000
  H   H171      1.0  0.82796  0.63678  0.48693  1.0000
  H   H172      1.0  0.82917  0.61453  0.54543  1.0000
  H   H173      1.0  0.79045  0.61131  0.55047  1.0000
  H   H174      1.0  0.78959  0.58664  0.50487  1.0000
  C   C275      1.0  0.48401  0.22986  0.33855  1.0000
  C   C276      1.0  0.48306  0.26223  0.41205  1.0000
  C   C277      1.0  0.48526  0.24239  0.41614  1.0000
  H   H175      1.0  0.48776  0.23697  0.47702  1.0000
  C   C278      1.0  0.48421  0.33682  0.32546  1.0000
  C   C279      1.0  0.47887  0.32347  0.40432  1.0000
  C   C280      1.0  0.47699  0.30154  0.40470  1.0000
  H   H176      1.0  0.47701  0.33007  0.46320  1.0000
  C   C281      1.0  0.47155  0.28807  0.48910  1.0000
  C   C282      1.0  0.48512  0.27509  0.49565  1.0000
  H   H177      1.0  0.45315  0.27561  0.48953  1.0000
  H   H178      1.0  0.47540  0.29899  0.54804  1.0000
  H   H179      1.0  0.47862  0.26347  0.55309  1.0000
  H   H180      1.0  0.50329  0.28736  0.50751  1.0000
  C   C283      1.0  0.82780  0.30542  0.40877  1.0000
  C   C284      1.0  0.84763  0.32747  0.41243  1.0000
  H   H181      1.0  0.85313  0.33533  0.47319  1.0000
  C   C285      1.0  0.76657  0.23999  0.40240  1.0000
  C   C286      1.0  0.78850  0.26004  0.40227  1.0000
  H   H182      1.0  0.76006  0.23148  0.46143  1.0000
  C   C287      1.0  0.80210  0.26801  0.48637  1.0000
  C   C288      1.0  0.81506  0.29454  0.49265  1.0000
  H   H183      1.0  0.81457  0.26207  0.48648  1.0000
  H   H184      1.0  0.79127  0.26088  0.54556  1.0000
  H   H185      1.0  0.82677  0.29962  0.54983  1.0000
  H   H186      1.0  0.80280  0.30042  0.50480  1.0000
