data_image0
_chemical_formula_structural       C2NCNO2C2NCNO2C2NCNO2C2NCNO2NCHNCHNCHNCHNCHNCHNCHNCHC2NCNO2C2NCNO2C2NCNO2C2NCNO2C2NCNO2C2NCNO2C2NCNO2C2NCNO2NCHNCHNCHNCHNCHNCHNCHNCHNCHNCHCNCNCNCNCNCNCNCNCNCNCNCNCNCNCNCNCNCNCNCNCNCNCNCNCNCNCNCNCNCNCNCNCNCNCNCNCNCNCNCNCNCNCNCNCNCNCNCNCNCNCNCNCNCNCNCNCNCNCNCN2CHNCHNCHNCHC2NCNO2C2NCNO2C2NCNO2C2NCNO2C2NCNO2C2NCNO2C2NCNO2C2NCNO2NCHNCHNCHNCHNCHNCHNCHNCHC2NCNO2C2NCNO2C2NCNO2C2NCNO2C2NCNO2C2NCNO2C2NCNO2C2NCNO2C2NCNO2C2NCNO2
_chemical_formula_sum              "C180 N150 O60 H30"
_cell_length_a       43.4302
_cell_length_b       43.4302
_cell_length_c       14.847
_cell_angle_alpha    90
_cell_angle_beta     90
_cell_angle_gamma    90

_space_group_name_H-M_alt    "P 1"
_space_group_IT_number       1

loop_
  _space_group_symop_operation_xyz
  'x, y, z'

loop_
  _atom_site_type_symbol
  _atom_site_label
  _atom_site_symmetry_multiplicity
  _atom_site_fract_x
  _atom_site_fract_y
  _atom_site_fract_z
  _atom_site_occupancy
  C   C1        1.0  0.37628  0.05464  0.33220  1.0000
  C   C2        1.0  0.31538  0.03388  0.32406  1.0000
  N   N1        1.0  0.32297  0.06371  0.30954  1.0000
  C   C3        1.0  0.35194  0.07522  0.31142  1.0000
  N   N2        1.0  0.35607  0.10680  0.29378  1.0000
  O   O1        1.0  0.33985  0.12252  0.34664  1.0000
  O   O2        1.0  0.34781  0.11300  0.21479  1.0000
  C   C4        1.0  0.63428  0.95423  0.33105  1.0000
  C   C5        1.0  0.69521  0.97507  0.32592  1.0000
  N   N3        1.0  0.68777  0.94514  0.31249  1.0000
  C   C6        1.0  0.65881  0.93358  0.31308  1.0000
  N   N4        1.0  0.65490  0.90190  0.29697  1.0000
  O   O3        1.0  0.67052  0.88653  0.35225  1.0000
  O   O4        1.0  0.66396  0.89514  0.21912  1.0000
  C   C7        1.0  0.95502  0.37598  0.33174  1.0000
  C   C8        1.0  0.97580  0.31507  0.32400  1.0000
  N   N5        1.0  0.94600  0.32266  0.30897  1.0000
  C   C9        1.0  0.93449  0.35163  0.31064  1.0000
  N   N6        1.0  0.90294  0.35577  0.29246  1.0000
  O   O5        1.0  0.88711  0.33952  0.34494  1.0000
  O   O6        1.0  0.89691  0.34755  0.21332  1.0000
  C   C10       1.0  0.05543  0.63398  0.33154  1.0000
  C   C11       1.0  0.03464  0.69492  0.32644  1.0000
  N   N7        1.0  0.06458  0.68747  0.31342  1.0000
  C   C12       1.0  0.07613  0.65851  0.31408  1.0000
  N   N8        1.0  0.10784  0.65461  0.29845  1.0000
  O   O7        1.0  0.12311  0.67015  0.35415  1.0000
  O   O8        1.0  0.11476  0.66375  0.22081  1.0000
  N   N9        1.0  0.14251  0.52603  0.35604  1.0000
  C   C13       1.0  0.17177  0.51515  0.35939  1.0000
  H   H1        1.0  0.17573  0.49212  0.35222  1.0000
  N   N10       1.0  0.86729  0.48276  0.36564  1.0000
  C   C14       1.0  0.83804  0.49361  0.36960  1.0000
  H   H2        1.0  0.83402  0.51658  0.36118  1.0000
  N   N11       1.0  0.52642  0.86704  0.35604  1.0000
  C   C15       1.0  0.51556  0.83777  0.35956  1.0000
  H   H3        1.0  0.49253  0.83379  0.35233  1.0000
  N   N12       1.0  0.48315  0.14226  0.36590  1.0000
  C   C16       1.0  0.49401  0.17150  0.36956  1.0000
  H   H4        1.0  0.51700  0.17549  0.36149  1.0000
  N   N13       1.0  0.18996  0.08048  0.32334  1.0000
  C   C17       1.0  0.17638  0.10886  0.32040  1.0000
  H   H5        1.0  0.15656  0.11170  0.28443  1.0000
  N   N14       1.0  0.82032  0.92861  0.32646  1.0000
  C   C18       1.0  0.83377  0.90016  0.32348  1.0000
  H   H6        1.0  0.85338  0.89716  0.28664  1.0000
  N   N15       1.0  0.92915  0.18968  0.32456  1.0000
  C   C19       1.0  0.90077  0.17606  0.32201  1.0000
  H   H7        1.0  0.89794  0.15620  0.28625  1.0000
  N   N16       1.0  0.08101  0.82006  0.32524  1.0000
  C   C20       1.0  0.10948  0.83345  0.32180  1.0000
  H   H8        1.0  0.11245  0.85305  0.28488  1.0000
  C   C21       1.0  0.29472  0.57644  0.32824  1.0000
  C   C22       1.0  0.31920  0.63655  0.33949  1.0000
  N   N17       1.0  0.29358  0.63023  0.29110  1.0000
  C   C23       1.0  0.28105  0.60173  0.28164  1.0000
  N   N18       1.0  0.25452  0.59856  0.22739  1.0000
  O   O9        1.0  0.23322  0.61549  0.25606  1.0000
  O   O10       1.0  0.26026  0.60634  0.14769  1.0000
  C   C24       1.0  0.71539  0.43251  0.33354  1.0000
  C   C25       1.0  0.69072  0.37246  0.34268  1.0000
  N   N19       1.0  0.71666  0.37880  0.29577  1.0000
  C   C26       1.0  0.72931  0.40728  0.28730  1.0000
  N   N20       1.0  0.75621  0.41049  0.23466  1.0000
  O   O11       1.0  0.77729  0.39350  0.26439  1.0000
  O   O12       1.0  0.75100  0.40282  0.15457  1.0000
  C   C27       1.0  0.57698  0.71483  0.32978  1.0000
  C   C28       1.0  0.63704  0.69022  0.34136  1.0000
  N   N21       1.0  0.63080  0.71587  0.29298  1.0000
  C   C29       1.0  0.60233  0.72845  0.28334  1.0000
  N   N22       1.0  0.59925  0.75500  0.22912  1.0000
  O   O13       1.0  0.61620  0.77626  0.25795  1.0000
  O   O14       1.0  0.60708  0.74926  0.14947  1.0000
  C   C30       1.0  0.43306  0.29417  0.33209  1.0000
  C   C31       1.0  0.37296  0.31872  0.34087  1.0000
  N   N23       1.0  0.37937  0.29280  0.29395  1.0000
  C   C32       1.0  0.40789  0.28020  0.28571  1.0000
  N   N24       1.0  0.41120  0.25333  0.23302  1.0000
  O   O15       1.0  0.39422  0.23220  0.26256  1.0000
  O   O16       1.0  0.40358  0.25854  0.15288  1.0000
  C   C33       1.0  0.23285  0.95986  0.33605  1.0000
  C   C34       1.0  0.21282  0.89774  0.34110  1.0000
  N   N25       1.0  0.24243  0.90551  0.32380  1.0000
  C   C35       1.0  0.25348  0.93483  0.31983  1.0000
  N   N26       1.0  0.28497  0.93859  0.29901  1.0000
  O   O17       1.0  0.30169  0.92552  0.35650  1.0000
  O   O18       1.0  0.29107  0.92757  0.22285  1.0000
  C   C36       1.0  0.77753  0.04936  0.33887  1.0000
  C   C37       1.0  0.79752  0.11151  0.34296  1.0000
  N   N27       1.0  0.76785  0.10369  0.32666  1.0000
  C   C38       1.0  0.75681  0.07436  0.32320  1.0000
  N   N28       1.0  0.72524  0.07057  0.30356  1.0000
  O   O19       1.0  0.70876  0.08366  0.36160  1.0000
  O   O20       1.0  0.71881  0.08154  0.22757  1.0000
  C   C39       1.0  0.04978  0.23244  0.33620  1.0000
  C   C40       1.0  0.11187  0.21227  0.34058  1.0000
  N   N29       1.0  0.10414  0.24193  0.32386  1.0000
  C   C41       1.0  0.07485  0.25305  0.32023  1.0000
  N   N30       1.0  0.07115  0.28460  0.30007  1.0000
  O   O21       1.0  0.08429  0.30115  0.35784  1.0000
  O   O22       1.0  0.08215  0.29085  0.22398  1.0000
  C   C42       1.0  0.96028  0.77712  0.33889  1.0000
  C   C43       1.0  0.89809  0.79696  0.34352  1.0000
  N   N31       1.0  0.90595  0.76734  0.32678  1.0000
  C   C44       1.0  0.93530  0.75637  0.32305  1.0000
  N   N32       1.0  0.93917  0.72484  0.30292  1.0000
  O   O23       1.0  0.92614  0.70823  0.36078  1.0000
  O   O24       1.0  0.92816  0.71852  0.22689  1.0000
  N   N33       1.0  0.30751  0.45364  0.34445  1.0000
  C   C45       1.0  0.31773  0.42396  0.34245  1.0000
  H   H9        1.0  0.34031  0.41980  0.32792  1.0000
  N   N34       1.0  0.70255  0.55527  0.34938  1.0000
  C   C46       1.0  0.69231  0.58494  0.34680  1.0000
  H   H10       1.0  0.66968  0.58903  0.33273  1.0000
  N   N35       1.0  0.45412  0.70199  0.34504  1.0000
  C   C47       1.0  0.42444  0.69176  0.34296  1.0000
  H   H11       1.0  0.42029  0.66919  0.32824  1.0000
  N   N36       1.0  0.55576  0.30695  0.34890  1.0000
  C   C48       1.0  0.58543  0.31718  0.34643  1.0000
  H   H12       1.0  0.58953  0.33984  0.33273  1.0000
  N   N37       1.0  0.21240  0.27295  0.34810  1.0000
  C   C49       1.0  0.23257  0.29710  0.34793  1.0000
  H   H13       1.0  0.22412  0.31901  0.34619  1.0000
  N   N38       1.0  0.79756  0.73612  0.35121  1.0000
  C   C50       1.0  0.77741  0.71195  0.35092  1.0000
  H   H14       1.0  0.78588  0.69004  0.34947  1.0000
  N   N39       1.0  0.73662  0.21196  0.35042  1.0000
  C   C51       1.0  0.71245  0.23209  0.35031  1.0000
  H   H15       1.0  0.69054  0.22361  0.34882  1.0000
  N   N40       1.0  0.27346  0.79713  0.34889  1.0000
  C   C52       1.0  0.29758  0.77694  0.34854  1.0000
  H   H16       1.0  0.31951  0.78538  0.34685  1.0000
  N   N41       1.0  0.47550  0.99864  0.34972  1.0000
  C   C53       1.0  0.49558  0.97485  0.34835  1.0000
  H   H17       1.0  0.48733  0.95291  0.34352  1.0000
  N   N42       1.0  0.01093  0.47519  0.34944  1.0000
  C   C54       1.0  0.03472  0.49528  0.34819  1.0000
  H   H18       1.0  0.05665  0.48702  0.34327  1.0000
  C   C55       1.0  0.23315  0.04617  0.35297  1.0000
  N   N43       1.0  0.22226  0.01644  0.34965  1.0000
  C   C56       1.0  0.24180  0.99169  0.33744  1.0000
  N   N44       1.0  0.27236  0.99795  0.32908  1.0000
  C   C57       1.0  0.28388  0.02673  0.32879  1.0000
  N   N45       1.0  0.26373  0.04990  0.34053  1.0000
  C   C58       1.0  0.77738  0.96306  0.35664  1.0000
  N   N46       1.0  0.78822  0.99282  0.35316  1.0000
  C   C59       1.0  0.76863  0.01751  0.34049  1.0000
  N   N47       1.0  0.73811  0.01116  0.33162  1.0000
  C   C60       1.0  0.72665  0.98235  0.33155  1.0000
  N   N48       1.0  0.74683  0.95925  0.34379  1.0000
  C   C61       1.0  0.96347  0.23289  0.35343  1.0000
  N   N49       1.0  0.99319  0.22196  0.35010  1.0000
  C   C62       1.0  0.01796  0.24146  0.33775  1.0000
  N   N50       1.0  0.01174  0.27202  0.32917  1.0000
  C   C63       1.0  0.98296  0.28358  0.32887  1.0000
  N   N51       1.0  0.95979  0.26347  0.34080  1.0000
  C   C64       1.0  0.04657  0.77714  0.35623  1.0000
  N   N52       1.0  0.01680  0.78793  0.35279  1.0000
  C   C65       1.0  0.99214  0.76829  0.34039  1.0000
  N   N53       1.0  0.99852  0.73777  0.33182  1.0000
  C   C66       1.0  0.02735  0.72635  0.33180  1.0000
  N   N54       1.0  0.05042  0.74658  0.34369  1.0000
  C   C67       1.0  0.27838  0.54820  0.34177  1.0000
  N   N55       1.0  0.28911  0.51843  0.34686  1.0000
  C   C68       1.0  0.26933  0.49389  0.35937  1.0000
  N   N56       1.0  0.23881  0.50041  0.36629  1.0000
  C   C69       1.0  0.22746  0.52923  0.36462  1.0000
  N   N57       1.0  0.24778  0.55221  0.35272  1.0000
  C   C70       1.0  0.73168  0.46069  0.34830  1.0000
  N   N58       1.0  0.72101  0.49051  0.35184  1.0000
  C   C71       1.0  0.74074  0.51503  0.36518  1.0000
  N   N59       1.0  0.77116  0.50840  0.37457  1.0000
  C   C72       1.0  0.78243  0.47953  0.37449  1.0000
  N   N60       1.0  0.76217  0.45658  0.36155  1.0000
  C   C73       1.0  0.54871  0.73114  0.34303  1.0000
  N   N61       1.0  0.51894  0.72041  0.34801  1.0000
  C   C74       1.0  0.49436  0.74018  0.36010  1.0000
  N   N62       1.0  0.50086  0.77071  0.36672  1.0000
  C   C75       1.0  0.52968  0.78208  0.36509  1.0000
  N   N63       1.0  0.55268  0.76176  0.35360  1.0000
  C   C76       1.0  0.46120  0.27786  0.34719  1.0000
  N   N64       1.0  0.49102  0.28850  0.35071  1.0000
  C   C77       1.0  0.51551  0.26876  0.36436  1.0000
  N   N65       1.0  0.50886  0.23836  0.37406  1.0000
  C   C78       1.0  0.47998  0.22712  0.37399  1.0000
  N   N66       1.0  0.45705  0.24739  0.36075  1.0000
  C   C79       1.0  0.18240  0.16570  0.35285  1.0000
  N   N67       1.0  0.15235  0.17406  0.34731  1.0000
  C   C80       1.0  0.14363  0.20415  0.34365  1.0000
  N   N68       1.0  0.16628  0.22615  0.34459  1.0000
  C   C81       1.0  0.19693  0.21917  0.34986  1.0000
  N   N69       1.0  0.20390  0.18860  0.35466  1.0000
  C   C82       1.0  0.82753  0.84339  0.35605  1.0000
  N   N70       1.0  0.85758  0.83503  0.35045  1.0000
  C   C83       1.0  0.86630  0.80496  0.34665  1.0000
  N   N71       1.0  0.84366  0.78295  0.34748  1.0000
  C   C84       1.0  0.81300  0.78992  0.35279  1.0000
  N   N72       1.0  0.80603  0.82050  0.35777  1.0000
  C   C85       1.0  0.84394  0.18214  0.35447  1.0000
  N   N73       1.0  0.83562  0.15207  0.34918  1.0000
  C   C86       1.0  0.80555  0.14329  0.34581  1.0000
  N   N74       1.0  0.78351  0.16590  0.34679  1.0000
  C   C87       1.0  0.79044  0.19657  0.35181  1.0000
  N   N75       1.0  0.82100  0.20359  0.35632  1.0000
  C   C88       1.0  0.16625  0.82729  0.35443  1.0000
  N   N76       1.0  0.17466  0.85731  0.34857  1.0000
  C   C89       1.0  0.20474  0.86598  0.34447  1.0000
  N   N77       1.0  0.22670  0.84330  0.34526  1.0000
  C   C90       1.0  0.21968  0.81266  0.35083  1.0000
  N   N78       1.0  0.18910  0.80574  0.35611  1.0000
  C   C91       1.0  0.32851  0.66777  0.34624  1.0000
  N   N79       1.0  0.35874  0.67549  0.35136  1.0000
  C   C92       1.0  0.36813  0.70533  0.35515  1.0000
  N   N80       1.0  0.34600  0.72780  0.35462  1.0000
  C   C93       1.0  0.31524  0.72141  0.34969  1.0000
  N   N81       1.0  0.30734  0.69103  0.34480  1.0000
  C   C94       1.0  0.68137  0.34124  0.34880  1.0000
  N   N82       1.0  0.65114  0.33348  0.35388  1.0000
  C   C95       1.0  0.64178  0.30362  0.35730  1.0000
  N   N83       1.0  0.66393  0.28117  0.35652  1.0000
  C   C96       1.0  0.69468  0.28759  0.35167  1.0000
  N   N84       1.0  0.70255  0.31799  0.34715  1.0000
  C   C97       1.0  0.66826  0.68090  0.34831  1.0000
  N   N85       1.0  0.67600  0.65067  0.35367  1.0000
  C   C98       1.0  0.70585  0.64131  0.35759  1.0000
  N   N86       1.0  0.72831  0.66346  0.35697  1.0000
  C   C99       1.0  0.72189  0.69421  0.35184  1.0000
  N   N87       1.0  0.69151  0.70208  0.34680  1.0000
  C   C100      1.0  0.34173  0.32805  0.34674  1.0000
  N   N88       1.0  0.33400  0.35829  0.35156  1.0000
  C   C101      1.0  0.30415  0.36767  0.35485  1.0000
  N   N89       1.0  0.28168  0.34554  0.35416  1.0000
  C   C102      1.0  0.28809  0.31478  0.34952  1.0000
  N   N90       1.0  0.31848  0.30688  0.34515  1.0000
  C   C103      1.0  0.44460  0.10325  0.36426  1.0000
  N   N91       1.0  0.46676  0.08135  0.36451  1.0000
  C   C104      1.0  0.46033  0.05099  0.35535  1.0000
  N   N92       1.0  0.43035  0.04262  0.34486  1.0000
  C   C105      1.0  0.40732  0.06377  0.34273  1.0000
  N   N93       1.0  0.41511  0.09383  0.35294  1.0000
  C   C106      1.0  0.56507  0.90608  0.35517  1.0000
  N   N94       1.0  0.54308  0.92823  0.35623  1.0000
  C   C107      1.0  0.55030  0.95854  0.35004  1.0000
  N   N95       1.0  0.58039  0.96663  0.34204  1.0000
  C   C108      1.0  0.60312  0.94523  0.33913  1.0000
  N   N96       1.0  0.59478  0.91522  0.34628  1.0000
  C   C109      1.0  0.90633  0.44425  0.36396  1.0000
  N   N97       1.0  0.92822  0.46642  0.36422  1.0000
  C   C110      1.0  0.95859  0.46002  0.35501  1.0000
  N   N98       1.0  0.96697  0.43005  0.34447  1.0000
  C   C111      1.0  0.94585  0.40700  0.34231  1.0000
  N   N99       1.0  0.91578  0.41476  0.35257  1.0000
  C   C112      1.0  0.10351  0.56471  0.35532  1.0000
  N   N100      1.0  0.08135  0.54274  0.35625  1.0000
  C   C113      1.0  0.05104  0.54999  0.35007  1.0000
  N   N101      1.0  0.04297  0.58009  0.34222  1.0000
  C   C114      1.0  0.06439  0.60280  0.33945  1.0000
  N   N102      1.0  0.09439  0.59444  0.34657  1.0000
  N   N103      1.0  0.36881  0.02446  0.34527  1.0000
  C   C115      1.0  0.33967  0.01319  0.34096  1.0000
  H   H19       1.0  0.33572  0.99048  0.35433  1.0000
  N   N104      1.0  0.64164  0.98450  0.34325  1.0000
  C   C116      1.0  0.67078  0.99581  0.34030  1.0000
  H   H20       1.0  0.67458  0.01859  0.35295  1.0000
  N   N105      1.0  0.98519  0.36851  0.34522  1.0000
  C   C117      1.0  0.99648  0.33937  0.34098  1.0000
  H   H21       1.0  0.01916  0.33544  0.35485  1.0000
  N   N106      1.0  0.02515  0.64134  0.34327  1.0000
  C   C118      1.0  0.01386  0.67049  0.34047  1.0000
  H   H22       1.0  0.99104  0.67428  0.35241  1.0000
  C   C119      1.0  0.13487  0.55643  0.36220  1.0000
  C   C120      1.0  0.19601  0.53645  0.36842  1.0000
  N   N107      1.0  0.18834  0.56657  0.37554  1.0000
  C   C121      1.0  0.15925  0.57777  0.37384  1.0000
  N   N108      1.0  0.15504  0.60973  0.38269  1.0000
  O   O25       1.0  0.16966  0.62366  0.32209  1.0000
  O   O26       1.0  0.16490  0.61884  0.45761  1.0000
  C   C122      1.0  0.87501  0.45240  0.37252  1.0000
  C   C123      1.0  0.81386  0.47228  0.37955  1.0000
  N   N109      1.0  0.82162  0.44218  0.38745  1.0000
  C   C124      1.0  0.85076  0.43104  0.38553  1.0000
  N   N110      1.0  0.85527  0.39913  0.39504  1.0000
  O   O27       1.0  0.84022  0.38494  0.33588  1.0000
  O   O28       1.0  0.84595  0.39027  0.47080  1.0000
  C   C125      1.0  0.55681  0.87471  0.36215  1.0000
  C   C126      1.0  0.53688  0.81355  0.36860  1.0000
  N   N111      1.0  0.56700  0.82126  0.37571  1.0000
  C   C127      1.0  0.57817  0.85036  0.37388  1.0000
  N   N112      1.0  0.61013  0.85461  0.38274  1.0000
  O   O29       1.0  0.62408  0.83998  0.32220  1.0000
  O   O30       1.0  0.61925  0.84480  0.45771  1.0000
  C   C128      1.0  0.45278  0.13457  0.37267  1.0000
  C   C129      1.0  0.47270  0.19570  0.37927  1.0000
  N   N113      1.0  0.44259  0.18799  0.38712  1.0000
  C   C130      1.0  0.43143  0.15886  0.38536  1.0000
  N   N114      1.0  0.39950  0.15440  0.39474  1.0000
  O   O31       1.0  0.38537  0.16941  0.33538  1.0000
  O   O32       1.0  0.39062  0.16380  0.47038  1.0000
  C   C131      1.0  0.21695  0.07450  0.36701  1.0000
  C   C132      1.0  0.19168  0.13443  0.35901  1.0000
  N   N115      1.0  0.21808  0.12828  0.40391  1.0000
  C   C133      1.0  0.23106  0.09994  0.41175  1.0000
  N   N116      1.0  0.25838  0.09717  0.46272  1.0000
  O   O33       1.0  0.27902  0.11437  0.43140  1.0000
  O   O34       1.0  0.25369  0.10493  0.54302  1.0000
  C   C134      1.0  0.79352  0.93473  0.37088  1.0000
  C   C135      1.0  0.81839  0.87469  0.36238  1.0000
  N   N117      1.0  0.79219  0.88099  0.40808  1.0000
  C   C136      1.0  0.77943  0.90942  0.41625  1.0000
  N   N118      1.0  0.75227  0.91243  0.46786  1.0000
  O   O35       1.0  0.73141  0.89535  0.43715  1.0000
  O   O36       1.0  0.75714  0.90468  0.54807  1.0000
  C   C137      1.0  0.93512  0.21677  0.36770  1.0000
  C   C138      1.0  0.87521  0.19146  0.36030  1.0000
  N   N119      1.0  0.88136  0.21794  0.40477  1.0000
  C   C139      1.0  0.90970  0.23094  0.41233  1.0000
  N   N120      1.0  0.91248  0.25836  0.46287  1.0000
  O   O37       1.0  0.89526  0.27894  0.43129  1.0000
  O   O38       1.0  0.90475  0.25381  0.54326  1.0000
  C   C140      1.0  0.07487  0.79336  0.37020  1.0000
  C   C141      1.0  0.13494  0.81819  0.36108  1.0000
  N   N121      1.0  0.12865  0.79207  0.40722  1.0000
  C   C142      1.0  0.10021  0.77934  0.41567  1.0000
  N   N122      1.0  0.09722  0.75228  0.46775  1.0000
  O   O39       1.0  0.11428  0.73136  0.43734  1.0000
  O   O40       1.0  0.10501  0.75731  0.54785  1.0000
  N   N123      1.0  0.32092  0.58264  0.37548  1.0000
  C   C143      1.0  0.33419  0.61113  0.37994  1.0000
  H   H23       1.0  0.35345  0.61414  0.41834  1.0000
  N   N124      1.0  0.68887  0.42632  0.37923  1.0000
  C   C144      1.0  0.67549  0.39787  0.38247  1.0000
  H   H24       1.0  0.65607  0.39482  0.42012  1.0000
  N   N125      1.0  0.58309  0.68858  0.37694  1.0000
  C   C145      1.0  0.61156  0.67525  0.38149  1.0000
  H   H25       1.0  0.61450  0.65601  0.42001  1.0000
  N   N126      1.0  0.42678  0.32065  0.37784  1.0000
  C   C146      1.0  0.39829  0.33395  0.38104  1.0000
  H   H26       1.0  0.39520  0.35343  0.41841  1.0000
  N   N127      1.0  0.20300  0.95206  0.35291  1.0000
  C   C147      1.0  0.19227  0.92257  0.35533  1.0000
  H   H27       1.0  0.16956  0.91886  0.36921  1.0000
  N   N128      1.0  0.80743  0.05721  0.35479  1.0000
  C   C148      1.0  0.81815  0.08672  0.35670  1.0000
  H   H28       1.0  0.84089  0.09046  0.36994  1.0000
  N   N129      1.0  0.05754  0.20254  0.35249  1.0000
  C   C149      1.0  0.08701  0.19174  0.35456  1.0000
  H   H29       1.0  0.09069  0.16900  0.36807  1.0000
  N   N130      1.0  0.95237  0.80698  0.35522  1.0000
  C   C150      1.0  0.92285  0.81762  0.35744  1.0000
  H   H30       1.0  0.91907  0.84034  0.37090  1.0000
  C   C151      1.0  0.27786  0.46197  0.36204  1.0000
  C   C152      1.0  0.29677  0.39956  0.35772  1.0000
  N   N131      1.0  0.26738  0.40786  0.37585  1.0000
  C   C153      1.0  0.25686  0.43734  0.37958  1.0000
  N   N132      1.0  0.22551  0.44163  0.40143  1.0000
  O   O41       1.0  0.20836  0.42865  0.34482  1.0000
  O   O42       1.0  0.21956  0.43089  0.47804  1.0000
  C   C154      1.0  0.73226  0.54699  0.36644  1.0000
  C   C155      1.0  0.71328  0.60941  0.36093  1.0000
  N   N133      1.0  0.74274  0.60117  0.37835  1.0000
  C   C156      1.0  0.75331  0.57170  0.38254  1.0000
  N   N134      1.0  0.78476  0.56753  0.40323  1.0000
  O   O43       1.0  0.80162  0.58033  0.34556  1.0000
  O   O44       1.0  0.79105  0.57853  0.47928  1.0000
  C   C157      1.0  0.46245  0.73164  0.36277  1.0000
  C   C158      1.0  0.40002  0.71271  0.35821  1.0000
  N   N135      1.0  0.40832  0.74209  0.37649  1.0000
  C   C159      1.0  0.43781  0.75262  0.38035  1.0000
  N   N136      1.0  0.44208  0.78396  0.40235  1.0000
  O   O45       1.0  0.42913  0.80113  0.34577  1.0000
  O   O46       1.0  0.43132  0.78986  0.47895  1.0000
  C   C160      1.0  0.54747  0.27721  0.36561  1.0000
  C   C161      1.0  0.60989  0.29619  0.36043  1.0000
  N   N137      1.0  0.60164  0.26671  0.37750  1.0000
  C   C162      1.0  0.57217  0.25614  0.38150  1.0000
  N   N138      1.0  0.56800  0.22466  0.40180  1.0000
  O   O47       1.0  0.58081  0.20787  0.34396  1.0000
  O   O48       1.0  0.57898  0.21825  0.47780  1.0000
  C   C163      1.0  0.22055  0.24257  0.35028  1.0000
  C   C164      1.0  0.26464  0.29144  0.34950  1.0000
  N   N139      1.0  0.27275  0.26117  0.35171  1.0000
  C   C165      1.0  0.25283  0.23675  0.35236  1.0000
  N   N140      1.0  0.26497  0.20666  0.35504  1.0000
  O   O49       1.0  0.28190  0.20178  0.28795  1.0000
  O   O50       1.0  0.28077  0.20280  0.42500  1.0000
  C   C166      1.0  0.78939  0.76650  0.35302  1.0000
  C   C167      1.0  0.74533  0.71758  0.35194  1.0000
  N   N141      1.0  0.73720  0.74785  0.35378  1.0000
  C   C168      1.0  0.75711  0.77229  0.35454  1.0000
  N   N142      1.0  0.74494  0.80238  0.35672  1.0000
  O   O51       1.0  0.72815  0.80717  0.28929  1.0000
  O   O52       1.0  0.72900  0.80631  0.42636  1.0000
  C   C169      1.0  0.76700  0.22016  0.35226  1.0000
  C   C170      1.0  0.71805  0.26417  0.35159  1.0000
  N   N143      1.0  0.74832  0.27233  0.35347  1.0000
  C   C171      1.0  0.77277  0.25244  0.35404  1.0000
  N   N144      1.0  0.80285  0.26464  0.35633  1.0000
  O   O53       1.0  0.80762  0.28150  0.28906  1.0000
  O   O54       1.0  0.80676  0.28051  0.42612  1.0000
  C   C172      1.0  0.24306  0.78901  0.35103  1.0000
  C   C173      1.0  0.29190  0.74487  0.34985  1.0000
  N   N145      1.0  0.26162  0.73679  0.35201  1.0000
  C   C174      1.0  0.23722  0.75674  0.35285  1.0000
  N   N146      1.0  0.20711  0.74462  0.35540  1.0000
  O   O55       1.0  0.20223  0.72778  0.28815  1.0000
  O   O56       1.0  0.20324  0.72876  0.42520  1.0000
  C   C175      1.0  0.48399  0.02873  0.35544  1.0000
  C   C176      1.0  0.52736  0.98130  0.35213  1.0000
  N   N147      1.0  0.53590  0.01128  0.35792  1.0000
  C   C177      1.0  0.51597  0.03537  0.36017  1.0000
  N   N148      1.0  0.52785  0.06552  0.36668  1.0000
  O   O57       1.0  0.54514  0.07138  0.30109  1.0000
  O   O58       1.0  0.54316  0.06862  0.43787  1.0000
  C   C178      1.0  0.98084  0.48369  0.35518  1.0000
  C   C179      1.0  0.02827  0.52706  0.35205  1.0000
  N   N149      1.0  0.99829  0.53560  0.35785  1.0000
  C   C180      1.0  0.97420  0.51567  0.36002  1.0000
  N   N150      1.0  0.94405  0.52753  0.36656  1.0000
  O   O59       1.0  0.93819  0.54485  0.30102  1.0000
  O   O60       1.0  0.94094  0.54282  0.43780  1.0000
