data_image0
_chemical_formula_structural       C3NC3NC5NC5NC20H18N4C3NC3NC5NC5NC20H18N4C3NC3NC5NC5NC20H18N4CN2CHCN2CHCN2CHCN2CHCN2CHCN2CHC8H8C8H8C8H8C3NH3CHC3NH3CHC3NH3CHC3NH3CHC3NH3CHC3NH3CH
_chemical_formula_sum              "C168 N42 H108"
_cell_length_a       50.4514
_cell_length_b       50.4514
_cell_length_c       14.8271
_cell_angle_alpha    90.0974
_cell_angle_beta     89.9026
_cell_angle_gamma    120

_space_group_name_H-M_alt    "P 1"
_space_group_IT_number       1

loop_
  _space_group_symop_operation_xyz
  'x, y, z'

loop_
  _atom_site_type_symbol
  _atom_site_label
  _atom_site_symmetry_multiplicity
  _atom_site_fract_x
  _atom_site_fract_y
  _atom_site_fract_z
  _atom_site_occupancy
  C   C1        1.0  0.05274  0.65424  0.32266  1.0000
  C   C2        1.0  0.02108  0.63845  0.32230  1.0000
  C   C3        1.0  0.01098  0.60714  0.31871  1.0000
  N   N1        1.0  0.03685  0.60518  0.31676  1.0000
  C   C4        1.0  0.06277  0.63297  0.31937  1.0000
  C   C5        1.0  0.09396  0.64034  0.31877  1.0000
  C   C6        1.0  0.10379  0.61837  0.31723  1.0000
  N   N2        1.0  0.08644  0.58748  0.31711  1.0000
  C   C7        1.0  0.10369  0.57382  0.31670  1.0000
  C   C8        1.0  0.13411  0.59758  0.31618  1.0000
  C   C9        1.0  0.13417  0.62493  0.31688  1.0000
  C   C10       1.0  0.09376  0.54200  0.31778  1.0000
  C   C11       1.0  0.06255  0.51824  0.31876  1.0000
  N   N3        1.0  0.03668  0.52021  0.31675  1.0000
  C   C12       1.0  0.01076  0.49242  0.31943  1.0000
  C   C13       1.0  0.02079  0.47115  0.32287  1.0000
  C   C14       1.0  0.05245  0.48694  0.32252  1.0000
  C   C15       1.0  0.97957  0.48505  0.31878  1.0000
  C   C16       1.0  0.96975  0.50701  0.31715  1.0000
  N   N4        1.0  0.98709  0.53791  0.31701  1.0000
  C   C17       1.0  0.96984  0.55156  0.31662  1.0000
  C   C18       1.0  0.93942  0.52780  0.31618  1.0000
  C   C19       1.0  0.93936  0.50045  0.31690  1.0000
  C   C20       1.0  0.97977  0.58338  0.31778  1.0000
  C   C21       1.0  0.95641  0.59154  0.32098  1.0000
  C   C22       1.0  0.90319  0.59796  0.32612  1.0000
  C   C23       1.0  0.91758  0.59881  0.24349  1.0000
  C   C24       1.0  0.94376  0.59556  0.24071  1.0000
  C   C25       1.0  0.95616  0.45356  0.32319  1.0000
  C   C26       1.0  0.90339  0.39392  0.33478  1.0000
  C   C27       1.0  0.91480  0.40793  0.25003  1.0000
  C   C28       1.0  0.94079  0.43742  0.24434  1.0000
  C   C29       1.0  0.11711  0.53383  0.32106  1.0000
  C   C30       1.0  0.12962  0.52947  0.24081  1.0000
  C   C31       1.0  0.15572  0.52609  0.24357  1.0000
  C   C32       1.0  0.17010  0.52705  0.32616  1.0000
  C   C33       1.0  0.11738  0.67182  0.32312  1.0000
  C   C34       1.0  0.13283  0.68790  0.24429  1.0000
  C   C35       1.0  0.17031  0.73135  0.33479  1.0000
  C   C36       1.0  0.15890  0.71734  0.25001  1.0000
  H   H1        1.0  0.17007  0.72795  0.19192  1.0000
  H   H2        1.0  0.12588  0.67779  0.18233  1.0000
  H   H3        1.0  0.06603  0.67754  0.32512  1.0000
  H   H4        1.0  0.00785  0.64852  0.32460  1.0000
  H   H5        1.0  0.03682  0.58619  0.31336  1.0000
  H   H6        1.0  0.03672  0.53919  0.31307  1.0000
  H   H7        1.0  0.15352  0.64599  0.31735  1.0000
  H   H8        1.0  0.15340  0.59577  0.31604  1.0000
  H   H9        1.0  0.12053  0.52992  0.17956  1.0000
  H   H10       1.0  0.16467  0.52370  0.18413  1.0000
  H   H11       1.0  0.06568  0.47687  0.32492  1.0000
  H   H12       1.0  0.00750  0.44785  0.32544  1.0000
  H   H13       1.0  0.92013  0.52961  0.31626  1.0000
  H   H14       1.0  0.92002  0.47939  0.31752  1.0000
  H   H15       1.0  0.94778  0.44749  0.18238  1.0000
  H   H16       1.0  0.90374  0.39723  0.19191  1.0000
  H   H17       1.0  0.95286  0.59501  0.17943  1.0000
  H   H18       1.0  0.90853  0.60094  0.18403  1.0000
  N   N5        1.0  0.87830  0.36671  0.34655  1.0000
  N   N6        1.0  0.19577  0.52537  0.32286  1.0000
  N   N7        1.0  0.19554  0.75845  0.34661  1.0000
  N   N8        1.0  0.87740  0.59940  0.32284  1.0000
  C   C37       1.0  0.44459  0.48585  0.32188  1.0000
  C   C38       1.0  0.46038  0.46998  0.32142  1.0000
  C   C39       1.0  0.49169  0.49119  0.31780  1.0000
  N   N9        1.0  0.49365  0.51902  0.31587  1.0000
  C   C40       1.0  0.46585  0.51714  0.31856  1.0000
  C   C41       1.0  0.45848  0.54096  0.31799  1.0000
  C   C42       1.0  0.48044  0.57275  0.31641  1.0000
  N   N10       1.0  0.51134  0.58631  0.31625  1.0000
  C   C43       1.0  0.52498  0.61721  0.31583  1.0000
  C   C44       1.0  0.50123  0.62387  0.31531  1.0000
  C   C45       1.0  0.47388  0.59658  0.31610  1.0000
  C   C46       1.0  0.55680  0.63910  0.31693  1.0000
  C   C47       1.0  0.58057  0.63166  0.31785  1.0000
  N   N11       1.0  0.57861  0.60382  0.31582  1.0000
  C   C48       1.0  0.60640  0.60570  0.31852  1.0000
  C   C49       1.0  0.62766  0.63700  0.32194  1.0000
  C   C50       1.0  0.61187  0.65286  0.32157  1.0000
  C   C51       1.0  0.61378  0.58189  0.31786  1.0000
  C   C52       1.0  0.59182  0.55010  0.31627  1.0000
  N   N12       1.0  0.56092  0.53654  0.31614  1.0000
  C   C53       1.0  0.54727  0.50564  0.31576  1.0000
  C   C54       1.0  0.57103  0.49898  0.31533  1.0000
  C   C55       1.0  0.59838  0.52627  0.31599  1.0000
  C   C56       1.0  0.51546  0.48374  0.31680  1.0000
  C   C57       1.0  0.50730  0.45222  0.32003  1.0000
  C   C58       1.0  0.50086  0.39259  0.32517  1.0000
  C   C59       1.0  0.50001  0.40606  0.24253  1.0000
  C   C60       1.0  0.50324  0.43547  0.23975  1.0000
  C   C61       1.0  0.64526  0.58997  0.32237  1.0000
  C   C62       1.0  0.70491  0.59686  0.33432  1.0000
  C   C63       1.0  0.69094  0.59417  0.24949  1.0000
  C   C64       1.0  0.66145  0.59067  0.24363  1.0000
  C   C65       1.0  0.56497  0.67062  0.32018  1.0000
  C   C66       1.0  0.56934  0.68741  0.23992  1.0000
  C   C67       1.0  0.57272  0.71689  0.24266  1.0000
  C   C68       1.0  0.57174  0.73040  0.32523  1.0000
  C   C69       1.0  0.42699  0.53289  0.32246  1.0000
  C   C70       1.0  0.41088  0.53217  0.24369  1.0000
  C   C71       1.0  0.36747  0.52631  0.33438  1.0000
  C   C72       1.0  0.38146  0.52885  0.24955  1.0000
  H   H19       1.0  0.37081  0.52930  0.19150  1.0000
  H   H20       1.0  0.42097  0.53528  0.18170  1.0000
  H   H21       1.0  0.42128  0.47583  0.32438  1.0000
  H   H22       1.0  0.45031  0.44667  0.32375  1.0000
  H   H23       1.0  0.51263  0.53797  0.31242  1.0000
  H   H24       1.0  0.55963  0.58487  0.31226  1.0000
  H   H25       1.0  0.45282  0.59486  0.31658  1.0000
  H   H26       1.0  0.50303  0.64497  0.31525  1.0000
  H   H27       1.0  0.56890  0.67780  0.17868  1.0000
  H   H28       1.0  0.57511  0.72817  0.18321  1.0000
  H   H29       1.0  0.62194  0.67617  0.32401  1.0000
  H   H30       1.0  0.65096  0.64702  0.32451  1.0000
  H   H31       1.0  0.56923  0.47788  0.31520  1.0000
  H   H32       1.0  0.61945  0.52800  0.31651  1.0000
  H   H33       1.0  0.65141  0.58751  0.18163  1.0000
  H   H34       1.0  0.70167  0.59375  0.19144  1.0000
  H   H35       1.0  0.50378  0.44505  0.17848  1.0000
  H   H36       1.0  0.49783  0.39479  0.18308  1.0000
  N   N13       1.0  0.73210  0.59898  0.34625  1.0000
  N   N14       1.0  0.57342  0.75775  0.32192  1.0000
  N   N15       1.0  0.34036  0.52442  0.34630  1.0000
  N   N16       1.0  0.49941  0.36535  0.32190  1.0000
  C   C73       1.0  0.61296  0.04608  0.32140  1.0000
  C   C74       1.0  0.62883  0.07774  0.32106  1.0000
  C   C75       1.0  0.60764  0.08785  0.31738  1.0000
  N   N17       1.0  0.57980  0.06197  0.31533  1.0000
  C   C76       1.0  0.58167  0.03605  0.31797  1.0000
  C   C77       1.0  0.55785  0.00486  0.31726  1.0000
  C   C78       1.0  0.52606  0.99504  0.31570  1.0000
  N   N18       1.0  0.51251  0.01239  0.31564  1.0000
  C   C79       1.0  0.48161  0.99514  0.31527  1.0000
  C   C80       1.0  0.47494  0.96472  0.31477  1.0000
  C   C81       1.0  0.50223  0.96465  0.31540  1.0000
  C   C82       1.0  0.45972  0.00507  0.31645  1.0000
  C   C83       1.0  0.46717  0.03628  0.31738  1.0000
  N   N19       1.0  0.49501  0.06215  0.31531  1.0000
  C   C84       1.0  0.49313  0.08807  0.31800  1.0000
  C   C85       1.0  0.46184  0.07805  0.32144  1.0000
  C   C86       1.0  0.44597  0.04639  0.32111  1.0000
  C   C87       1.0  0.51695  0.11926  0.31734  1.0000
  C   C88       1.0  0.54874  0.12908  0.31581  1.0000
  N   N20       1.0  0.56229  0.11174  0.31571  1.0000
  C   C89       1.0  0.59319  0.12898  0.31535  1.0000
  C   C90       1.0  0.59986  0.15941  0.31486  1.0000
  C   C91       1.0  0.57257  0.15947  0.31549  1.0000
  C   C92       1.0  0.61508  0.11906  0.31647  1.0000
  C   C93       1.0  0.64660  0.14241  0.31978  1.0000
  C   C94       1.0  0.70623  0.19563  0.32528  1.0000
  C   C95       1.0  0.69282  0.18126  0.24257  1.0000
  C   C96       1.0  0.66341  0.15507  0.23961  1.0000
  C   C97       1.0  0.50888  0.14267  0.32179  1.0000
  C   C98       1.0  0.50196  0.19542  0.33359  1.0000
  C   C99       1.0  0.50466  0.18404  0.24879  1.0000
  C   C100      1.0  0.50815  0.15805  0.24299  1.0000
  C   C101      1.0  0.42819  0.98173  0.31984  1.0000
  C   C102      1.0  0.41136  0.96915  0.23971  1.0000
  C   C103      1.0  0.38188  0.94307  0.24264  1.0000
  C   C104      1.0  0.36842  0.92871  0.32532  1.0000
  C   C105      1.0  0.56590  0.98144  0.32171  1.0000
  C   C106      1.0  0.56660  0.96596  0.24292  1.0000
  C   C107      1.0  0.57248  0.92851  0.33356  1.0000
  C   C108      1.0  0.56995  0.93989  0.24874  1.0000
  H   H37       1.0  0.56950  0.92874  0.19067  1.0000
  H   H38       1.0  0.56352  0.97291  0.18093  1.0000
  H   H39       1.0  0.62298  0.03280  0.32393  1.0000
  H   H40       1.0  0.65214  0.09098  0.32351  1.0000
  H   H41       1.0  0.56085  0.06201  0.31173  1.0000
  H   H42       1.0  0.51395  0.06212  0.31175  1.0000
  H   H43       1.0  0.50394  0.94531  0.31587  1.0000
  H   H44       1.0  0.45383  0.94543  0.31469  1.0000
  H   H45       1.0  0.42091  0.97825  0.17840  1.0000
  H   H46       1.0  0.37055  0.93408  0.18327  1.0000
  H   H47       1.0  0.42266  0.03315  0.32357  1.0000
  H   H48       1.0  0.45182  0.09133  0.32401  1.0000
  H   H49       1.0  0.62096  0.17870  0.31471  1.0000
  H   H50       1.0  0.57085  0.17881  0.31592  1.0000
  H   H51       1.0  0.51134  0.15110  0.18101  1.0000
  H   H52       1.0  0.50510  0.19514  0.19072  1.0000
  H   H53       1.0  0.65387  0.14599  0.17829  1.0000
  H   H54       1.0  0.70412  0.19031  0.18318  1.0000
  N   N21       1.0  0.49984  0.22051  0.34546  1.0000
  N   N22       1.0  0.34108  0.90303  0.32220  1.0000
  N   N23       1.0  0.57437  0.90330  0.34545  1.0000
  N   N24       1.0  0.73348  0.22142  0.32218  1.0000
  C   C109      1.0  0.29145  0.51841  0.32654  1.0000
  N   N25       1.0  0.27752  0.52829  0.26773  1.0000
  N   N26       1.0  0.25258  0.52921  0.28587  1.0000
  C   C110      1.0  0.31757  0.51866  0.29493  1.0000
  H   H55       1.0  0.31874  0.51481  0.22968  1.0000
  C   C111      1.0  0.58040  0.86040  0.32562  1.0000
  N   N27       1.0  0.57051  0.83653  0.26681  1.0000
  N   N28       1.0  0.56960  0.81068  0.28495  1.0000
  C   C112      1.0  0.58013  0.88622  0.29404  1.0000
  H   H56       1.0  0.58400  0.89120  0.22881  1.0000
  C   C113      1.0  0.23844  0.80735  0.32662  1.0000
  N   N29       1.0  0.26227  0.82126  0.26766  1.0000
  N   N30       1.0  0.28812  0.84622  0.28561  1.0000
  C   C114      1.0  0.21259  0.78124  0.29517  1.0000
  H   H57       1.0  0.20755  0.78008  0.22998  1.0000
  C   C115      1.0  0.78121  0.60543  0.32646  1.0000
  N   N31       1.0  0.79533  0.59567  0.26768  1.0000
  N   N32       1.0  0.82038  0.59502  0.28584  1.0000
  C   C116      1.0  0.75498  0.60489  0.29486  1.0000
  H   H58       1.0  0.75383  0.60872  0.22965  1.0000
  C   C117      1.0  0.49339  0.26313  0.32561  1.0000
  N   N33       1.0  0.50316  0.28696  0.26683  1.0000
  N   N34       1.0  0.50380  0.31268  0.28496  1.0000
  C   C118      1.0  0.49393  0.23742  0.29403  1.0000
  H   H59       1.0  0.49013  0.23238  0.22881  1.0000
  C   C119      1.0  0.83569  0.31761  0.32648  1.0000
  N   N35       1.0  0.81191  0.30351  0.26755  1.0000
  N   N36       1.0  0.78616  0.27844  0.28553  1.0000
  C   C120      1.0  0.86142  0.34385  0.29505  1.0000
  H   H60       1.0  0.86650  0.34505  0.22984  1.0000
  C   C121      1.0  0.94235  0.59105  0.40393  1.0000
  C   C122      1.0  0.91616  0.59421  0.40644  1.0000
  C   C123      1.0  0.94500  0.43944  0.40777  1.0000
  C   C124      1.0  0.91899  0.41003  0.41328  1.0000
  C   C125      1.0  0.15728  0.53116  0.40644  1.0000
  C   C126      1.0  0.13119  0.53449  0.40396  1.0000
  C   C127      1.0  0.12853  0.68596  0.40773  1.0000
  C   C128      1.0  0.15462  0.71532  0.41326  1.0000
  H   H61       1.0  0.16253  0.72467  0.47564  1.0000
  H   H62       1.0  0.11840  0.67451  0.46607  1.0000
  H   H63       1.0  0.12327  0.53865  0.46285  1.0000
  H   H64       1.0  0.16737  0.53285  0.46747  1.0000
  H   H65       1.0  0.95509  0.45093  0.46611  1.0000
  H   H66       1.0  0.91111  0.40066  0.47563  1.0000
  H   H67       1.0  0.90605  0.59256  0.46750  1.0000
  H   H68       1.0  0.95031  0.58705  0.46286  1.0000
  C   C129      1.0  0.50778  0.43875  0.40300  1.0000
  C   C130      1.0  0.50466  0.40941  0.40548  1.0000
  C   C131      1.0  0.65934  0.59301  0.40703  1.0000
  C   C132      1.0  0.68875  0.59641  0.41271  1.0000
  C   C133      1.0  0.56763  0.71355  0.40552  1.0000
  C   C134      1.0  0.56432  0.68414  0.40307  1.0000
  C   C135      1.0  0.41289  0.52999  0.40712  1.0000
  C   C136      1.0  0.38352  0.52672  0.41278  1.0000
  H   H69       1.0  0.37419  0.52532  0.47519  1.0000
  H   H70       1.0  0.42436  0.53138  0.46542  1.0000
  H   H71       1.0  0.56011  0.67211  0.46196  1.0000
  H   H72       1.0  0.56591  0.72200  0.46653  1.0000
  H   H73       1.0  0.64781  0.59163  0.46532  1.0000
  H   H74       1.0  0.69807  0.59793  0.47512  1.0000
  H   H75       1.0  0.50627  0.40100  0.46655  1.0000
  H   H76       1.0  0.51182  0.45079  0.46190  1.0000
  C   C137      1.0  0.66002  0.15645  0.40283  1.0000
  C   C138      1.0  0.68937  0.18264  0.40550  1.0000
  C   C139      1.0  0.50585  0.15381  0.40642  1.0000
  C   C140      1.0  0.50240  0.17980  0.41202  1.0000
  C   C141      1.0  0.38532  0.94159  0.40550  1.0000
  C   C142      1.0  0.41474  0.96767  0.40282  1.0000
  C   C143      1.0  0.56882  0.97033  0.40635  1.0000
  C   C144      1.0  0.57206  0.94422  0.41197  1.0000
  H   H77       1.0  0.57348  0.93635  0.47437  1.0000
  H   H78       1.0  0.56743  0.98047  0.46465  1.0000
  H   H79       1.0  0.42680  0.97561  0.46165  1.0000
  H   H80       1.0  0.37693  0.93149  0.46656  1.0000
  H   H81       1.0  0.50718  0.14370  0.46473  1.0000
  H   H82       1.0  0.50087  0.18767  0.47441  1.0000
  H   H83       1.0  0.69773  0.19272  0.46662  1.0000
  H   H84       1.0  0.64795  0.14847  0.46168  1.0000
  C   C145      1.0  0.23792  0.52033  0.36652  1.0000
  C   C146      1.0  0.25088  0.50984  0.43184  1.0000
  C   C147      1.0  0.27751  0.50809  0.41280  1.0000
  N   N37       1.0  0.28760  0.49590  0.47675  1.0000
  H   H85       1.0  0.27682  0.48845  0.53378  1.0000
  H   H86       1.0  0.30394  0.49156  0.46494  1.0000
  H   H87       1.0  0.24032  0.50254  0.49319  1.0000
  C   C148      1.0  0.21148  0.52149  0.38452  1.0000
  H   H88       1.0  0.20415  0.51860  0.44793  1.0000
  C   C149      1.0  0.57848  0.80498  0.36559  1.0000
  C   C150      1.0  0.58898  0.82850  0.43090  1.0000
  C   C151      1.0  0.59073  0.85686  0.41187  1.0000
  N   N38       1.0  0.60292  0.87920  0.47583  1.0000
  H   H89       1.0  0.61037  0.87593  0.53286  1.0000
  H   H90       1.0  0.60726  0.89987  0.46403  1.0000
  H   H91       1.0  0.59628  0.82530  0.49225  1.0000
  C   C152      1.0  0.57732  0.77740  0.38357  1.0000
  H   H92       1.0  0.58023  0.77304  0.44697  1.0000
  C   C153      1.0  0.29388  0.86091  0.36620  1.0000
  C   C154      1.0  0.27041  0.84798  0.43167  1.0000
  C   C155      1.0  0.24204  0.82135  0.41284  1.0000
  N   N39       1.0  0.21975  0.81129  0.47693  1.0000
  H   H93       1.0  0.22311  0.82197  0.53420  1.0000
  H   H94       1.0  0.19913  0.79478  0.46566  1.0000
  H   H95       1.0  0.27365  0.85859  0.49296  1.0000
  C   C156      1.0  0.32147  0.88737  0.38399  1.0000
  H   H96       1.0  0.32587  0.89476  0.44734  1.0000
  C   C157      1.0  0.83498  0.60407  0.36647  1.0000
  C   C158      1.0  0.82183  0.61445  0.43175  1.0000
  C   C159      1.0  0.79506  0.61591  0.41270  1.0000
  N   N40       1.0  0.78477  0.62801  0.47661  1.0000
  H   H97       1.0  0.79550  0.63558  0.53364  1.0000
  H   H98       1.0  0.76833  0.63216  0.46478  1.0000
  H   H99       1.0  0.83233  0.62187  0.49309  1.0000
  C   C160      1.0  0.86155  0.60318  0.38448  1.0000
  H   H100      1.0  0.86884  0.60619  0.44789  1.0000
  C   C161      1.0  0.49472  0.31831  0.36555  1.0000
  C   C162      1.0  0.48432  0.29483  0.43082  1.0000
  C   C163      1.0  0.48286  0.26659  0.41180  1.0000
  N   N41       1.0  0.47074  0.24425  0.47568  1.0000
  H   H101      1.0  0.46314  0.24746  0.53267  1.0000
  H   H102      1.0  0.46660  0.22364  0.46387  1.0000
  H   H103      1.0  0.47687  0.29797  0.49212  1.0000
  C   C164      1.0  0.49560  0.34578  0.38353  1.0000
  H   H104      1.0  0.49260  0.35013  0.44694  1.0000
  C   C165      1.0  0.78049  0.26380  0.36611  1.0000
  C   C166      1.0  0.80392  0.27693  0.43153  1.0000
  C   C167      1.0  0.83217  0.30371  0.41267  1.0000
  N   N42       1.0  0.85445  0.31398  0.47673  1.0000
  H   H105      1.0  0.85120  0.30323  0.53372  1.0000
  H   H106      1.0  0.87507  0.33044  0.46504  1.0000
  H   H107      1.0  0.80073  0.26640  0.49284  1.0000
  C   C168      1.0  0.75300  0.23723  0.38394  1.0000
  H   H108      1.0  0.74860  0.22991  0.44732  1.0000
