data_image0
_chemical_formula_structural       C3OHOHNC3OHOHNC3OHOHNC3OHOHNC3O2H2NC3O2H2NC3O2H2NC3O2H2NC3O2H2NCOHC3OHOHNC3OHOHNC2OHNC3OHOHNC3OHOHNCNCNCNC3H3CNCNCNC3H3CNCNCNC3H3CNCNCNC3H3CNC3HCNCNCNC3H3CNC3HCNCNCNC3H3CNCNCNC3H3CNCNCNC3H3C3O2H2NC3O2H2NC3O2H2NC3O2H2NC3OHOHNC3OHOHNC3OHOHNC3OHOHNC3OHOHNC2OHNC3O2H2NC3O2H2NCOHC3O2H2NC3O2H2NC3OHOHNC3OHOHNC3O2H2NCNCNCNC2H2CN2CH2CN2CH2CNCNCNC2H2C3O2H2NC3O2H2NC3OHOHNC2OHNCOHCHCHCOHC2OHN
_chemical_formula_sum              "C180 O72 H108 N72"
_cell_length_a       60.5463
_cell_length_b       60.5463
_cell_length_c       14.4878
_cell_angle_alpha    90
_cell_angle_beta     90
_cell_angle_gamma    120

_space_group_name_H-M_alt    "P 1"
_space_group_IT_number       1

loop_
  _space_group_symop_operation_xyz
  'x, y, z'

loop_
  _atom_site_type_symbol
  _atom_site_label
  _atom_site_symmetry_multiplicity
  _atom_site_fract_x
  _atom_site_fract_y
  _atom_site_fract_z
  _atom_site_occupancy
  C   C1        1.0  0.28362  0.48444  0.36395  1.0000
  C   C2        1.0  0.27068  0.48447  0.28252  1.0000
  C   C3        1.0  0.24715  0.48424  0.28684  1.0000
  O   O1        1.0  0.23622  0.48605  0.20722  1.0000
  H   H1        1.0  0.22617  0.46860  0.18317  1.0000
  O   O2        1.0  0.28153  0.48617  0.19856  1.0000
  H   H2        1.0  0.27589  0.46856  0.17941  1.0000
  N   N1        1.0  0.30723  0.48766  0.35795  1.0000
  C   C4        1.0  0.57744  0.82569  0.36398  1.0000
  C   C5        1.0  0.57740  0.81273  0.28253  1.0000
  C   C6        1.0  0.57764  0.78944  0.28682  1.0000
  O   O3        1.0  0.57582  0.77670  0.20720  1.0000
  H   H3        1.0  0.59327  0.78409  0.18316  1.0000
  O   O4        1.0  0.57570  0.82188  0.19858  1.0000
  H   H4        1.0  0.59331  0.83386  0.17944  1.0000
  N   N2        1.0  0.57421  0.84608  0.35801  1.0000
  C   C7        1.0  0.23617  0.77825  0.36401  1.0000
  C   C8        1.0  0.24912  0.79119  0.28257  1.0000
  C   C9        1.0  0.27242  0.81473  0.28688  1.0000
  O   O5        1.0  0.28514  0.82566  0.20725  1.0000
  H   H5        1.0  0.27773  0.83571  0.18325  1.0000
  O   O6        1.0  0.23995  0.78036  0.19861  1.0000
  H   H6        1.0  0.22797  0.78599  0.17956  1.0000
  N   N3        1.0  0.21578  0.75463  0.35803  1.0000
  C   C10       1.0  0.48738  0.23323  0.36396  1.0000
  C   C11       1.0  0.48742  0.24620  0.28252  1.0000
  C   C12       1.0  0.48718  0.26949  0.28684  1.0000
  O   O7        1.0  0.48901  0.28224  0.20722  1.0000
  H   H7        1.0  0.47155  0.27484  0.18317  1.0000
  O   O8        1.0  0.48911  0.23705  0.19856  1.0000
  H   H8        1.0  0.47151  0.22508  0.17941  1.0000
  N   N4        1.0  0.49061  0.21284  0.35796  1.0000
  C   C13       1.0  0.15553  0.61458  0.37106  1.0000
  C   C14       1.0  0.15574  0.60334  0.28560  1.0000
  C   C15       1.0  0.15553  0.57986  0.28325  1.0000
  O   O9        1.0  0.15395  0.61394  0.20509  1.0000
  O   O10       1.0  0.15393  0.56864  0.20014  1.0000
  H   H9        1.0  0.17138  0.62370  0.18055  1.0000
  H   H10       1.0  0.17154  0.57395  0.18207  1.0000
  N   N5        1.0  0.15246  0.63488  0.37544  1.0000
  C   C16       1.0  0.44729  0.56749  0.37096  1.0000
  C   C17       1.0  0.45854  0.57893  0.28550  1.0000
  C   C18       1.0  0.48201  0.60219  0.28315  1.0000
  O   O11       1.0  0.44794  0.56654  0.20500  1.0000
  O   O12       1.0  0.49324  0.61181  0.20005  1.0000
  H   H11       1.0  0.43818  0.57420  0.18044  1.0000
  H   H12       1.0  0.48793  0.62411  0.18195  1.0000
  N   N6        1.0  0.42699  0.54411  0.37535  1.0000
  C   C19       1.0  0.49439  0.90632  0.37106  1.0000
  C   C20       1.0  0.48294  0.90610  0.28560  1.0000
  C   C21       1.0  0.45968  0.90633  0.28325  1.0000
  O   O13       1.0  0.49533  0.90790  0.20510  1.0000
  O   O14       1.0  0.45006  0.90792  0.20014  1.0000
  H   H13       1.0  0.48766  0.89046  0.18055  1.0000
  H   H14       1.0  0.43776  0.89031  0.18207  1.0000
  N   N7        1.0  0.51777  0.90939  0.37544  1.0000
  C   C22       1.0  0.61754  0.49146  0.37107  1.0000
  C   C23       1.0  0.60630  0.48000  0.28561  1.0000
  C   C24       1.0  0.58282  0.45675  0.28325  1.0000
  O   O15       1.0  0.61690  0.49240  0.20511  1.0000
  O   O16       1.0  0.57160  0.44712  0.20016  1.0000
  H   H15       1.0  0.62666  0.48473  0.18055  1.0000
  H   H16       1.0  0.57691  0.43482  0.18207  1.0000
  N   N8        1.0  0.63784  0.51483  0.37545  1.0000
  C   C25       1.0  0.57042  0.15259  0.37098  1.0000
  C   C26       1.0  0.58187  0.15279  0.28552  1.0000
  C   C27       1.0  0.60512  0.15257  0.28316  1.0000
  O   O17       1.0  0.56947  0.15099  0.20502  1.0000
  O   O18       1.0  0.61474  0.15096  0.20006  1.0000
  H   H17       1.0  0.57714  0.16842  0.18045  1.0000
  H   H18       1.0  0.62704  0.16857  0.18195  1.0000
  N   N9        1.0  0.54705  0.14952  0.37536  1.0000
  C   C28       1.0  0.04684  0.42874  0.28654  1.0000
  O   O19       1.0  0.06033  0.43608  0.20628  1.0000
  H   H19       1.0  0.06332  0.45327  0.19258  1.0000
  C   C29       1.0  0.65424  0.62388  0.36441  1.0000
  C   C30       1.0  0.64643  0.63089  0.28269  1.0000
  C   C31       1.0  0.63314  0.64462  0.28653  1.0000
  O   O20       1.0  0.62580  0.65076  0.20626  1.0000
  H   H20       1.0  0.60861  0.63657  0.19256  1.0000
  O   O21       1.0  0.65184  0.62456  0.19887  1.0000
  H   H21       1.0  0.63714  0.60791  0.18267  1.0000
  N   N10       1.0  0.66413  0.60842  0.35868  1.0000
  C   C32       1.0  0.43800  0.05687  0.36438  1.0000
  C   C33       1.0  0.43099  0.04205  0.28268  1.0000
  C   C34       1.0  0.41726  0.01502  0.28654  1.0000
  O   O22       1.0  0.41111  0.00153  0.20627  1.0000
  H   H22       1.0  0.42530  0.99854  0.19258  1.0000
  O   O23       1.0  0.43731  0.05378  0.19884  1.0000
  H   H23       1.0  0.45396  0.05573  0.18262  1.0000
  N   N11       1.0  0.45347  0.08223  0.35863  1.0000
  C   C35       1.0  0.05981  0.65128  0.36441  1.0000
  C   C36       1.0  0.04500  0.64348  0.28269  1.0000
  O   O24       1.0  0.05674  0.64888  0.19886  1.0000
  H   H24       1.0  0.05869  0.63418  0.18267  1.0000
  N   N12       1.0  0.08517  0.66117  0.35868  1.0000
  C   C37       1.0  0.41060  0.43506  0.36438  1.0000
  C   C38       1.0  0.41841  0.42805  0.28269  1.0000
  C   C39       1.0  0.43170  0.41432  0.28654  1.0000
  O   O25       1.0  0.43904  0.40817  0.20628  1.0000
  H   H25       1.0  0.45623  0.42237  0.19258  1.0000
  O   O26       1.0  0.41300  0.43438  0.19884  1.0000
  H   H26       1.0  0.42770  0.45103  0.18262  1.0000
  N   N13       1.0  0.40071  0.45053  0.35863  1.0000
  C   C40       1.0  0.62682  0.00205  0.36441  1.0000
  C   C41       1.0  0.63383  0.01686  0.28270  1.0000
  C   C42       1.0  0.64755  0.04389  0.28653  1.0000
  O   O27       1.0  0.65370  0.05737  0.20626  1.0000
  H   H27       1.0  0.63950  0.06036  0.19256  1.0000
  O   O28       1.0  0.62749  0.00512  0.19887  1.0000
  H   H28       1.0  0.61084  0.00317  0.18267  1.0000
  N   N14       1.0  0.61135  0.97669  0.35868  1.0000
  C   C43       1.0  0.17352  0.47960  0.36151  1.0000
  N   N15       1.0  0.14839  0.46140  0.35274  1.0000
  C   C44       1.0  0.12917  0.46695  0.35902  1.0000
  N   N16       1.0  0.13579  0.49179  0.37160  1.0000
  C   C45       1.0  0.16060  0.51062  0.37951  1.0000
  N   N17       1.0  0.17915  0.50417  0.37461  1.0000
  C   C46       1.0  0.16706  0.53583  0.39084  1.0000
  C   C47       1.0  0.19252  0.47317  0.35175  1.0000
  C   C48       1.0  0.10381  0.44806  0.34778  1.0000
  H   H29       1.0  0.10008  0.43212  0.31506  1.0000
  H   H30       1.0  0.18783  0.45653  0.32247  1.0000
  H   H31       1.0  0.18373  0.54787  0.41975  1.0000
  C   C49       1.0  0.58228  0.72045  0.36149  1.0000
  N   N18       1.0  0.60048  0.71352  0.35273  1.0000
  C   C50       1.0  0.59493  0.68875  0.35897  1.0000
  N   N19       1.0  0.57009  0.67052  0.37154  1.0000
  C   C51       1.0  0.55125  0.67650  0.37944  1.0000
  N   N20       1.0  0.55771  0.70150  0.37457  1.0000
  C   C52       1.0  0.52605  0.65775  0.39077  1.0000
  C   C53       1.0  0.58872  0.74588  0.35178  1.0000
  C   C54       1.0  0.61383  0.68229  0.34778  1.0000
  H   H32       1.0  0.62977  0.69450  0.31512  1.0000
  H   H33       1.0  0.60537  0.75784  0.32259  1.0000
  H   H34       1.0  0.51401  0.66238  0.41969  1.0000
  C   C55       1.0  0.34143  0.88834  0.36151  1.0000
  N   N21       1.0  0.34836  0.91347  0.35273  1.0000
  C   C56       1.0  0.37313  0.93269  0.35901  1.0000
  N   N22       1.0  0.39135  0.92607  0.37160  1.0000
  C   C57       1.0  0.38538  0.90126  0.37951  1.0000
  N   N23       1.0  0.36037  0.88271  0.37461  1.0000
  C   C58       1.0  0.40412  0.89480  0.39085  1.0000
  C   C59       1.0  0.31600  0.86934  0.35176  1.0000
  C   C60       1.0  0.37960  0.95805  0.34777  1.0000
  H   H35       1.0  0.36740  0.96178  0.31504  1.0000
  H   H36       1.0  0.30405  0.87403  0.32247  1.0000
  H   H37       1.0  0.39949  0.87813  0.41976  1.0000
  C   C61       1.0  0.48256  0.33849  0.36151  1.0000
  N   N24       1.0  0.46436  0.34542  0.35273  1.0000
  C   C62       1.0  0.46991  0.37019  0.35902  1.0000
  N   N25       1.0  0.49475  0.38841  0.37161  1.0000
  C   C63       1.0  0.51358  0.38244  0.37951  1.0000
  N   N26       1.0  0.50713  0.35743  0.37461  1.0000
  C   C64       1.0  0.53879  0.40118  0.39086  1.0000
  C   C65       1.0  0.47612  0.31306  0.35175  1.0000
  C   C66       1.0  0.45102  0.37666  0.34778  1.0000
  H   H38       1.0  0.43508  0.36446  0.31505  1.0000
  H   H39       1.0  0.45948  0.30111  0.32246  1.0000
  H   H40       1.0  0.55083  0.39655  0.41976  1.0000
  C   C67       1.0  0.69169  0.12622  0.35898  1.0000
  N   N27       1.0  0.67346  0.13284  0.37155  1.0000
  C   C68       1.0  0.67943  0.15764  0.37945  1.0000
  C   C69       1.0  0.66069  0.16411  0.39077  1.0000
  C   C70       1.0  0.68523  0.10086  0.34778  1.0000
  H   H41       1.0  0.66532  0.18078  0.41969  1.0000
  C   C71       1.0  0.48257  0.17063  0.37548  1.0000
  N   N28       1.0  0.46437  0.14550  0.38424  1.0000
  C   C72       1.0  0.46992  0.12628  0.37795  1.0000
  N   N29       1.0  0.49476  0.13290  0.36538  1.0000
  C   C73       1.0  0.51359  0.15770  0.35749  1.0000
  N   N30       1.0  0.50714  0.17626  0.36240  1.0000
  C   C74       1.0  0.53880  0.16417  0.34620  1.0000
  C   C75       1.0  0.47613  0.18963  0.38524  1.0000
  C   C76       1.0  0.45103  0.10092  0.38917  1.0000
  H   H42       1.0  0.43509  0.09717  0.42190  1.0000
  H   H43       1.0  0.45951  0.18495  0.41457  1.0000
  H   H44       1.0  0.55085  0.18085  0.31737  1.0000
  C   C77       1.0  0.69173  0.59196  0.37800  1.0000
  N   N31       1.0  0.67351  0.56712  0.36545  1.0000
  C   C78       1.0  0.67948  0.54829  0.35757  1.0000
  C   C79       1.0  0.66073  0.52308  0.34628  1.0000
  C   C80       1.0  0.68526  0.61086  0.38918  1.0000
  H   H45       1.0  0.66537  0.51103  0.31745  1.0000
  C   C81       1.0  0.58225  0.88829  0.37551  1.0000
  N   N32       1.0  0.60045  0.91342  0.38426  1.0000
  C   C82       1.0  0.59490  0.93264  0.37800  1.0000
  N   N33       1.0  0.57006  0.92602  0.36545  1.0000
  C   C83       1.0  0.55123  0.90121  0.35756  1.0000
  N   N34       1.0  0.55768  0.88266  0.36244  1.0000
  C   C84       1.0  0.52602  0.89474  0.34627  1.0000
  C   C85       1.0  0.58869  0.86929  0.38522  1.0000
  C   C86       1.0  0.61379  0.95800  0.38919  1.0000
  H   H46       1.0  0.62974  0.96174  0.42186  1.0000
  H   H47       1.0  0.60533  0.87398  0.41447  1.0000
  H   H48       1.0  0.51397  0.87807  0.31743  1.0000
  C   C87       1.0  0.34140  0.47963  0.37548  1.0000
  N   N35       1.0  0.34834  0.46143  0.38424  1.0000
  C   C88       1.0  0.37311  0.46698  0.37795  1.0000
  N   N36       1.0  0.39132  0.49182  0.36538  1.0000
  C   C89       1.0  0.38535  0.51065  0.35749  1.0000
  N   N37       1.0  0.36034  0.50419  0.36239  1.0000
  C   C90       1.0  0.40409  0.53586  0.34620  1.0000
  C   C91       1.0  0.31597  0.47319  0.38524  1.0000
  C   C92       1.0  0.37958  0.44809  0.38918  1.0000
  H   H49       1.0  0.36739  0.43216  0.42192  1.0000
  H   H50       1.0  0.30402  0.45656  0.41459  1.0000
  H   H51       1.0  0.39946  0.54791  0.31735  1.0000
  C   C93       1.0  0.17357  0.72047  0.37551  1.0000
  N   N38       1.0  0.14844  0.71354  0.38426  1.0000
  C   C94       1.0  0.12922  0.68877  0.37800  1.0000
  N   N39       1.0  0.13584  0.67055  0.36544  1.0000
  C   C95       1.0  0.16065  0.67652  0.35756  1.0000
  N   N40       1.0  0.17920  0.70153  0.36244  1.0000
  C   C96       1.0  0.16711  0.65778  0.34627  1.0000
  C   C97       1.0  0.19257  0.74591  0.38523  1.0000
  C   C98       1.0  0.10386  0.68231  0.38917  1.0000
  H   H52       1.0  0.10012  0.69451  0.42184  1.0000
  H   H53       1.0  0.18788  0.75786  0.41447  1.0000
  H   H54       1.0  0.18379  0.66241  0.31744  1.0000
  C   C99       1.0  0.23610  0.48438  0.37293  1.0000
  C   C100      1.0  0.24907  0.48440  0.45436  1.0000
  C   C101      1.0  0.27237  0.48418  0.45006  1.0000
  O   O29       1.0  0.23988  0.48602  0.53834  1.0000
  O   O30       1.0  0.28509  0.48596  0.52970  1.0000
  H   H55       1.0  0.22790  0.46840  0.55728  1.0000
  H   H56       1.0  0.27768  0.46849  0.55365  1.0000
  N   N41       1.0  0.21574  0.48764  0.37897  1.0000
  C   C102      1.0  0.57749  0.77824  0.37291  1.0000
  C   C103      1.0  0.57748  0.79118  0.45435  1.0000
  C   C104      1.0  0.57769  0.81470  0.45007  1.0000
  O   O31       1.0  0.57585  0.78037  0.53832  1.0000
  O   O32       1.0  0.57592  0.82564  0.52972  1.0000
  H   H57       1.0  0.59347  0.78600  0.55724  1.0000
  H   H58       1.0  0.59339  0.83570  0.55365  1.0000
  N   N42       1.0  0.57423  0.75461  0.37891  1.0000
  C   C105      1.0  0.28363  0.82576  0.37297  1.0000
  C   C106      1.0  0.27070  0.81278  0.45441  1.0000
  C   C107      1.0  0.24718  0.78948  0.45011  1.0000
  O   O33       1.0  0.28152  0.82196  0.53837  1.0000
  O   O34       1.0  0.23625  0.77675  0.52975  1.0000
  H   H59       1.0  0.27589  0.83393  0.55740  1.0000
  H   H60       1.0  0.22619  0.78414  0.55374  1.0000
  N   N43       1.0  0.30725  0.84613  0.37899  1.0000
  C   C108      1.0  0.48733  0.28069  0.37294  1.0000
  C   C109      1.0  0.48735  0.26774  0.45436  1.0000
  C   C110      1.0  0.48713  0.24422  0.45006  1.0000
  O   O35       1.0  0.48897  0.27855  0.53834  1.0000
  O   O36       1.0  0.48891  0.23328  0.52970  1.0000
  H   H61       1.0  0.47135  0.27291  0.55728  1.0000
  H   H62       1.0  0.47144  0.22322  0.55365  1.0000
  N   N44       1.0  0.49059  0.30431  0.37897  1.0000
  C   C111      1.0  0.15549  0.56746  0.36607  1.0000
  C   C112      1.0  0.15565  0.57888  0.45152  1.0000
  C   C113      1.0  0.15546  0.60215  0.45387  1.0000
  O   O37       1.0  0.15380  0.61175  0.53695  1.0000
  H   H63       1.0  0.17140  0.62403  0.55524  1.0000
  O   O38       1.0  0.15377  0.56645  0.53201  1.0000
  H   H64       1.0  0.17118  0.57409  0.55675  1.0000
  N   N45       1.0  0.15242  0.54409  0.36164  1.0000
  C   C114      1.0  0.49441  0.61456  0.36597  1.0000
  C   C115      1.0  0.48299  0.60330  0.45142  1.0000
  C   C116      1.0  0.45971  0.57984  0.45378  1.0000
  O   O39       1.0  0.45011  0.56859  0.53686  1.0000
  H   H65       1.0  0.43784  0.57392  0.55512  1.0000
  O   O40       1.0  0.49542  0.61386  0.53191  1.0000
  H   H66       1.0  0.48777  0.62363  0.55664  1.0000
  N   N46       1.0  0.51779  0.63486  0.36154  1.0000
  C   C117      1.0  0.44732  0.90636  0.36607  1.0000
  C   C118      1.0  0.45858  0.90620  0.45152  1.0000
  C   C119      1.0  0.48204  0.90639  0.45387  1.0000
  O   O41       1.0  0.49329  0.90804  0.53695  1.0000
  H   H67       1.0  0.48797  0.89045  0.55525  1.0000
  O   O42       1.0  0.44802  0.90807  0.53200  1.0000
  H   H68       1.0  0.43825  0.89067  0.55675  1.0000
  N   N47       1.0  0.42701  0.90943  0.36163  1.0000
  C   C120      1.0  0.57042  0.44438  0.36608  1.0000
  C   C121      1.0  0.58184  0.45564  0.45153  1.0000
  C   C122      1.0  0.60511  0.47910  0.45388  1.0000
  O   O43       1.0  0.61471  0.49035  0.53696  1.0000
  H   H69       1.0  0.62699  0.48503  0.55525  1.0000
  O   O44       1.0  0.56941  0.44508  0.53202  1.0000
  H   H70       1.0  0.57705  0.43532  0.55675  1.0000
  N   N48       1.0  0.54704  0.42407  0.36164  1.0000
  C   C123      1.0  0.61750  0.15255  0.36598  1.0000
  C   C124      1.0  0.60624  0.15271  0.45144  1.0000
  C   C125      1.0  0.58278  0.15252  0.45378  1.0000
  O   O45       1.0  0.57153  0.15088  0.53687  1.0000
  H   H71       1.0  0.57685  0.16848  0.55513  1.0000
  O   O46       1.0  0.61680  0.15085  0.53193  1.0000
  H   H72       1.0  0.62656  0.16826  0.55665  1.0000
  N   N49       1.0  0.63780  0.14947  0.36155  1.0000
  C   C126      1.0  0.05977  0.43498  0.37247  1.0000
  C   C127      1.0  0.04494  0.42790  0.45417  1.0000
  O   O47       1.0  0.05667  0.43413  0.53803  1.0000
  H   H73       1.0  0.05862  0.45076  0.55457  1.0000
  N   N50       1.0  0.08511  0.45048  0.37830  1.0000
  C   C128      1.0  0.62690  0.65132  0.37245  1.0000
  C   C129      1.0  0.63398  0.64358  0.45416  1.0000
  C   C130      1.0  0.64769  0.63026  0.45035  1.0000
  O   O48       1.0  0.62775  0.64909  0.53801  1.0000
  O   O49       1.0  0.65393  0.62301  0.53065  1.0000
  H   H74       1.0  0.61113  0.63441  0.55456  1.0000
  H   H75       1.0  0.63975  0.60584  0.54464  1.0000
  N   N51       1.0  0.61140  0.66116  0.37825  1.0000
  C   C131      1.0  0.41057  0.00210  0.37247  1.0000
  C   C132      1.0  0.41832  0.01692  0.45417  1.0000
  C   C133      1.0  0.43163  0.04395  0.45033  1.0000
  O   O50       1.0  0.41281  0.00519  0.53802  1.0000
  O   O51       1.0  0.43889  0.05744  0.53062  1.0000
  H   H76       1.0  0.42749  0.00324  0.55456  1.0000
  H   H77       1.0  0.45606  0.06043  0.54458  1.0000
  N   N52       1.0  0.40072  0.97675  0.37830  1.0000
  C   C134      1.0  0.04689  0.64474  0.45035  1.0000
  O   O52       1.0  0.06037  0.65097  0.53064  1.0000
  H   H78       1.0  0.06336  0.63679  0.54463  1.0000
  C   C135      1.0  0.43794  0.40763  0.37247  1.0000
  C   C136      1.0  0.43086  0.41538  0.45417  1.0000
  C   C137      1.0  0.41715  0.42870  0.45034  1.0000
  O   O53       1.0  0.43709  0.40988  0.53803  1.0000
  O   O54       1.0  0.41092  0.43595  0.53062  1.0000
  H   H79       1.0  0.45372  0.42456  0.55457  1.0000
  H   H80       1.0  0.42510  0.45313  0.54458  1.0000
  N   N53       1.0  0.45344  0.39778  0.37831  1.0000
  C   C138      1.0  0.65425  0.05682  0.37245  1.0000
  C   C139      1.0  0.64651  0.04200  0.45416  1.0000
  C   C140      1.0  0.63320  0.01497  0.45035  1.0000
  O   O55       1.0  0.65203  0.05374  0.53801  1.0000
  O   O56       1.0  0.62595  0.00149  0.53065  1.0000
  H   H81       1.0  0.63735  0.05569  0.55456  1.0000
  H   H82       1.0  0.60878  0.99850  0.54464  1.0000
  N   N54       1.0  0.66410  0.08217  0.37826  1.0000
  C   C141      1.0  0.78121  0.57449  0.36398  1.0000
  C   C142      1.0  0.79413  0.57445  0.28253  1.0000
  C   C143      1.0  0.81766  0.57469  0.28683  1.0000
  O   O57       1.0  0.82858  0.57287  0.20720  1.0000
  H   H83       1.0  0.83865  0.59032  0.18317  1.0000
  O   O58       1.0  0.78328  0.57276  0.19858  1.0000
  H   H84       1.0  0.78891  0.59036  0.17945  1.0000
  N   N55       1.0  0.75759  0.57127  0.35801  1.0000
  C   C144      1.0  0.82864  0.28066  0.36392  1.0000
  C   C145      1.0  0.81566  0.26775  0.28248  1.0000
  C   C146      1.0  0.79236  0.24422  0.28678  1.0000
  O   O59       1.0  0.77960  0.23331  0.20718  1.0000
  H   H85       1.0  0.78698  0.22324  0.18308  1.0000
  O   O60       1.0  0.82479  0.27861  0.19853  1.0000
  H   H86       1.0  0.83675  0.27297  0.17930  1.0000
  N   N56       1.0  0.84903  0.30427  0.35794  1.0000
  C   C147      1.0  0.90926  0.44434  0.37098  1.0000
  C   C148      1.0  0.90906  0.45558  0.28552  1.0000
  C   C149      1.0  0.90928  0.47905  0.28316  1.0000
  O   O61       1.0  0.91086  0.44498  0.20502  1.0000
  O   O62       1.0  0.91088  0.49028  0.20006  1.0000
  H   H87       1.0  0.89343  0.43522  0.18045  1.0000
  H   H88       1.0  0.89328  0.48497  0.18195  1.0000
  N   N57       1.0  0.91233  0.42403  0.37537  1.0000
  C   C150      1.0  0.89129  0.57932  0.36149  1.0000
  N   N58       1.0  0.91642  0.59752  0.35272  1.0000
  C   C151      1.0  0.93564  0.59197  0.35897  1.0000
  N   N59       1.0  0.92902  0.56713  0.37154  1.0000
  C   C152      1.0  0.90421  0.54830  0.37945  1.0000
  N   N60       1.0  0.88566  0.55475  0.37457  1.0000
  C   C153      1.0  0.89775  0.52309  0.39078  1.0000
  C   C154      1.0  0.87229  0.58576  0.35177  1.0000
  H   H89       1.0  0.87699  0.60241  0.32258  1.0000
  H   H90       1.0  0.88108  0.51105  0.41971  1.0000
  C   C155      1.0  0.72338  0.17057  0.36149  1.0000
  N   N61       1.0  0.71646  0.14544  0.35273  1.0000
  N   N62       1.0  0.70444  0.17620  0.37457  1.0000
  C   C156      1.0  0.74882  0.18957  0.35177  1.0000
  H   H91       1.0  0.69744  0.09713  0.31512  1.0000
  H   H92       1.0  0.76077  0.18487  0.32258  1.0000
  C   C157      1.0  0.72343  0.57931  0.37551  1.0000
  N   N63       1.0  0.71650  0.59752  0.38426  1.0000
  N   N64       1.0  0.70449  0.55475  0.36244  1.0000
  C   C158      1.0  0.74886  0.58575  0.38522  1.0000
  H   H93       1.0  0.69746  0.62680  0.42185  1.0000
  H   H94       1.0  0.76082  0.60239  0.41446  1.0000
  C   C159      1.0  0.89123  0.33845  0.37548  1.0000
  N   N65       1.0  0.91636  0.34538  0.38424  1.0000
  C   C160      1.0  0.93558  0.37015  0.37795  1.0000
  N   N66       1.0  0.92896  0.38837  0.36539  1.0000
  C   C161      1.0  0.90415  0.38239  0.35750  1.0000
  N   N67       1.0  0.88560  0.35738  0.36239  1.0000
  C   C162      1.0  0.89768  0.40114  0.34620  1.0000
  C   C163      1.0  0.87224  0.31301  0.38523  1.0000
  H   H95       1.0  0.87692  0.30107  0.41457  1.0000
  H   H96       1.0  0.88101  0.39650  0.31735  1.0000
  C   C164      1.0  0.82871  0.57454  0.37291  1.0000
  C   C165      1.0  0.81575  0.57452  0.45436  1.0000
  C   C166      1.0  0.79245  0.57475  0.45008  1.0000
  O   O63       1.0  0.82494  0.57290  0.53832  1.0000
  O   O64       1.0  0.77974  0.57297  0.52973  1.0000
  H   H97       1.0  0.83693  0.59052  0.55725  1.0000
  H   H98       1.0  0.78715  0.59044  0.55365  1.0000
  N   N68       1.0  0.84908  0.57128  0.37892  1.0000
  C   C167      1.0  0.78118  0.23315  0.37287  1.0000
  C   C168      1.0  0.79414  0.24610  0.45431  1.0000
  C   C169      1.0  0.81766  0.26940  0.45002  1.0000
  O   O65       1.0  0.78334  0.23689  0.53829  1.0000
  O   O66       1.0  0.82861  0.28210  0.52968  1.0000
  H   H99       1.0  0.78897  0.22490  0.55713  1.0000
  H   H100      1.0  0.83866  0.27467  0.55357  1.0000
  N   N69       1.0  0.75755  0.21279  0.37890  1.0000
  C   C170      1.0  0.90930  0.49145  0.36598  1.0000
  C   C171      1.0  0.90913  0.48003  0.45144  1.0000
  C   C172      1.0  0.90933  0.45676  0.45379  1.0000
  O   O67       1.0  0.91097  0.44715  0.53687  1.0000
  H   H101      1.0  0.89337  0.43487  0.55513  1.0000
  O   O68       1.0  0.91100  0.49246  0.53192  1.0000
  H   H102      1.0  0.89359  0.48481  0.55665  1.0000
  N   N70       1.0  0.91238  0.51483  0.36155  1.0000
  C   C173      1.0  0.00499  0.40764  0.36439  1.0000
  C   C174      1.0  0.01981  0.41545  0.28269  1.0000
  O   O69       1.0  0.00808  0.41004  0.19884  1.0000
  H   H103      1.0  0.00613  0.42474  0.18263  1.0000
  N   N71       1.0  0.97963  0.39775  0.35863  1.0000
  C   C175      1.0  0.01797  0.63018  0.28653  1.0000
  O   O70       1.0  0.00449  0.62284  0.20625  1.0000
  H   H104      1.0  0.00150  0.60566  0.19256  1.0000
  C   C176      1.0  0.96100  0.61087  0.34777  1.0000
  H   H105      1.0  0.96473  0.62681  0.31510  1.0000
  C   C177      1.0  0.96094  0.37662  0.38918  1.0000
  H   H106      1.0  0.96469  0.36444  0.42193  1.0000
  C   C178      1.0  0.01791  0.41419  0.45034  1.0000
  O   O71       1.0  0.00442  0.40796  0.53063  1.0000
  H   H107      1.0  0.00143  0.42214  0.54458  1.0000
  C   C179      1.0  0.00504  0.62394  0.37245  1.0000
  C   C180      1.0  0.01986  0.63102  0.45416  1.0000
  O   O72       1.0  0.00812  0.62479  0.53801  1.0000
  H   H108      1.0  0.00617  0.60817  0.55455  1.0000
  N   N72       1.0  0.97969  0.60844  0.37825  1.0000
