data_image0
_chemical_formula_structural       C3OHC2HC2HC3HC3OHC2HC2HC3HC2HC2H2C2NOCHC2NOCHC2HC2H2C2NOCHC2NOCHC3OHC2OHC2H2CHC2HC3H2NOCHC3OHC2OHC2H2CHC2HC3H2NOCHC3OHC3OHC4OHC4H2C4H2C6H2C3H2C2HCHC3H2C4NOCHC2NOCHC2NOCHC3OHC3OHC4OHC4H2C4H2C6H2C3H2C2HCHC3H2C4NOCHC2NOCHC2NOCHC6O2H2C6O2H2C6O2H2C4H2C4H2C4H2C4H2C4H2C4H2C3H2C3H2C3H2C3H2C3H2C3H2C2NOCHC2NOCHC2NOCHC2NOCHC2NOCHC2NOCHC6O2H2C6O2H2C6O2H2C4H2C4H2C4H2C4H2C4H2C4H2C3H2C3H2C3H2C3H2C3H2C3H2C2NOCHC2NOCHC2NOCHC2NOCHC2NOCHC2NOCH
_chemical_formula_sum              "C312 O48 H144 N24"
_cell_length_a       46.6434
_cell_length_b       46.6434
_cell_length_c       14.8452
_cell_angle_alpha    90
_cell_angle_beta     90
_cell_angle_gamma    120

_space_group_name_H-M_alt    "P 1"
_space_group_IT_number       1

loop_
  _space_group_symop_operation_xyz
  'x, y, z'

loop_
  _atom_site_type_symbol
  _atom_site_label
  _atom_site_symmetry_multiplicity
  _atom_site_fract_x
  _atom_site_fract_y
  _atom_site_fract_z
  _atom_site_occupancy
  C   C1        1.0  0.02586  0.26432  0.31377  1.0000
  C   C2        1.0  0.04597  0.30005  0.31019  1.0000
  C   C3        1.0  0.07927  0.31744  0.34183  1.0000
  O   O1        1.0  0.03466  0.31995  0.27851  1.0000
  H   H1        1.0  0.03079  0.31539  0.21362  1.0000
  C   C4        1.0  0.09787  0.24849  0.35965  1.0000
  C   C5        1.0  0.10768  0.23751  0.28244  1.0000
  H   H2        1.0  0.09526  0.23421  0.22302  1.0000
  C   C6        1.0  0.09948  0.35237  0.35327  1.0000
  C   C7        1.0  0.11010  0.37461  0.27917  1.0000
  H   H3        1.0  0.09903  0.36636  0.21777  1.0000
  C   C8        1.0  0.09470  0.29871  0.35991  1.0000
  C   C9        1.0  0.07863  0.26420  0.34915  1.0000
  C   C10       1.0  0.04453  0.24780  0.32786  1.0000
  H   H4        1.0  0.03323  0.22284  0.33328  1.0000
  C   C11       1.0  0.02586  0.76431  0.31377  1.0000
  C   C12       1.0  0.04597  0.80005  0.31019  1.0000
  C   C13       1.0  0.07927  0.81744  0.34183  1.0000
  O   O2        1.0  0.03466  0.81995  0.27851  1.0000
  H   H5        1.0  0.03079  0.81538  0.21362  1.0000
  C   C14       1.0  0.09787  0.74848  0.35965  1.0000
  C   C15       1.0  0.10768  0.73751  0.28244  1.0000
  H   H6        1.0  0.09526  0.73421  0.22302  1.0000
  C   C16       1.0  0.09948  0.85237  0.35327  1.0000
  C   C17       1.0  0.11010  0.87461  0.27917  1.0000
  H   H7        1.0  0.09903  0.86636  0.21777  1.0000
  C   C18       1.0  0.09470  0.79871  0.35991  1.0000
  C   C19       1.0  0.07863  0.76420  0.34915  1.0000
  C   C20       1.0  0.04453  0.74780  0.32786  1.0000
  H   H8        1.0  0.03322  0.72284  0.33328  1.0000
  C   C21       1.0  0.16062  0.24973  0.35350  1.0000
  C   C22       1.0  0.13845  0.23808  0.27926  1.0000
  H   H9        1.0  0.14675  0.23528  0.21791  1.0000
  C   C23       1.0  0.16106  0.41512  0.35981  1.0000
  C   C24       1.0  0.14030  0.40537  0.28254  1.0000
  H   H10       1.0  0.14946  0.41784  0.22319  1.0000
  H   H11       1.0  0.11966  0.31104  0.37320  1.0000
  C   C25       1.0  0.14847  0.25611  0.43412  1.0000
  C   C26       1.0  0.11870  0.25623  0.43574  1.0000
  N   N1        1.0  0.11732  0.26930  0.51441  1.0000
  O   O3        1.0  0.16599  0.26913  0.51169  1.0000
  C   C27       1.0  0.14470  0.27540  0.55940  1.0000
  H   H12       1.0  0.15095  0.28745  0.61986  1.0000
  C   C28       1.0  0.11802  0.36446  0.43393  1.0000
  C   C29       1.0  0.14792  0.39423  0.43578  1.0000
  N   N2        1.0  0.16230  0.39554  0.51451  1.0000
  O   O4        1.0  0.11346  0.34689  0.51142  1.0000
  C   C30       1.0  0.14099  0.36813  0.55932  1.0000
  H   H13       1.0  0.14673  0.36184  0.61979  1.0000
  C   C31       1.0  0.16062  0.74973  0.35350  1.0000
  C   C32       1.0  0.13845  0.73808  0.27926  1.0000
  H   H14       1.0  0.14675  0.73528  0.21791  1.0000
  C   C33       1.0  0.16106  0.91512  0.35981  1.0000
  C   C34       1.0  0.14031  0.90537  0.28254  1.0000
  H   H15       1.0  0.14946  0.91784  0.22319  1.0000
  H   H16       1.0  0.11966  0.81104  0.37320  1.0000
  C   C35       1.0  0.14847  0.75611  0.43412  1.0000
  C   C36       1.0  0.11870  0.75623  0.43574  1.0000
  N   N3        1.0  0.11732  0.76930  0.51441  1.0000
  O   O5        1.0  0.16599  0.76913  0.51169  1.0000
  C   C37       1.0  0.14470  0.77540  0.55940  1.0000
  H   H17       1.0  0.15095  0.78745  0.61986  1.0000
  C   C38       1.0  0.11802  0.86446  0.43393  1.0000
  C   C39       1.0  0.14792  0.89423  0.43578  1.0000
  N   N4        1.0  0.16230  0.89555  0.51451  1.0000
  O   O6        1.0  0.11346  0.84689  0.51142  1.0000
  C   C40       1.0  0.14099  0.86814  0.55932  1.0000
  H   H18       1.0  0.14673  0.86184  0.61979  1.0000
  C   C41       1.0  0.24869  0.26416  0.31399  1.0000
  C   C42       1.0  0.21295  0.24854  0.31033  1.0000
  C   C43       1.0  0.19556  0.26443  0.34216  1.0000
  O   O7        1.0  0.19307  0.21737  0.27839  1.0000
  H   H19       1.0  0.19769  0.21813  0.21352  1.0000
  C   C44       1.0  0.24888  0.48715  0.31386  1.0000
  C   C45       1.0  0.24864  0.43379  0.34225  1.0000
  O   O8        1.0  0.21999  0.03213  0.27832  1.0000
  H   H20       1.0  0.22076  0.02828  0.21346  1.0000
  C   C46       1.0  0.24020  0.13772  0.28239  1.0000
  C   C47       1.0  0.24075  0.10751  0.27922  1.0000
  H   H21       1.0  0.23797  0.09643  0.21786  1.0000
  H   H22       1.0  0.23694  0.14687  0.22297  1.0000
  C   C48       1.0  0.25044  0.21109  0.32780  1.0000
  H   H23       1.0  0.22548  0.19742  0.33317  1.0000
  C   C49       1.0  0.21430  0.29858  0.36060  1.0000
  C   C50       1.0  0.24880  0.31703  0.34954  1.0000
  H   H24       1.0  0.20195  0.31118  0.37395  1.0000
  C   C51       1.0  0.21448  0.41837  0.36056  1.0000
  C   C52       1.0  0.19602  0.43440  0.34949  1.0000
  C   C53       1.0  0.21369  0.46847  0.32788  1.0000
  H   H25       1.0  0.20189  0.39343  0.37407  1.0000
  H   H26       1.0  0.20001  0.47976  0.33306  1.0000
  N   N5        1.0  0.24390  0.35084  0.51512  1.0000
  O   O9        1.0  0.24429  0.39983  0.51230  1.0000
  C   C54       1.0  0.23762  0.37208  0.55965  1.0000
  H   H27       1.0  0.22671  0.36691  0.62168  1.0000
  C   C55       1.0  0.24869  0.76417  0.31399  1.0000
  C   C56       1.0  0.21295  0.74855  0.31033  1.0000
  C   C57       1.0  0.19556  0.76443  0.34216  1.0000
  O   O10       1.0  0.19307  0.71737  0.27839  1.0000
  H   H28       1.0  0.19769  0.71813  0.21352  1.0000
  C   C58       1.0  0.24888  0.98716  0.31386  1.0000
  C   C59       1.0  0.24864  0.93380  0.34225  1.0000
  O   O11       1.0  0.21999  0.53213  0.27833  1.0000
  H   H29       1.0  0.22076  0.52828  0.21346  1.0000
  C   C60       1.0  0.24020  0.63772  0.28239  1.0000
  C   C61       1.0  0.24075  0.60752  0.27922  1.0000
  H   H30       1.0  0.23797  0.59643  0.21786  1.0000
  H   H31       1.0  0.23694  0.64687  0.22297  1.0000
  C   C62       1.0  0.25044  0.71109  0.32780  1.0000
  H   H32       1.0  0.22548  0.69742  0.33317  1.0000
  C   C63       1.0  0.21430  0.79858  0.36060  1.0000
  C   C64       1.0  0.24880  0.81703  0.34954  1.0000
  H   H33       1.0  0.20195  0.81118  0.37395  1.0000
  C   C65       1.0  0.21449  0.91837  0.36056  1.0000
  C   C66       1.0  0.19602  0.93439  0.34949  1.0000
  C   C67       1.0  0.21369  0.96847  0.32788  1.0000
  H   H34       1.0  0.20189  0.89343  0.37407  1.0000
  H   H35       1.0  0.20002  0.97976  0.33306  1.0000
  N   N6        1.0  0.24391  0.85084  0.51512  1.0000
  O   O12       1.0  0.24429  0.89983  0.51230  1.0000
  C   C68       1.0  0.23763  0.87208  0.55965  1.0000
  H   H36       1.0  0.22671  0.86691  0.62168  1.0000
  C   C69       1.0  0.48971  0.24605  0.31395  1.0000
  C   C70       1.0  0.43639  0.19292  0.34275  1.0000
  C   C71       1.0  0.46961  0.21031  0.31053  1.0000
  O   O13       1.0  0.48087  0.19042  0.27844  1.0000
  H   H37       1.0  0.48470  0.19504  0.21357  1.0000
  C   C72       1.0  0.26695  0.24628  0.31380  1.0000
  C   C73       1.0  0.32007  0.24601  0.34175  1.0000
  C   C74       1.0  0.30269  0.26192  0.31017  1.0000
  O   O14       1.0  0.32258  0.29310  0.27832  1.0000
  H   H38       1.0  0.31796  0.29238  0.21345  1.0000
  C   C75       1.0  0.26677  0.02330  0.31395  1.0000
  C   C76       1.0  0.26703  0.07669  0.34222  1.0000
  C   C77       1.0  0.25115  0.04342  0.31033  1.0000
  C   C78       1.0  0.26452  0.46706  0.31036  1.0000
  O   O15       1.0  0.29571  0.47834  0.27853  1.0000
  H   H39       1.0  0.29499  0.48223  0.21366  1.0000
  C   C79       1.0  0.26334  0.41358  0.35383  1.0000
  C   C80       1.0  0.26450  0.35197  0.36032  1.0000
  C   C81       1.0  0.27545  0.37270  0.28291  1.0000
  C   C82       1.0  0.27473  0.40283  0.27950  1.0000
  H   H40       1.0  0.27749  0.41382  0.21800  1.0000
  H   H41       1.0  0.27855  0.36347  0.22344  1.0000
  C   C83       1.0  0.35498  0.26076  0.35350  1.0000
  C   C84       1.0  0.41767  0.26178  0.36049  1.0000
  C   C85       1.0  0.40801  0.27276  0.28290  1.0000
  C   C86       1.0  0.37717  0.27205  0.27927  1.0000
  H   H42       1.0  0.36899  0.27479  0.21767  1.0000
  H   H43       1.0  0.42037  0.27581  0.22351  1.0000
  C   C87       1.0  0.25231  0.09690  0.35350  1.0000
  C   C88       1.0  0.25116  0.15845  0.35970  1.0000
  C   C89       1.0  0.41617  0.15800  0.35425  1.0000
  C   C90       1.0  0.35457  0.09529  0.36057  1.0000
  C   C91       1.0  0.37527  0.10506  0.28312  1.0000
  C   C92       1.0  0.40541  0.13590  0.27982  1.0000
  H   H44       1.0  0.41640  0.14416  0.21833  1.0000
  H   H45       1.0  0.36603  0.09276  0.22361  1.0000
  C   C93       1.0  0.47102  0.26253  0.32808  1.0000
  C   C94       1.0  0.43696  0.24613  0.34990  1.0000
  C   C95       1.0  0.42100  0.21166  0.36156  1.0000
  H   H46       1.0  0.48227  0.28751  0.33278  1.0000
  H   H47       1.0  0.39607  0.19930  0.37516  1.0000
  C   C96       1.0  0.26685  0.19340  0.34915  1.0000
  C   C97       1.0  0.30135  0.21186  0.36015  1.0000
  H   H48       1.0  0.31369  0.19925  0.37355  1.0000
  C   C98       1.0  0.26520  0.29934  0.32829  1.0000
  H   H49       1.0  0.29017  0.31301  0.33328  1.0000
  C   C99       1.0  0.30195  0.04197  0.32825  1.0000
  C   C100      1.0  0.31963  0.07605  0.34965  1.0000
  C   C101      1.0  0.30117  0.09208  0.36084  1.0000
  H   H50       1.0  0.31562  0.03068  0.33338  1.0000
  H   H51       1.0  0.31377  0.11703  0.37419  1.0000
  C   C102      1.0  0.25704  0.39512  0.43451  1.0000
  C   C103      1.0  0.25670  0.36512  0.43612  1.0000
  C   C104      1.0  0.36708  0.25446  0.43432  1.0000
  C   C105      1.0  0.39671  0.25406  0.43622  1.0000
  N   N7        1.0  0.39813  0.24130  0.51535  1.0000
  O   O16       1.0  0.34957  0.24177  0.51207  1.0000
  C   C106      1.0  0.37060  0.23510  0.55968  1.0000
  H   H52       1.0  0.36480  0.22422  0.62176  1.0000
  C   C107      1.0  0.25868  0.11544  0.43413  1.0000
  C   C108      1.0  0.25885  0.14536  0.43584  1.0000
  N   N8        1.0  0.27188  0.15977  0.51455  1.0000
  O   O17       1.0  0.27164  0.11090  0.51176  1.0000
  C   C109      1.0  0.27793  0.13845  0.55953  1.0000
  H   H53       1.0  0.28994  0.14420  0.62004  1.0000
  C   C110      1.0  0.39773  0.14580  0.43495  1.0000
  C   C111      1.0  0.36771  0.11616  0.43649  1.0000
  N   N9        1.0  0.35342  0.11464  0.51550  1.0000
  O   O18       1.0  0.40245  0.16321  0.51284  1.0000
  C   C112      1.0  0.37468  0.14213  0.56013  1.0000
  H   H54       1.0  0.36952  0.14785  0.62220  1.0000
  C   C113      1.0  0.48971  0.74605  0.31395  1.0000
  C   C114      1.0  0.43639  0.69292  0.34275  1.0000
  C   C115      1.0  0.46961  0.71031  0.31053  1.0000
  O   O19       1.0  0.48087  0.69042  0.27844  1.0000
  H   H55       1.0  0.48470  0.69504  0.21357  1.0000
  C   C116      1.0  0.26695  0.74628  0.31380  1.0000
  C   C117      1.0  0.32007  0.74601  0.34175  1.0000
  C   C118      1.0  0.30269  0.76192  0.31017  1.0000
  O   O20       1.0  0.32258  0.79310  0.27832  1.0000
  H   H56       1.0  0.31796  0.79238  0.21345  1.0000
  C   C119      1.0  0.26677  0.52330  0.31395  1.0000
  C   C120      1.0  0.26703  0.57669  0.34222  1.0000
  C   C121      1.0  0.25115  0.54342  0.31033  1.0000
  C   C122      1.0  0.26452  0.96705  0.31036  1.0000
  O   O21       1.0  0.29571  0.97834  0.27853  1.0000
  H   H57       1.0  0.29499  0.98223  0.21366  1.0000
  C   C123      1.0  0.26334  0.91358  0.35383  1.0000
  C   C124      1.0  0.26450  0.85197  0.36032  1.0000
  C   C125      1.0  0.27545  0.87270  0.28291  1.0000
  C   C126      1.0  0.27473  0.90283  0.27950  1.0000
  H   H58       1.0  0.27749  0.91382  0.21800  1.0000
  H   H59       1.0  0.27855  0.86347  0.22344  1.0000
  C   C127      1.0  0.35498  0.76076  0.35350  1.0000
  C   C128      1.0  0.41767  0.76178  0.36049  1.0000
  C   C129      1.0  0.40801  0.77276  0.28290  1.0000
  C   C130      1.0  0.37717  0.77205  0.27927  1.0000
  H   H60       1.0  0.36899  0.77479  0.21767  1.0000
  H   H61       1.0  0.42037  0.77581  0.22351  1.0000
  C   C131      1.0  0.25231  0.59690  0.35350  1.0000
  C   C132      1.0  0.25116  0.65845  0.35970  1.0000
  C   C133      1.0  0.41617  0.65800  0.35425  1.0000
  C   C134      1.0  0.35456  0.59529  0.36057  1.0000
  C   C135      1.0  0.37527  0.60506  0.28312  1.0000
  C   C136      1.0  0.40541  0.63590  0.27982  1.0000
  H   H62       1.0  0.41640  0.64416  0.21833  1.0000
  H   H63       1.0  0.36603  0.59276  0.22361  1.0000
  C   C137      1.0  0.47101  0.76253  0.32808  1.0000
  C   C138      1.0  0.43696  0.74613  0.34990  1.0000
  C   C139      1.0  0.42100  0.71166  0.36156  1.0000
  H   H64       1.0  0.48227  0.78751  0.33278  1.0000
  H   H65       1.0  0.39608  0.69930  0.37516  1.0000
  C   C140      1.0  0.26685  0.69341  0.34915  1.0000
  C   C141      1.0  0.30135  0.71186  0.36015  1.0000
  H   H66       1.0  0.31369  0.69926  0.37355  1.0000
  C   C142      1.0  0.26520  0.79934  0.32829  1.0000
  H   H67       1.0  0.29017  0.81301  0.33328  1.0000
  C   C143      1.0  0.30195  0.54197  0.32825  1.0000
  C   C144      1.0  0.31963  0.57606  0.34965  1.0000
  C   C145      1.0  0.30117  0.59208  0.36084  1.0000
  H   H68       1.0  0.31562  0.53068  0.33338  1.0000
  H   H69       1.0  0.31377  0.61703  0.37419  1.0000
  C   C146      1.0  0.25704  0.89512  0.43451  1.0000
  C   C147      1.0  0.25670  0.86513  0.43612  1.0000
  C   C148      1.0  0.36708  0.75446  0.43432  1.0000
  C   C149      1.0  0.39671  0.75406  0.43622  1.0000
  N   N10       1.0  0.39813  0.74130  0.51535  1.0000
  O   O22       1.0  0.34957  0.74177  0.51207  1.0000
  C   C150      1.0  0.37060  0.73510  0.55968  1.0000
  H   H70       1.0  0.36480  0.72422  0.62176  1.0000
  C   C151      1.0  0.25868  0.61544  0.43413  1.0000
  C   C152      1.0  0.25885  0.64536  0.43584  1.0000
  N   N11       1.0  0.27188  0.65977  0.51455  1.0000
  O   O23       1.0  0.27164  0.61089  0.51176  1.0000
  C   C153      1.0  0.27793  0.63845  0.55953  1.0000
  H   H71       1.0  0.28994  0.64420  0.62004  1.0000
  C   C154      1.0  0.39773  0.64580  0.43495  1.0000
  C   C155      1.0  0.36771  0.61616  0.43649  1.0000
  N   N12       1.0  0.35342  0.61464  0.51550  1.0000
  O   O24       1.0  0.40245  0.66321  0.51284  1.0000
  C   C156      1.0  0.37468  0.64212  0.56013  1.0000
  H   H72       1.0  0.36952  0.64785  0.62220  1.0000
  C   C157      1.0  0.98971  0.24605  0.31395  1.0000
  C   C158      1.0  0.93639  0.19292  0.34275  1.0000
  C   C159      1.0  0.96961  0.21031  0.31053  1.0000
  C   C160      1.0  0.52586  0.26432  0.31377  1.0000
  C   C161      1.0  0.54597  0.30005  0.31019  1.0000
  C   C162      1.0  0.57927  0.31744  0.34183  1.0000
  O   O25       1.0  0.98087  0.19042  0.27844  1.0000
  O   O26       1.0  0.53466  0.31995  0.27851  1.0000
  H   H73       1.0  0.98470  0.19504  0.21357  1.0000
  H   H74       1.0  0.53079  0.31539  0.21362  1.0000
  C   C163      1.0  0.76695  0.24628  0.31380  1.0000
  C   C164      1.0  0.82008  0.24601  0.34175  1.0000
  C   C165      1.0  0.80268  0.26192  0.31017  1.0000
  C   C166      1.0  0.74869  0.26416  0.31399  1.0000
  C   C167      1.0  0.71295  0.24854  0.31033  1.0000
  C   C168      1.0  0.69556  0.26443  0.34216  1.0000
  O   O27       1.0  0.82257  0.29310  0.27832  1.0000
  O   O28       1.0  0.69307  0.21737  0.27839  1.0000
  H   H75       1.0  0.81796  0.29238  0.21345  1.0000
  H   H76       1.0  0.69769  0.21813  0.21352  1.0000
  C   C169      1.0  0.76677  0.02330  0.31395  1.0000
  C   C170      1.0  0.76703  0.07669  0.34222  1.0000
  C   C171      1.0  0.75115  0.04342  0.31033  1.0000
  C   C172      1.0  0.74888  0.48715  0.31386  1.0000
  C   C173      1.0  0.76452  0.46706  0.31036  1.0000
  C   C174      1.0  0.74864  0.43379  0.34225  1.0000
  O   O29       1.0  0.71999  0.03213  0.27832  1.0000
  O   O30       1.0  0.79571  0.47834  0.27853  1.0000
  H   H77       1.0  0.72077  0.02828  0.21346  1.0000
  H   H78       1.0  0.79498  0.48223  0.21366  1.0000
  C   C175      1.0  0.66062  0.24973  0.35350  1.0000
  C   C176      1.0  0.59787  0.24849  0.35965  1.0000
  C   C177      1.0  0.60768  0.23751  0.28244  1.0000
  C   C178      1.0  0.63845  0.23808  0.27926  1.0000
  H   H79       1.0  0.64675  0.23528  0.21791  1.0000
  H   H80       1.0  0.59526  0.23421  0.22302  1.0000
  C   C179      1.0  0.76334  0.41358  0.35383  1.0000
  C   C180      1.0  0.76450  0.35197  0.36032  1.0000
  C   C181      1.0  0.77545  0.37270  0.28291  1.0000
  C   C182      1.0  0.77473  0.40283  0.27950  1.0000
  H   H81       1.0  0.77750  0.41382  0.21800  1.0000
  H   H82       1.0  0.77855  0.36347  0.22344  1.0000
  C   C183      1.0  0.59948  0.35237  0.35327  1.0000
  C   C184      1.0  0.66106  0.41512  0.35981  1.0000
  C   C185      1.0  0.64030  0.40537  0.28254  1.0000
  C   C186      1.0  0.61011  0.37461  0.27917  1.0000
  H   H83       1.0  0.59903  0.36636  0.21777  1.0000
  H   H84       1.0  0.64946  0.41784  0.22319  1.0000
  C   C187      1.0  0.85498  0.26076  0.35350  1.0000
  C   C188      1.0  0.91767  0.26178  0.36049  1.0000
  C   C189      1.0  0.90801  0.27276  0.28290  1.0000
  C   C190      1.0  0.87718  0.27205  0.27927  1.0000
  H   H85       1.0  0.86899  0.27479  0.21767  1.0000
  H   H86       1.0  0.92037  0.27581  0.22351  1.0000
  C   C191      1.0  0.75231  0.09690  0.35350  1.0000
  C   C192      1.0  0.75116  0.15845  0.35970  1.0000
  C   C193      1.0  0.74020  0.13772  0.28239  1.0000
  C   C194      1.0  0.74075  0.10751  0.27922  1.0000
  H   H87       1.0  0.73797  0.09643  0.21786  1.0000
  H   H88       1.0  0.73694  0.14687  0.22297  1.0000
  C   C195      1.0  0.91617  0.15800  0.35425  1.0000
  C   C196      1.0  0.85457  0.09529  0.36057  1.0000
  C   C197      1.0  0.87527  0.10506  0.28312  1.0000
  C   C198      1.0  0.90541  0.13590  0.27982  1.0000
  H   H89       1.0  0.91640  0.14416  0.21833  1.0000
  H   H90       1.0  0.86603  0.09276  0.22361  1.0000
  C   C199      1.0  0.97102  0.26253  0.32808  1.0000
  C   C200      1.0  0.93696  0.24613  0.34990  1.0000
  C   C201      1.0  0.92100  0.21166  0.36156  1.0000
  H   H91       1.0  0.98227  0.28751  0.33278  1.0000
  H   H92       1.0  0.89607  0.19930  0.37516  1.0000
  C   C202      1.0  0.59470  0.29871  0.35991  1.0000
  C   C203      1.0  0.57863  0.26420  0.34915  1.0000
  C   C204      1.0  0.54453  0.24780  0.32786  1.0000
  H   H93       1.0  0.61966  0.31104  0.37320  1.0000
  H   H94       1.0  0.53323  0.22284  0.33328  1.0000
  C   C205      1.0  0.75044  0.21109  0.32780  1.0000
  C   C206      1.0  0.76685  0.19340  0.34915  1.0000
  C   C207      1.0  0.80135  0.21186  0.36015  1.0000
  H   H95       1.0  0.72548  0.19742  0.33317  1.0000
  H   H96       1.0  0.81369  0.19925  0.37355  1.0000
  C   C208      1.0  0.71430  0.29858  0.36060  1.0000
  C   C209      1.0  0.74880  0.31703  0.34954  1.0000
  C   C210      1.0  0.76520  0.29934  0.32829  1.0000
  H   H97       1.0  0.70195  0.31118  0.37395  1.0000
  H   H98       1.0  0.79017  0.31301  0.33328  1.0000
  C   C211      1.0  0.80194  0.04197  0.32825  1.0000
  C   C212      1.0  0.81963  0.07605  0.34965  1.0000
  C   C213      1.0  0.80117  0.09208  0.36084  1.0000
  H   H99       1.0  0.81562  0.03068  0.33338  1.0000
  H   H100      1.0  0.81377  0.11703  0.37419  1.0000
  C   C214      1.0  0.71448  0.41837  0.36056  1.0000
  C   C215      1.0  0.69602  0.43440  0.34949  1.0000
  C   C216      1.0  0.71369  0.46847  0.32788  1.0000
  H   H101      1.0  0.70189  0.39343  0.37407  1.0000
  H   H102      1.0  0.70001  0.47976  0.33306  1.0000
  C   C217      1.0  0.64847  0.25611  0.43412  1.0000
  C   C218      1.0  0.61870  0.25623  0.43574  1.0000
  N   N13       1.0  0.61732  0.26930  0.51441  1.0000
  O   O31       1.0  0.66599  0.26913  0.51169  1.0000
  C   C219      1.0  0.64470  0.27540  0.55940  1.0000
  H   H103      1.0  0.65095  0.28745  0.61986  1.0000
  C   C220      1.0  0.75704  0.39512  0.43451  1.0000
  C   C221      1.0  0.75670  0.36512  0.43612  1.0000
  N   N14       1.0  0.74391  0.35084  0.51512  1.0000
  O   O32       1.0  0.74429  0.39983  0.51230  1.0000
  C   C222      1.0  0.73762  0.37208  0.55965  1.0000
  H   H104      1.0  0.72671  0.36691  0.62168  1.0000
  C   C223      1.0  0.61802  0.36446  0.43393  1.0000
  C   C224      1.0  0.64792  0.39423  0.43578  1.0000
  N   N15       1.0  0.66230  0.39554  0.51451  1.0000
  O   O33       1.0  0.61346  0.34689  0.51142  1.0000
  C   C225      1.0  0.64099  0.36813  0.55932  1.0000
  H   H105      1.0  0.64673  0.36184  0.61979  1.0000
  C   C226      1.0  0.86708  0.25446  0.43432  1.0000
  C   C227      1.0  0.89671  0.25406  0.43622  1.0000
  N   N16       1.0  0.89813  0.24130  0.51535  1.0000
  O   O34       1.0  0.84957  0.24177  0.51207  1.0000
  C   C228      1.0  0.87060  0.23510  0.55968  1.0000
  H   H106      1.0  0.86480  0.22422  0.62176  1.0000
  C   C229      1.0  0.75868  0.11544  0.43413  1.0000
  C   C230      1.0  0.75884  0.14536  0.43584  1.0000
  N   N17       1.0  0.77188  0.15977  0.51455  1.0000
  O   O35       1.0  0.77164  0.11090  0.51176  1.0000
  C   C231      1.0  0.77793  0.13845  0.55953  1.0000
  H   H107      1.0  0.78994  0.14420  0.62004  1.0000
  C   C232      1.0  0.89773  0.14580  0.43495  1.0000
  C   C233      1.0  0.86771  0.11616  0.43649  1.0000
  N   N18       1.0  0.85342  0.11464  0.51550  1.0000
  O   O36       1.0  0.90245  0.16321  0.51284  1.0000
  C   C234      1.0  0.87468  0.14213  0.56013  1.0000
  H   H108      1.0  0.86952  0.14785  0.62220  1.0000
  C   C235      1.0  0.98971  0.74605  0.31395  1.0000
  C   C236      1.0  0.93639  0.69292  0.34275  1.0000
  C   C237      1.0  0.96961  0.71031  0.31053  1.0000
  C   C238      1.0  0.52586  0.76431  0.31377  1.0000
  C   C239      1.0  0.54597  0.80005  0.31019  1.0000
  C   C240      1.0  0.57927  0.81744  0.34183  1.0000
  O   O37       1.0  0.98087  0.69042  0.27844  1.0000
  O   O38       1.0  0.53466  0.81995  0.27851  1.0000
  H   H109      1.0  0.98470  0.69504  0.21357  1.0000
  H   H110      1.0  0.53079  0.81538  0.21362  1.0000
  C   C241      1.0  0.76695  0.74628  0.31380  1.0000
  C   C242      1.0  0.82007  0.74601  0.34175  1.0000
  C   C243      1.0  0.80269  0.76192  0.31017  1.0000
  C   C244      1.0  0.74869  0.76417  0.31399  1.0000
  C   C245      1.0  0.71295  0.74855  0.31033  1.0000
  C   C246      1.0  0.69556  0.76443  0.34216  1.0000
  O   O39       1.0  0.82258  0.79310  0.27832  1.0000
  O   O40       1.0  0.69307  0.71737  0.27839  1.0000
  H   H111      1.0  0.81796  0.79238  0.21345  1.0000
  H   H112      1.0  0.69769  0.71813  0.21352  1.0000
  C   C247      1.0  0.76677  0.52330  0.31395  1.0000
  C   C248      1.0  0.76703  0.57669  0.34222  1.0000
  C   C249      1.0  0.75115  0.54342  0.31033  1.0000
  C   C250      1.0  0.74888  0.98716  0.31386  1.0000
  C   C251      1.0  0.76452  0.96705  0.31036  1.0000
  C   C252      1.0  0.74864  0.93380  0.34225  1.0000
  O   O41       1.0  0.71999  0.53213  0.27833  1.0000
  O   O42       1.0  0.79571  0.97834  0.27853  1.0000
  H   H113      1.0  0.72076  0.52828  0.21346  1.0000
  H   H114      1.0  0.79499  0.98223  0.21366  1.0000
  C   C253      1.0  0.66062  0.74973  0.35350  1.0000
  C   C254      1.0  0.59787  0.74848  0.35965  1.0000
  C   C255      1.0  0.60768  0.73751  0.28244  1.0000
  C   C256      1.0  0.63845  0.73808  0.27926  1.0000
  H   H115      1.0  0.64675  0.73528  0.21791  1.0000
  H   H116      1.0  0.59526  0.73421  0.22302  1.0000
  C   C257      1.0  0.76334  0.91358  0.35383  1.0000
  C   C258      1.0  0.76450  0.85197  0.36032  1.0000
  C   C259      1.0  0.77545  0.87270  0.28291  1.0000
  C   C260      1.0  0.77473  0.90283  0.27950  1.0000
  H   H117      1.0  0.77749  0.91382  0.21800  1.0000
  H   H118      1.0  0.77855  0.86347  0.22344  1.0000
  C   C261      1.0  0.59948  0.85237  0.35327  1.0000
  C   C262      1.0  0.66106  0.91512  0.35981  1.0000
  C   C263      1.0  0.64030  0.90537  0.28254  1.0000
  C   C264      1.0  0.61010  0.87461  0.27917  1.0000
  H   H119      1.0  0.59903  0.86636  0.21777  1.0000
  H   H120      1.0  0.64946  0.91784  0.22319  1.0000
  C   C265      1.0  0.85498  0.76076  0.35350  1.0000
  C   C266      1.0  0.91767  0.76178  0.36049  1.0000
  C   C267      1.0  0.90801  0.77276  0.28290  1.0000
  C   C268      1.0  0.87717  0.77205  0.27927  1.0000
  H   H121      1.0  0.86899  0.77479  0.21767  1.0000
  H   H122      1.0  0.92038  0.77581  0.22351  1.0000
  C   C269      1.0  0.75230  0.59690  0.35350  1.0000
  C   C270      1.0  0.75116  0.65845  0.35970  1.0000
  C   C271      1.0  0.74020  0.63772  0.28239  1.0000
  C   C272      1.0  0.74075  0.60752  0.27922  1.0000
  H   H123      1.0  0.73797  0.59643  0.21786  1.0000
  H   H124      1.0  0.73694  0.64687  0.22297  1.0000
  C   C273      1.0  0.91617  0.65800  0.35425  1.0000
  C   C274      1.0  0.85456  0.59529  0.36057  1.0000
  C   C275      1.0  0.87527  0.60506  0.28312  1.0000
  C   C276      1.0  0.90541  0.63590  0.27982  1.0000
  H   H125      1.0  0.91640  0.64416  0.21833  1.0000
  H   H126      1.0  0.86603  0.59276  0.22361  1.0000
  C   C277      1.0  0.97101  0.76253  0.32808  1.0000
  C   C278      1.0  0.93696  0.74613  0.34990  1.0000
  C   C279      1.0  0.92100  0.71166  0.36156  1.0000
  H   H127      1.0  0.98227  0.78751  0.33278  1.0000
  H   H128      1.0  0.89607  0.69930  0.37516  1.0000
  C   C280      1.0  0.59470  0.79871  0.35991  1.0000
  C   C281      1.0  0.57863  0.76420  0.34915  1.0000
  C   C282      1.0  0.54453  0.74780  0.32786  1.0000
  H   H129      1.0  0.61966  0.81104  0.37320  1.0000
  H   H130      1.0  0.53322  0.72284  0.33328  1.0000
  C   C283      1.0  0.75044  0.71109  0.32780  1.0000
  C   C284      1.0  0.76685  0.69341  0.34915  1.0000
  C   C285      1.0  0.80135  0.71186  0.36015  1.0000
  H   H131      1.0  0.72548  0.69742  0.33317  1.0000
  H   H132      1.0  0.81370  0.69926  0.37355  1.0000
  C   C286      1.0  0.71430  0.79858  0.36060  1.0000
  C   C287      1.0  0.74880  0.81703  0.34954  1.0000
  C   C288      1.0  0.76520  0.79934  0.32829  1.0000
  H   H133      1.0  0.70195  0.81118  0.37395  1.0000
  H   H134      1.0  0.79017  0.81301  0.33328  1.0000
  C   C289      1.0  0.80194  0.54197  0.32825  1.0000
  C   C290      1.0  0.81963  0.57606  0.34965  1.0000
  C   C291      1.0  0.80117  0.59208  0.36084  1.0000
  H   H135      1.0  0.81563  0.53068  0.33338  1.0000
  H   H136      1.0  0.81377  0.61703  0.37419  1.0000
  C   C292      1.0  0.71448  0.91837  0.36056  1.0000
  C   C293      1.0  0.69602  0.93439  0.34949  1.0000
  C   C294      1.0  0.71369  0.96847  0.32788  1.0000
  H   H137      1.0  0.70189  0.89343  0.37407  1.0000
  H   H138      1.0  0.70002  0.97976  0.33306  1.0000
  C   C295      1.0  0.64847  0.75611  0.43412  1.0000
  C   C296      1.0  0.61869  0.75623  0.43574  1.0000
  N   N19       1.0  0.61732  0.76930  0.51441  1.0000
  O   O43       1.0  0.66599  0.76913  0.51169  1.0000
  C   C297      1.0  0.64470  0.77540  0.55940  1.0000
  H   H139      1.0  0.65095  0.78745  0.61986  1.0000
  C   C298      1.0  0.75704  0.89512  0.43451  1.0000
  C   C299      1.0  0.75670  0.86513  0.43612  1.0000
  N   N20       1.0  0.74391  0.85084  0.51512  1.0000
  O   O44       1.0  0.74429  0.89983  0.51230  1.0000
  C   C300      1.0  0.73762  0.87208  0.55965  1.0000
  H   H140      1.0  0.72671  0.86691  0.62168  1.0000
  C   C301      1.0  0.61802  0.86446  0.43393  1.0000
  C   C302      1.0  0.64792  0.89423  0.43578  1.0000
  N   N21       1.0  0.66230  0.89555  0.51451  1.0000
  O   O45       1.0  0.61346  0.84689  0.51142  1.0000
  C   C303      1.0  0.64099  0.86814  0.55932  1.0000
  H   H141      1.0  0.64673  0.86184  0.61979  1.0000
  C   C304      1.0  0.86708  0.75446  0.43432  1.0000
  C   C305      1.0  0.89671  0.75406  0.43622  1.0000
  N   N22       1.0  0.89813  0.74130  0.51535  1.0000
  O   O46       1.0  0.84957  0.74177  0.51207  1.0000
  C   C306      1.0  0.87060  0.73510  0.55968  1.0000
  H   H142      1.0  0.86480  0.72422  0.62176  1.0000
  C   C307      1.0  0.75868  0.61544  0.43413  1.0000
  C   C308      1.0  0.75884  0.64536  0.43584  1.0000
  N   N23       1.0  0.77188  0.65977  0.51455  1.0000
  O   O47       1.0  0.77164  0.61089  0.51176  1.0000
  C   C309      1.0  0.77793  0.63845  0.55953  1.0000
  H   H143      1.0  0.78994  0.64420  0.62004  1.0000
  C   C310      1.0  0.89773  0.64580  0.43495  1.0000
  C   C311      1.0  0.86771  0.61616  0.43649  1.0000
  N   N24       1.0  0.85342  0.61464  0.51550  1.0000
  O   O48       1.0  0.90245  0.66321  0.51284  1.0000
  C   C312      1.0  0.87468  0.64212  0.56013  1.0000
  H   H144      1.0  0.86952  0.64785  0.62220  1.0000
