data_image0
_chemical_formula_structural       CNC2NC4NC18H14C2NC16H12C3NC2NC5NC4NC18H14CNC16H12C11H11CNCNC4NC16H13NC2OCH3NC2OCH3NC2OCH3NC2OCH3NC2OCH3NC2OCH3NC2OCH3NC2OCH3NC2OCH3NC2OCH3NC2OCH3NC2OCH3C7NC12H12C2NC3NC3NC18H14C12H12C3NC3NC3NC18H14C3NC3NC2NC5NC20H15C8NC14H13CNCOCH3CNCOCH3CNCOCH3CNCOCH3CNCOCH3CNCOCH3CNCOCH3CNCOCH3CNCOCH3CNCOCH3CNCOCH3CNCOCH3
_chemical_formula_sum              "C336 N48 H228 O24"
_cell_length_a       57.0787
_cell_length_b       57.0788
_cell_length_c       15.0205
_cell_angle_alpha    90.0018
_cell_angle_beta     89.9654
_cell_angle_gamma    120

_space_group_name_H-M_alt    "P 1"
_space_group_IT_number       1

loop_
  _space_group_symop_operation_xyz
  'x, y, z'

loop_
  _atom_site_type_symbol
  _atom_site_label
  _atom_site_symmetry_multiplicity
  _atom_site_fract_x
  _atom_site_fract_y
  _atom_site_fract_z
  _atom_site_occupancy
  C   C1        1.0  0.28575  0.52942  0.33296  1.0000
  N   N1        1.0  0.27675  0.48737  0.33235  1.0000
  C   C2        1.0  0.30410  0.50254  0.32761  1.0000
  C   C3        1.0  0.32388  0.49431  0.32276  1.0000
  N   N2        1.0  0.29327  0.44434  0.32280  1.0000
  C   C4        1.0  0.29515  0.42165  0.32178  1.0000
  C   C5        1.0  0.32280  0.43040  0.31965  1.0000
  C   C6        1.0  0.33676  0.45827  0.31774  1.0000
  C   C7        1.0  0.27374  0.39432  0.32352  1.0000
  N   N3        1.0  0.23367  0.40138  0.33267  1.0000
  C   C8        1.0  0.20630  0.38621  0.33588  1.0000
  C   C9        1.0  0.22460  0.35931  0.32760  1.0000
  C   C10       1.0  0.21529  0.46715  0.34418  1.0000
  C   C11       1.0  0.23665  0.49445  0.34171  1.0000
  C   C12       1.0  0.22951  0.51514  0.34112  1.0000
  C   C13       1.0  0.21765  0.51935  0.26492  1.0000
  C   C14       1.0  0.21231  0.54086  0.26160  1.0000
  C   C15       1.0  0.21963  0.55976  0.33220  1.0000
  C   C16       1.0  0.14684  0.35983  0.26002  1.0000
  C   C17       1.0  0.11898  0.34106  0.25610  1.0000
  C   C18       1.0  0.28106  0.37378  0.32399  1.0000
  C   C19       1.0  0.30053  0.33621  0.33166  1.0000
  C   C20       1.0  0.30256  0.35082  0.25267  1.0000
  C   C21       1.0  0.29277  0.36902  0.24838  1.0000
  C   C22       1.0  0.35171  0.51496  0.32274  1.0000
  C   C23       1.0  0.36336  0.53210  0.24847  1.0000
  C   C24       1.0  0.38991  0.55417  0.25277  1.0000
  C   C25       1.0  0.40603  0.55960  0.33037  1.0000
  H   H1        1.0  0.39693  0.56684  0.19895  1.0000
  H   H2        1.0  0.35212  0.52941  0.19230  1.0000
  H   H3        1.0  0.28441  0.54661  0.33367  1.0000
  H   H4        1.0  0.26703  0.46796  0.33311  1.0000
  H   H5        1.0  0.24342  0.42079  0.33417  1.0000
  H   H6        1.0  0.35736  0.46993  0.31580  1.0000
  H   H7        1.0  0.33180  0.41878  0.31946  1.0000
  H   H8        1.0  0.29537  0.37971  0.19092  1.0000
  H   H9        1.0  0.31210  0.34914  0.19739  1.0000
  H   H10       1.0  0.22602  0.34219  0.32386  1.0000
  H   H11       1.0  0.15839  0.36326  0.20409  1.0000
  H   H12       1.0  0.11194  0.33114  0.19748  1.0000
  H   H13       1.0  0.20295  0.54225  0.20598  1.0000
  H   H14       1.0  0.21295  0.50683  0.21091  1.0000
  C   C26       1.0  0.53613  0.75598  0.33261  1.0000
  C   C27       1.0  0.56300  0.80122  0.32752  1.0000
  N   N4        1.0  0.62121  0.84861  0.32308  1.0000
  C   C28       1.0  0.64389  0.87317  0.32226  1.0000
  C   C29       1.0  0.63514  0.89208  0.32028  1.0000
  C   C30       1.0  0.60727  0.87816  0.31832  1.0000
  C   C31       1.0  0.67122  0.87910  0.32394  1.0000
  C   C32       1.0  0.67934  0.81979  0.33610  1.0000
  C   C33       1.0  0.70623  0.86497  0.32741  1.0000
  C   C34       1.0  0.59841  0.74782  0.34443  1.0000
  C   C35       1.0  0.54626  0.69794  0.26519  1.0000
  C   C36       1.0  0.52476  0.67109  0.26191  1.0000
  C   C37       1.0  0.70558  0.78653  0.26008  1.0000
  C   C38       1.0  0.72433  0.77741  0.25605  1.0000
  C   C39       1.0  0.69176  0.90696  0.32430  1.0000
  C   C40       1.0  0.71471  0.95141  0.25287  1.0000
  C   C41       1.0  0.69650  0.92341  0.24868  1.0000
  C   C42       1.0  0.53346  0.83094  0.24864  1.0000
  C   C43       1.0  0.51141  0.83545  0.25295  1.0000
  H   H15       1.0  0.49879  0.82986  0.19906  1.0000
  H   H16       1.0  0.53620  0.82245  0.19238  1.0000
  H   H17       1.0  0.51895  0.73746  0.33339  1.0000
  H   H18       1.0  0.59560  0.88709  0.31632  1.0000
  H   H19       1.0  0.64675  0.91269  0.32019  1.0000
  H   H20       1.0  0.68575  0.91532  0.19134  1.0000
  H   H21       1.0  0.71633  0.96263  0.19767  1.0000
  H   H22       1.0  0.72335  0.88351  0.32346  1.0000
  H   H23       1.0  0.70205  0.79452  0.20406  1.0000
  H   H24       1.0  0.73411  0.78014  0.19719  1.0000
  H   H25       1.0  0.52340  0.66031  0.20638  1.0000
  H   H26       1.0  0.55882  0.70572  0.21122  1.0000
  C   C44       1.0  0.28543  0.75573  0.32897  1.0000
  C   C45       1.0  0.30956  0.77983  0.33253  1.0000
  C   C46       1.0  0.30386  0.80095  0.33595  1.0000
  N   N5        1.0  0.27650  0.78882  0.33192  1.0000
  C   C47       1.0  0.26433  0.76147  0.32709  1.0000
  C   C48       1.0  0.23633  0.74169  0.32222  1.0000
  N   N6        1.0  0.21694  0.77228  0.32224  1.0000
  C   C49       1.0  0.19238  0.77040  0.32121  1.0000
  C   C50       1.0  0.17348  0.74275  0.31915  1.0000
  C   C51       1.0  0.18740  0.72880  0.31732  1.0000
  C   C52       1.0  0.18645  0.79181  0.32292  1.0000
  C   C53       1.0  0.20624  0.81979  0.32723  1.0000
  N   N7        1.0  0.23357  0.83188  0.33219  1.0000
  C   C54       1.0  0.24575  0.85924  0.33529  1.0000
  C   C55       1.0  0.22470  0.86503  0.33268  1.0000
  C   C56       1.0  0.20057  0.84094  0.32675  1.0000
  C   C57       1.0  0.27373  0.87895  0.34063  1.0000
  N   N8        1.0  0.29316  0.84839  0.34159  1.0000
  C   C58       1.0  0.31771  0.85027  0.34402  1.0000
  C   C59       1.0  0.32367  0.82892  0.34162  1.0000
  C   C60       1.0  0.35150  0.83607  0.34116  1.0000
  C   C61       1.0  0.36763  0.84800  0.26507  1.0000
  C   C62       1.0  0.39448  0.85335  0.26187  1.0000
  C   C63       1.0  0.40601  0.84597  0.33246  1.0000
  C   C64       1.0  0.28115  0.90682  0.33887  1.0000
  C   C65       1.0  0.27906  0.91876  0.25933  1.0000
  C   C66       1.0  0.28817  0.94662  0.25538  1.0000
  C   C67       1.0  0.30066  0.96400  0.32921  1.0000
  C   C68       1.0  0.15859  0.78448  0.32342  1.0000
  C   C69       1.0  0.10154  0.76500  0.33121  1.0000
  C   C70       1.0  0.11413  0.76299  0.25219  1.0000
  C   C71       1.0  0.14213  0.77277  0.24786  1.0000
  C   C72       1.0  0.22915  0.71386  0.32228  1.0000
  C   C73       1.0  0.23466  0.70222  0.24803  1.0000
  C   C74       1.0  0.23020  0.67568  0.25245  1.0000
  C   C75       1.0  0.21946  0.65953  0.33003  1.0000
  H   H27       1.0  0.23583  0.66865  0.19861  1.0000
  H   H28       1.0  0.24323  0.71347  0.19188  1.0000
  H   H29       1.0  0.32808  0.78117  0.33348  1.0000
  H   H30       1.0  0.26680  0.79853  0.33280  1.0000
  H   H31       1.0  0.24323  0.82213  0.33387  1.0000
  H   H32       1.0  0.17847  0.70820  0.31529  1.0000
  H   H33       1.0  0.15287  0.73375  0.31894  1.0000
  H   H34       1.0  0.15022  0.77016  0.19041  1.0000
  H   H35       1.0  0.10292  0.75342  0.19699  1.0000
  H   H36       1.0  0.18203  0.83952  0.32288  1.0000
  H   H37       1.0  0.27111  0.90725  0.20326  1.0000
  H   H38       1.0  0.28550  0.95369  0.19649  1.0000
  H   H39       1.0  0.40529  0.86278  0.20634  1.0000
  H   H40       1.0  0.35987  0.85275  0.21106  1.0000
  C   C76       1.0  0.78349  0.54095  0.32803  1.0000
  N   N9        1.0  0.79433  0.59916  0.32348  1.0000
  C   C77       1.0  0.79246  0.62184  0.32256  1.0000
  C   C78       1.0  0.76480  0.61310  0.32070  1.0000
  C   C79       1.0  0.75084  0.58523  0.31898  1.0000
  C   C80       1.0  0.81387  0.64917  0.32407  1.0000
  C   C81       1.0  0.88130  0.65727  0.33613  1.0000
  C   C82       1.0  0.86301  0.68417  0.32737  1.0000
  C   C83       1.0  0.87230  0.57633  0.34475  1.0000
  C   C84       1.0  0.87003  0.52418  0.26554  1.0000
  C   C85       1.0  0.87537  0.50267  0.26224  1.0000
  C   C86       1.0  0.94078  0.68351  0.26010  1.0000
  C   C87       1.0  0.96864  0.70227  0.25602  1.0000
  C   C88       1.0  0.80656  0.66972  0.32433  1.0000
  C   C89       1.0  0.78498  0.69258  0.25289  1.0000
  C   C90       1.0  0.79483  0.67441  0.24869  1.0000
  C   C91       1.0  0.72424  0.51144  0.24918  1.0000
  C   C92       1.0  0.69768  0.48937  0.25353  1.0000
  H   H41       1.0  0.69066  0.47674  0.19965  1.0000
  H   H42       1.0  0.73547  0.51416  0.19293  1.0000
  H   H43       1.0  0.80319  0.49688  0.33367  1.0000
  H   H44       1.0  0.73024  0.57357  0.31693  1.0000
  H   H45       1.0  0.75581  0.62472  0.32055  1.0000
  H   H46       1.0  0.79213  0.66360  0.19144  1.0000
  H   H47       1.0  0.77537  0.69417  0.19771  1.0000
  H   H48       1.0  0.86160  0.70129  0.32337  1.0000
  H   H49       1.0  0.92925  0.67998  0.20412  1.0000
  H   H50       1.0  0.97568  0.71208  0.19721  1.0000
  H   H51       1.0  0.88481  0.50132  0.20670  1.0000
  H   H52       1.0  0.87480  0.53673  0.21158  1.0000
  C   C93       1.0  0.44371  0.17030  0.32258  1.0000
  C   C94       1.0  0.45246  0.15139  0.32066  1.0000
  C   C95       1.0  0.48033  0.16531  0.31885  1.0000
  C   C96       1.0  0.54138  0.34553  0.26600  1.0000
  C   C97       1.0  0.56289  0.37238  0.26271  1.0000
  C   C98       1.0  0.38204  0.25694  0.26027  1.0000
  C   C99       1.0  0.36329  0.26605  0.25623  1.0000
  C   C100      1.0  0.37297  0.09211  0.25270  1.0000
  C   C101      1.0  0.39118  0.12011  0.24864  1.0000
  C   C102      1.0  0.55414  0.21253  0.24929  1.0000
  C   C103      1.0  0.57621  0.20805  0.25356  1.0000
  H   H53       1.0  0.58886  0.21368  0.19969  1.0000
  H   H54       1.0  0.55143  0.22105  0.19310  1.0000
  H   H55       1.0  0.56866  0.30600  0.33421  1.0000
  H   H56       1.0  0.49199  0.15637  0.31703  1.0000
  H   H57       1.0  0.40195  0.12824  0.19132  1.0000
  H   H58       1.0  0.37137  0.08092  0.19744  1.0000
  H   H59       1.0  0.36425  0.15998  0.32350  1.0000
  H   H60       1.0  0.38557  0.24893  0.20427  1.0000
  H   H61       1.0  0.35349  0.26329  0.19741  1.0000
  H   H62       1.0  0.56427  0.38316  0.20715  1.0000
  H   H63       1.0  0.52886  0.33775  0.21201  1.0000
  C   C104      1.0  0.77807  0.26367  0.33274  1.0000
  N   N10       1.0  0.81113  0.25468  0.33248  1.0000
  C   C105      1.0  0.82330  0.28203  0.32760  1.0000
  N   N11       1.0  0.87069  0.27121  0.32295  1.0000
  C   C106      1.0  0.89525  0.27309  0.32205  1.0000
  C   C107      1.0  0.91415  0.30074  0.32012  1.0000
  C   C108      1.0  0.90023  0.31470  0.31828  1.0000
  C   C109      1.0  0.90117  0.25168  0.32364  1.0000
  N   N12       1.0  0.85404  0.21161  0.33295  1.0000
  C   C110      1.0  0.84185  0.18425  0.33596  1.0000
  C   C111      1.0  0.88703  0.20254  0.32709  1.0000
  C   C112      1.0  0.76990  0.19323  0.34464  1.0000
  C   C113      1.0  0.76394  0.21458  0.34206  1.0000
  C   C114      1.0  0.72000  0.19549  0.26559  1.0000
  C   C115      1.0  0.69315  0.19015  0.26241  1.0000
  C   C116      1.0  0.68162  0.19757  0.33296  1.0000
  C   C117      1.0  0.80860  0.12476  0.26009  1.0000
  C   C118      1.0  0.79950  0.09690  0.25609  1.0000
  C   C119      1.0  0.92903  0.25900  0.32400  1.0000
  C   C120      1.0  0.98607  0.27845  0.33150  1.0000
  C   C121      1.0  0.97350  0.28053  0.25261  1.0000
  C   C122      1.0  0.94550  0.27075  0.24840  1.0000
  C   C123      1.0  0.85849  0.32965  0.32295  1.0000
  C   C124      1.0  0.85303  0.34131  0.24868  1.0000
  C   C125      1.0  0.85754  0.36787  0.25302  1.0000
  H   H64       1.0  0.85196  0.37491  0.19913  1.0000
  H   H65       1.0  0.84456  0.33010  0.19242  1.0000
  H   H66       1.0  0.75954  0.26233  0.33352  1.0000
  H   H67       1.0  0.82083  0.24498  0.33358  1.0000
  H   H68       1.0  0.90918  0.33530  0.31633  1.0000
  H   H69       1.0  0.93476  0.30974  0.32000  1.0000
  H   H70       1.0  0.93742  0.27343  0.19108  1.0000
  H   H71       1.0  0.98473  0.29016  0.19743  1.0000
  H   H72       1.0  0.90557  0.20396  0.32308  1.0000
  H   H73       1.0  0.81661  0.13630  0.20407  1.0000
  H   H74       1.0  0.80225  0.08986  0.19726  1.0000
  H   H75       1.0  0.68235  0.18071  0.20692  1.0000
  H   H76       1.0  0.72777  0.19072  0.21160  1.0000
  N   N13       1.0  0.21533  0.62018  0.25719  1.0000
  C   C126      1.0  0.21449  0.59607  0.24921  1.0000
  C   C127      1.0  0.21677  0.58341  0.32752  1.0000
  O   O1        1.0  0.21576  0.58786  0.16477  1.0000
  C   C128      1.0  0.19127  0.57890  0.11459  1.0000
  H   H77       1.0  0.18754  0.59559  0.10149  1.0000
  H   H78       1.0  0.17375  0.56260  0.14862  1.0000
  H   H79       1.0  0.19362  0.57113  0.05100  1.0000
  N   N14       1.0  0.44542  0.59478  0.25749  1.0000
  C   C129      1.0  0.46955  0.61806  0.24950  1.0000
  C   C130      1.0  0.48214  0.63303  0.32778  1.0000
  O   O2        1.0  0.47782  0.62750  0.16505  1.0000
  C   C131      1.0  0.48678  0.61191  0.11507  1.0000
  H   H80       1.0  0.47008  0.59151  0.10197  1.0000
  H   H81       1.0  0.50303  0.61067  0.14927  1.0000
  H   H82       1.0  0.49461  0.62201  0.05148  1.0000
  N   N15       1.0  0.47076  0.85027  0.25764  1.0000
  C   C132      1.0  0.44748  0.85111  0.24959  1.0000
  C   C133      1.0  0.43253  0.84886  0.32787  1.0000
  O   O3        1.0  0.43802  0.84983  0.16514  1.0000
  C   C134      1.0  0.45358  0.87432  0.11487  1.0000
  H   H83       1.0  0.47399  0.87804  0.10178  1.0000
  H   H84       1.0  0.45479  0.89184  0.14882  1.0000
  H   H85       1.0  0.44346  0.87197  0.05129  1.0000
  N   N16       1.0  0.87240  0.42336  0.25782  1.0000
  C   C135      1.0  0.87324  0.44748  0.24983  1.0000
  C   C136      1.0  0.87085  0.46009  0.32811  1.0000
  O   O4        1.0  0.87206  0.45573  0.16537  1.0000
  C   C137      1.0  0.89660  0.46470  0.11535  1.0000
  H   H86       1.0  0.90032  0.44801  0.10225  1.0000
  H   H87       1.0  0.91409  0.48097  0.14951  1.0000
  H   H88       1.0  0.89432  0.47252  0.05177  1.0000
  N   N17       1.0  0.64219  0.44873  0.25836  1.0000
  C   C138      1.0  0.61808  0.42545  0.25036  1.0000
  C   C139      1.0  0.60545  0.41045  0.32863  1.0000
  O   O5        1.0  0.60984  0.41604  0.16589  1.0000
  C   C140      1.0  0.60087  0.43162  0.11600  1.0000
  H   H89       1.0  0.61755  0.45203  0.10292  1.0000
  H   H90       1.0  0.58459  0.43281  0.15024  1.0000
  H   H91       1.0  0.59306  0.42154  0.05239  1.0000
  N   N18       1.0  0.61685  0.19318  0.25820  1.0000
  C   C141      1.0  0.64012  0.19233  0.25015  1.0000
  C   C142      1.0  0.65511  0.19470  0.32838  1.0000
  O   O6        1.0  0.64955  0.19350  0.16567  1.0000
  C   C143      1.0  0.63396  0.16895  0.11577  1.0000
  H   H92       1.0  0.61355  0.16524  0.10271  1.0000
  H   H93       1.0  0.63273  0.15146  0.14999  1.0000
  H   H94       1.0  0.64405  0.17122  0.05215  1.0000
  N   N19       1.0  0.02891  0.29603  0.25752  1.0000
  C   C144      1.0  0.05623  0.30898  0.24815  1.0000
  C   C145      1.0  0.07254  0.31923  0.32559  1.0000
  O   O7        1.0  0.06575  0.31451  0.16285  1.0000
  C   C146      1.0  0.06291  0.29124  0.11605  1.0000
  H   H95       1.0  0.04164  0.27620  0.10563  1.0000
  H   H96       1.0  0.07293  0.28189  0.15122  1.0000
  H   H97       1.0  0.07252  0.29793  0.05118  1.0000
  N   N20       1.0  0.76963  0.73262  0.25769  1.0000
  C   C147      1.0  0.75670  0.74701  0.24831  1.0000
  C   C148      1.0  0.74629  0.75295  0.32567  1.0000
  O   O8        1.0  0.75140  0.75117  0.16294  1.0000
  C   C149      1.0  0.77478  0.77178  0.11698  1.0000
  H   H98       1.0  0.78990  0.76564  0.10678  1.0000
  H   H99       1.0  0.78396  0.79105  0.15267  1.0000
  H   H100      1.0  0.76826  0.77482  0.05201  1.0000
  N   N21       1.0  0.33281  0.03672  0.25738  1.0000
  C   C150      1.0  0.31842  0.00941  0.24793  1.0000
  C   C151      1.0  0.31258  0.99303  0.32518  1.0000
  O   O9        1.0  0.31416  0.99999  0.16250  1.0000
  C   C152      1.0  0.29346  0.00273  0.11716  1.0000
  H   H101      1.0  0.29955  0.02399  0.10714  1.0000
  H   H102      1.0  0.27424  0.99260  0.15320  1.0000
  H   H103      1.0  0.29033  0.99318  0.05211  1.0000
  N   N22       1.0  0.05871  0.74739  0.25733  1.0000
  C   C153      1.0  0.03139  0.73444  0.24801  1.0000
  C   C154      1.0  0.01506  0.72424  0.32549  1.0000
  O   O10       1.0  0.02191  0.72889  0.16271  1.0000
  C   C155      1.0  0.02470  0.75215  0.11588  1.0000
  H   H104      1.0  0.04597  0.76723  0.10550  1.0000
  H   H105      1.0  0.01462  0.76144  0.15100  1.0000
  H   H106      1.0  0.01514  0.74544  0.05099  1.0000
  N   N23       1.0  0.31808  0.31092  0.25773  1.0000
  C   C156      1.0  0.33103  0.29656  0.24836  1.0000
  C   C157      1.0  0.34132  0.29052  0.32577  1.0000
  O   O11       1.0  0.33651  0.29254  0.16302  1.0000
  C   C158      1.0  0.31322  0.27203  0.11653  1.0000
  H   H107      1.0  0.29813  0.27820  0.10623  1.0000
  H   H108      1.0  0.30396  0.25269  0.15185  1.0000
  H   H109      1.0  0.31987  0.26911  0.05159  1.0000
  N   N24       1.0  0.75464  0.00682  0.25775  1.0000
  C   C159      1.0  0.76901  0.03414  0.24833  1.0000
  C   C160      1.0  0.77503  0.05047  0.32573  1.0000
  O   O12       1.0  0.77304  0.04361  0.16299  1.0000
  C   C161      1.0  0.79358  0.04085  0.11654  1.0000
  H   H110      1.0  0.78743  0.01958  0.10627  1.0000
  H   H111      1.0  0.81291  0.05094  0.15188  1.0000
  H   H112      1.0  0.79653  0.05042  0.05159  1.0000
  C   C162      1.0  0.30985  0.52939  0.32945  1.0000
  C   C163      1.0  0.26462  0.50260  0.33626  1.0000
  C   C164      1.0  0.31786  0.46699  0.32123  1.0000
  C   C165      1.0  0.24576  0.38614  0.32787  1.0000
  C   C166      1.0  0.20051  0.35935  0.33354  1.0000
  C   C167      1.0  0.18659  0.39448  0.34103  1.0000
  C   C168      1.0  0.19258  0.42182  0.34384  1.0000
  N   N25       1.0  0.21716  0.44446  0.34199  1.0000
  C   C169      1.0  0.18771  0.45849  0.34893  1.0000
  C   C170      1.0  0.17373  0.43062  0.34722  1.0000
  C   C171      1.0  0.23072  0.55461  0.40952  1.0000
  C   C172      1.0  0.23529  0.53260  0.41452  1.0000
  C   C173      1.0  0.15871  0.37402  0.33935  1.0000
  C   C174      1.0  0.10155  0.33635  0.32971  1.0000
  C   C175      1.0  0.11417  0.35028  0.40982  1.0000
  C   C176      1.0  0.14215  0.36849  0.41509  1.0000
  C   C177      1.0  0.27795  0.35872  0.40198  1.0000
  C   C178      1.0  0.28701  0.33991  0.40486  1.0000
  C   C179      1.0  0.36781  0.51948  0.39913  1.0000
  C   C180      1.0  0.39463  0.54103  0.40188  1.0000
  H   H113      1.0  0.40558  0.54286  0.45761  1.0000
  H   H114      1.0  0.36002  0.50720  0.45370  1.0000
  H   H115      1.0  0.32838  0.54655  0.32785  1.0000
  H   H116      1.0  0.26927  0.36152  0.45765  1.0000
  H   H117      1.0  0.28349  0.32906  0.46201  1.0000
  H   H118      1.0  0.18191  0.34225  0.33541  1.0000
  H   H119      1.0  0.17882  0.47020  0.35145  1.0000
  H   H120      1.0  0.15311  0.41904  0.34816  1.0000
  H   H121      1.0  0.15017  0.37858  0.47354  1.0000
  H   H122      1.0  0.10304  0.34798  0.46587  1.0000
  H   H123      1.0  0.24400  0.53013  0.47065  1.0000
  H   H124      1.0  0.23651  0.56737  0.46307  1.0000
  C   C181      1.0  0.53616  0.78011  0.32925  1.0000
  C   C182      1.0  0.56295  0.76168  0.33618  1.0000
  N   N26       1.0  0.57818  0.78904  0.33233  1.0000
  C   C183      1.0  0.57122  0.82922  0.32286  1.0000
  C   C184      1.0  0.59855  0.85055  0.32154  1.0000
  C   C185      1.0  0.67941  0.85931  0.32810  1.0000
  N   N27       1.0  0.66417  0.83197  0.33314  1.0000
  C   C186      1.0  0.70620  0.84084  0.33332  1.0000
  C   C187      1.0  0.67108  0.79181  0.34146  1.0000
  C   C188      1.0  0.64374  0.77045  0.34425  1.0000
  N   N28       1.0  0.62109  0.77238  0.34216  1.0000
  C   C189      1.0  0.60706  0.72890  0.34946  1.0000
  C   C190      1.0  0.63494  0.74280  0.34798  1.0000
  C   C191      1.0  0.57110  0.74186  0.34181  1.0000
  C   C192      1.0  0.55042  0.71404  0.34128  1.0000
  C   C193      1.0  0.50579  0.65954  0.33244  1.0000
  C   C194      1.0  0.51089  0.67583  0.40963  1.0000
  C   C195      1.0  0.53292  0.70238  0.41467  1.0000
  C   C196      1.0  0.69152  0.78438  0.33963  1.0000
  C   C197      1.0  0.72918  0.76487  0.32981  1.0000
  C   C198      1.0  0.71540  0.76376  0.41014  1.0000
  C   C199      1.0  0.69716  0.77350  0.41545  1.0000
  C   C200      1.0  0.70688  0.91893  0.40217  1.0000
  C   C201      1.0  0.72569  0.94679  0.40495  1.0000
  C   C202      1.0  0.72934  0.96400  0.33178  1.0000
  C   C203      1.0  0.55057  0.83641  0.32290  1.0000
  C   C204      1.0  0.54602  0.84795  0.39935  1.0000
  C   C205      1.0  0.50595  0.84613  0.33058  1.0000
  C   C206      1.0  0.52448  0.85324  0.40212  1.0000
  H   H125      1.0  0.52265  0.86236  0.45787  1.0000
  H   H126      1.0  0.55828  0.85243  0.45392  1.0000
  H   H127      1.0  0.51899  0.78148  0.32754  1.0000
  H   H128      1.0  0.59759  0.79875  0.33335  1.0000
  H   H129      1.0  0.64476  0.82232  0.33517  1.0000
  H   H130      1.0  0.70411  0.90746  0.45781  1.0000
  H   H131      1.0  0.73657  0.95414  0.46200  1.0000
  H   H132      1.0  0.72329  0.83934  0.33497  1.0000
  H   H133      1.0  0.59536  0.70832  0.35238  1.0000
  H   H134      1.0  0.64653  0.73378  0.34931  1.0000
  H   H135      1.0  0.68718  0.77156  0.47408  1.0000
  H   H136      1.0  0.71778  0.75503  0.46629  1.0000
  H   H137      1.0  0.53532  0.71361  0.47065  1.0000
  H   H138      1.0  0.49809  0.66888  0.46314  1.0000
  C   C207      1.0  0.21501  0.74770  0.32072  1.0000
  C   C208      1.0  0.29509  0.87297  0.34353  1.0000
  C   C209      1.0  0.33663  0.87785  0.34898  1.0000
  C   C210      1.0  0.32273  0.89183  0.34734  1.0000
  C   C211      1.0  0.38970  0.83479  0.40965  1.0000
  C   C212      1.0  0.36313  0.83023  0.41458  1.0000
  C   C213      1.0  0.30173  0.95131  0.40950  1.0000
  C   C214      1.0  0.29196  0.92332  0.41478  1.0000
  C   C215      1.0  0.14662  0.78758  0.40142  1.0000
  C   C216      1.0  0.11876  0.77853  0.40435  1.0000
  C   C217      1.0  0.21755  0.69776  0.39869  1.0000
  C   C218      1.0  0.21227  0.67093  0.40150  1.0000
  H   H139      1.0  0.20311  0.65997  0.45722  1.0000
  H   H140      1.0  0.21303  0.70553  0.45323  1.0000
  H   H141      1.0  0.28407  0.73720  0.32738  1.0000
  H   H142      1.0  0.15810  0.79627  0.45704  1.0000
  H   H143      1.0  0.11142  0.78205  0.46149  1.0000
  H   H144      1.0  0.22620  0.88364  0.33445  1.0000
  H   H145      1.0  0.35722  0.88673  0.35210  1.0000
  H   H146      1.0  0.33175  0.91244  0.34865  1.0000
  H   H147      1.0  0.29390  0.91527  0.47336  1.0000
  H   H148      1.0  0.31040  0.96239  0.46573  1.0000
  H   H149      1.0  0.35189  0.82145  0.47061  1.0000
  H   H150      1.0  0.39664  0.82897  0.46322  1.0000
  C   C219      1.0  0.77775  0.51410  0.32961  1.0000
  C   C220      1.0  0.80185  0.51407  0.33300  1.0000
  C   C221      1.0  0.82298  0.54088  0.33658  1.0000
  N   N29       1.0  0.81085  0.55612  0.33287  1.0000
  C   C222      1.0  0.76372  0.54918  0.32346  1.0000
  C   C223      1.0  0.76974  0.57651  0.32210  1.0000
  C   C224      1.0  0.84185  0.65735  0.32817  1.0000
  N   N30       1.0  0.85393  0.64210  0.33326  1.0000
  C   C225      1.0  0.88710  0.68413  0.33328  1.0000
  C   C226      1.0  0.90101  0.64900  0.34152  1.0000
  C   C227      1.0  0.89501  0.62166  0.34447  1.0000
  N   N31       1.0  0.87043  0.59902  0.34240  1.0000
  C   C228      1.0  0.89987  0.58498  0.34974  1.0000
  C   C229      1.0  0.91386  0.61286  0.34820  1.0000
  C   C230      1.0  0.85094  0.54902  0.34224  1.0000
  C   C231      1.0  0.85808  0.52834  0.34164  1.0000
  C   C232      1.0  0.86797  0.48372  0.33277  1.0000
  C   C233      1.0  0.85677  0.48882  0.40997  1.0000
  C   C234      1.0  0.85222  0.51083  0.41500  1.0000
  C   C235      1.0  0.92888  0.66944  0.33965  1.0000
  C   C236      1.0  0.98605  0.70710  0.32971  1.0000
  C   C237      1.0  0.97340  0.69330  0.41002  1.0000
  C   C238      1.0  0.94542  0.67509  0.41542  1.0000
  C   C239      1.0  0.80972  0.68488  0.40213  1.0000
  C   C240      1.0  0.80066  0.70368  0.40486  1.0000
  C   C241      1.0  0.78706  0.70727  0.33170  1.0000
  C   C242      1.0  0.73589  0.52853  0.32350  1.0000
  C   C243      1.0  0.71979  0.52398  0.39999  1.0000
  C   C244      1.0  0.68156  0.48390  0.33122  1.0000
  C   C245      1.0  0.69296  0.50242  0.40279  1.0000
  H   H151      1.0  0.68201  0.50057  0.45859  1.0000
  H   H152      1.0  0.72758  0.53622  0.45460  1.0000
  H   H153      1.0  0.75922  0.49693  0.32791  1.0000
  H   H154      1.0  0.82056  0.57552  0.33399  1.0000
  H   H155      1.0  0.84417  0.62270  0.33529  1.0000
  H   H156      1.0  0.81843  0.68213  0.45779  1.0000
  H   H157      1.0  0.80419  0.71459  0.46186  1.0000
  H   H158      1.0  0.90571  0.70122  0.33487  1.0000
  H   H159      1.0  0.90875  0.57327  0.35278  1.0000
  H   H160      1.0  0.93447  0.62444  0.34949  1.0000
  H   H161      1.0  0.93738  0.66509  0.47403  1.0000
  H   H162      1.0  0.98452  0.69569  0.46613  1.0000
  H   H163      1.0  0.84343  0.51326  0.47104  1.0000
  H   H164      1.0  0.85094  0.47604  0.46350  1.0000
  C   C246      1.0  0.55144  0.26334  0.33008  1.0000
  C   C247      1.0  0.55147  0.28747  0.33360  1.0000
  C   C248      1.0  0.52466  0.28178  0.33710  1.0000
  N   N32       1.0  0.50943  0.25441  0.33328  1.0000
  C   C249      1.0  0.52460  0.24223  0.32843  1.0000
  C   C250      1.0  0.51638  0.21424  0.32368  1.0000
  C   C251      1.0  0.48905  0.19292  0.32218  1.0000
  N   N33       1.0  0.46640  0.19486  0.32358  1.0000
  C   C252      1.0  0.41638  0.16438  0.32409  1.0000
  C   C253      1.0  0.40819  0.18417  0.32827  1.0000
  N   N34       1.0  0.42344  0.21150  0.33334  1.0000
  C   C254      1.0  0.40826  0.22369  0.33628  1.0000
  C   C255      1.0  0.38141  0.20264  0.33345  1.0000
  C   C256      1.0  0.38137  0.17851  0.32752  1.0000
  C   C257      1.0  0.41653  0.25167  0.34163  1.0000
  C   C258      1.0  0.44387  0.27302  0.34471  1.0000
  N   N35       1.0  0.46651  0.27109  0.34278  1.0000
  C   C259      1.0  0.48920  0.29564  0.34519  1.0000
  C   C260      1.0  0.48054  0.31456  0.35016  1.0000
  C   C261      1.0  0.45266  0.30067  0.34838  1.0000
  C   C262      1.0  0.51650  0.30160  0.34266  1.0000
  C   C263      1.0  0.53718  0.32942  0.34212  1.0000
  C   C264      1.0  0.58181  0.38393  0.33328  1.0000
  C   C265      1.0  0.57667  0.36764  0.41052  1.0000
  C   C266      1.0  0.55467  0.34107  0.41548  1.0000
  C   C267      1.0  0.39608  0.25910  0.33980  1.0000
  C   C268      1.0  0.35843  0.27862  0.32995  1.0000
  C   C269      1.0  0.37221  0.27976  0.41024  1.0000
  C   C270      1.0  0.39042  0.26999  0.41560  1.0000
  C   C271      1.0  0.39584  0.13652  0.32431  1.0000
  C   C272      1.0  0.38066  0.12450  0.40211  1.0000
  C   C273      1.0  0.36185  0.09663  0.40476  1.0000
  C   C274      1.0  0.35827  0.07948  0.33152  1.0000
  C   C275      1.0  0.53702  0.20705  0.32363  1.0000
  C   C276      1.0  0.54156  0.19549  0.40004  1.0000
  C   C277      1.0  0.58167  0.19737  0.33117  1.0000
  C   C278      1.0  0.56312  0.19022  0.40275  1.0000
  H   H165      1.0  0.56496  0.18111  0.45850  1.0000
  H   H166      1.0  0.52930  0.19101  0.45466  1.0000
  H   H167      1.0  0.56861  0.26197  0.32838  1.0000
  H   H168      1.0  0.49001  0.24471  0.33428  1.0000
  H   H169      1.0  0.44284  0.22115  0.33537  1.0000
  H   H170      1.0  0.44084  0.13078  0.32052  1.0000
  H   H171      1.0  0.38339  0.13594  0.45781  1.0000
  H   H172      1.0  0.35092  0.08923  0.46176  1.0000
  H   H173      1.0  0.36431  0.20415  0.33503  1.0000
  H   H174      1.0  0.49224  0.33515  0.35287  1.0000
  H   H175      1.0  0.44108  0.30969  0.34944  1.0000
  H   H176      1.0  0.40041  0.27195  0.47419  1.0000
  H   H177      1.0  0.36981  0.28848  0.46637  1.0000
  H   H178      1.0  0.55220  0.32986  0.47156  1.0000
  H   H179      1.0  0.58943  0.37458  0.46404  1.0000
  C   C279      1.0  0.80219  0.28777  0.32932  1.0000
  C   C280      1.0  0.78376  0.24255  0.33635  1.0000
  C   C281      1.0  0.85131  0.30181  0.32290  1.0000
  C   C282      1.0  0.87262  0.29580  0.32151  1.0000
  C   C283      1.0  0.88137  0.22370  0.32782  1.0000
  C   C284      1.0  0.86291  0.17845  0.33310  1.0000
  C   C285      1.0  0.81387  0.16454  0.34143  1.0000
  C   C286      1.0  0.79252  0.17052  0.34433  1.0000
  N   N36       1.0  0.79445  0.19510  0.34225  1.0000
  C   C287      1.0  0.75098  0.16566  0.34974  1.0000
  C   C288      1.0  0.76487  0.15167  0.34816  1.0000
  C   C289      1.0  0.73612  0.20744  0.34162  1.0000
  C   C290      1.0  0.69792  0.20877  0.41008  1.0000
  C   C291      1.0  0.72448  0.21329  0.41503  1.0000
  C   C292      1.0  0.80645  0.13666  0.33963  1.0000
  C   C293      1.0  0.78694  0.07949  0.32985  1.0000
  C   C294      1.0  0.78581  0.09215  0.41016  1.0000
  C   C295      1.0  0.79555  0.12012  0.41546  1.0000
  C   C296      1.0  0.94098  0.25582  0.40184  1.0000
  C   C297      1.0  0.96884  0.26486  0.40464  1.0000
  C   C298      1.0  0.87002  0.34572  0.39942  1.0000
  C   C299      1.0  0.86819  0.38397  0.33067  1.0000
  C   C300      1.0  0.87530  0.37255  0.40222  1.0000
  H   H180      1.0  0.88440  0.38349  0.45800  1.0000
  H   H181      1.0  0.87448  0.33793  0.45400  1.0000
  H   H182      1.0  0.80356  0.30630  0.32756  1.0000
  H   H183      1.0  0.84439  0.22137  0.33501  1.0000
  H   H184      1.0  0.92950  0.24709  0.45747  1.0000
  H   H185      1.0  0.97617  0.26130  0.46167  1.0000
  H   H186      1.0  0.86140  0.15985  0.33476  1.0000
  H   H187      1.0  0.73039  0.15677  0.35274  1.0000
  H   H188      1.0  0.75585  0.13106  0.34951  1.0000
  H   H189      1.0  0.79361  0.12816  0.47408  1.0000
  H   H190      1.0  0.77708  0.08103  0.46632  1.0000
  H   H191      1.0  0.73572  0.22212  0.47096  1.0000
  H   H192      1.0  0.69099  0.21461  0.46360  1.0000
  C   C301      1.0  0.21675  0.63318  0.33466  1.0000
  N   N37       1.0  0.21849  0.59667  0.40471  1.0000
  C   C302      1.0  0.21787  0.62004  0.41327  1.0000
  O   O13       1.0  0.22300  0.63177  0.49571  1.0000
  C   C303      1.0  0.20214  0.61671  0.56015  1.0000
  H   H193      1.0  0.20027  0.59703  0.57331  1.0000
  H   H194      1.0  0.18259  0.61384  0.53852  1.0000
  H   H195      1.0  0.20769  0.62818  0.62211  1.0000
  C   C304      1.0  0.43236  0.58326  0.33496  1.0000
  N   N38       1.0  0.46883  0.62153  0.40497  1.0000
  C   C305      1.0  0.44545  0.59756  0.41356  1.0000
  O   O14       1.0  0.43365  0.59101  0.49593  1.0000
  C   C306      1.0  0.44868  0.58532  0.56075  1.0000
  H   H196      1.0  0.46831  0.60319  0.57395  1.0000
  H   H197      1.0  0.45165  0.56867  0.53946  1.0000
  H   H198      1.0  0.43714  0.57942  0.62261  1.0000
  C   C307      1.0  0.48232  0.84886  0.33514  1.0000
  N   N39       1.0  0.44404  0.84713  0.40510  1.0000
  C   C308      1.0  0.46802  0.84774  0.41372  1.0000
  O   O15       1.0  0.47459  0.84262  0.49622  1.0000
  C   C309      1.0  0.48046  0.86355  0.56042  1.0000
  H   H199      1.0  0.46269  0.86551  0.57348  1.0000
  H   H200      1.0  0.49718  0.88306  0.53860  1.0000
  H   H201      1.0  0.48634  0.85802  0.62247  1.0000
  C   C310      1.0  0.87090  0.41033  0.33529  1.0000
  N   N40       1.0  0.86904  0.44678  0.40529  1.0000
  C   C311      1.0  0.86966  0.42342  0.41388  1.0000
  O   O16       1.0  0.86441  0.41163  0.49627  1.0000
  C   C312      1.0  0.88516  0.42667  0.56099  1.0000
  H   H202      1.0  0.88696  0.44632  0.57416  1.0000
  H   H203      1.0  0.90476  0.42960  0.53963  1.0000
  H   H204      1.0  0.87953  0.41515  0.62288  1.0000
  C   C313      1.0  0.65521  0.46025  0.33583  1.0000
  N   N41       1.0  0.61874  0.42193  0.40582  1.0000
  C   C314      1.0  0.64210  0.44591  0.41442  1.0000
  O   O17       1.0  0.65387  0.45244  0.49680  1.0000
  C   C315      1.0  0.63881  0.45814  0.56156  1.0000
  H   H205      1.0  0.61916  0.44029  0.57473  1.0000
  H   H206      1.0  0.63589  0.47481  0.54025  1.0000
  H   H207      1.0  0.65031  0.46402  0.62345  1.0000
  C   C316      1.0  0.60533  0.19470  0.33571  1.0000
  N   N42       1.0  0.64362  0.19650  0.40560  1.0000
  C   C317      1.0  0.61964  0.19589  0.41426  1.0000
  O   O18       1.0  0.61309  0.20112  0.49667  1.0000
  C   C318      1.0  0.60738  0.18037  0.56141  1.0000
  H   H208      1.0  0.62523  0.17857  0.57453  1.0000
  H   H209      1.0  0.59072  0.16077  0.54009  1.0000
  H   H210      1.0  0.60149  0.18598  0.62332  1.0000
  C   C319      1.0  0.01496  0.29036  0.33546  1.0000
  N   N43       1.0  0.05842  0.31355  0.40329  1.0000
  C   C320      1.0  0.03114  0.29932  0.41329  1.0000
  O   O19       1.0  0.02113  0.29849  0.49672  1.0000
  C   C321      1.0  0.02613  0.28227  0.55873  1.0000
  H   H211      1.0  0.04778  0.29066  0.57001  1.0000
  H   H212      1.0  0.01728  0.26136  0.53589  1.0000
  H   H213      1.0  0.01674  0.28222  0.62198  1.0000
  C   C322      1.0  0.77512  0.72421  0.33563  1.0000
  N   N44       1.0  0.75182  0.74439  0.40335  1.0000
  C   C323      1.0  0.76602  0.73131  0.41343  1.0000
  O   O20       1.0  0.76670  0.72200  0.49674  1.0000
  C   C324      1.0  0.78263  0.74310  0.55945  1.0000
  H   H214      1.0  0.77407  0.75620  0.57082  1.0000
  H   H215      1.0  0.80360  0.75533  0.53721  1.0000
  H   H216      1.0  0.78258  0.73364  0.62253  1.0000
  C   C325      1.0  0.34130  0.05060  0.33535  1.0000
  N   N45       1.0  0.32123  0.00710  0.40285  1.0000
  C   C326      1.0  0.33431  0.03438  0.41306  1.0000
  O   O21       1.0  0.34376  0.04436  0.49627  1.0000
  C   C327      1.0  0.32276  0.03909  0.55960  1.0000
  H   H217      1.0  0.30976  0.01741  0.57101  1.0000
  H   H218      1.0  0.31040  0.04774  0.53794  1.0000
  H   H219      1.0  0.33232  0.04852  0.62254  1.0000
  C   C328      1.0  0.07265  0.75309  0.33525  1.0000
  N   N46       1.0  0.02916  0.72994  0.40316  1.0000
  C   C329      1.0  0.05644  0.74416  0.41311  1.0000
  O   O22       1.0  0.06641  0.74503  0.49658  1.0000
  C   C330      1.0  0.06145  0.76135  0.55832  1.0000
  H   H220      1.0  0.03981  0.75304  0.56957  1.0000
  H   H221      1.0  0.07038  0.78225  0.53524  1.0000
  H   H222      1.0  0.07080  0.76143  0.62164  1.0000
  C   C331      1.0  0.31244  0.31923  0.33565  1.0000
  N   N47       1.0  0.33566  0.29897  0.40345  1.0000
  C   C332      1.0  0.32144  0.31204  0.41348  1.0000
  O   O23       1.0  0.32062  0.32121  0.49689  1.0000
  C   C333      1.0  0.30443  0.30001  0.55901  1.0000
  H   H223      1.0  0.31282  0.28675  0.57028  1.0000
  H   H224      1.0  0.28351  0.28795  0.53628  1.0000
  H   H225      1.0  0.30440  0.30936  0.62225  1.0000
  C   C334      1.0  0.74632  0.99289  0.33571  1.0000
  N   N48       1.0  0.76657  0.03637  0.40343  1.0000
  C   C335      1.0  0.75350  0.00909  0.41350  1.0000
  O   O24       1.0  0.74432  0.99911  0.49693  1.0000
  C   C336      1.0  0.76551  0.00415  0.55904  1.0000
  H   H226      1.0  0.77875  0.02580  0.57029  1.0000
  H   H227      1.0  0.77759  0.99530  0.53631  1.0000
  H   H228      1.0  0.75616  0.99477  0.62229  1.0000
