data_image0
_chemical_formula_structural       C2NCHCHC2H3C2H2OCNCNCNC2NC4NHOHC5NHC2NC4NHC4NC2NH2C4NC2NH2C2H3OC2H3OC2H3OC2H3ONCNCNCNCN2CNCNCNCNCNCNCNCNCNCHOC2H2OC2H2OC4NC2NHC4NC2NHC4NC2NHC4NC2NH
_chemical_formula_sum              "C90 N36 H36 O9"
_cell_length_a       30.0324
_cell_length_b       30.0324
_cell_length_c       14.6338
_cell_angle_alpha    90
_cell_angle_beta     90
_cell_angle_gamma    120

_space_group_name_H-M_alt    "P 1"
_space_group_IT_number       1

loop_
  _space_group_symop_operation_xyz
  'x, y, z'

loop_
  _atom_site_type_symbol
  _atom_site_label
  _atom_site_symmetry_multiplicity
  _atom_site_fract_x
  _atom_site_fract_y
  _atom_site_fract_z
  _atom_site_occupancy
  C   C1        1.0  0.04610  0.52609  0.23326  1.0000
  C   C2        1.0  0.07430  0.54039  0.31618  1.0000
  N   N1        1.0  0.07148  0.53871  0.15207  1.0000
  C   C3        1.0  0.04720  0.52641  0.07028  1.0000
  H   H1        1.0  0.06808  0.53681  0.01121  1.0000
  C   C4        1.0  0.04575  0.52622  0.39839  1.0000
  H   H2        1.0  0.06438  0.53569  0.46004  1.0000
  C   C5        1.0  0.25089  0.52385  0.30799  1.0000
  C   C6        1.0  0.29783  0.52321  0.30872  1.0000
  H   H3        1.0  0.26532  0.59204  0.00866  1.0000
  H   H4        1.0  0.31006  0.51561  0.24850  1.0000
  H   H5        1.0  0.23137  0.51645  0.24748  1.0000
  C   C7        1.0  0.29787  0.78037  0.30840  1.0000
  C   C8        1.0  0.25029  0.73345  0.30939  1.0000
  H   H6        1.0  0.23034  0.72122  0.24928  1.0000
  H   H7        1.0  0.30988  0.79986  0.24783  1.0000
  O   O1        1.0  0.26538  0.68068  0.03521  1.0000
  C   C9        1.0  0.20386  0.64551  0.36968  1.0000
  N   N2        1.0  0.15459  0.62010  0.33748  1.0000
  C   C10       1.0  0.12927  0.56810  0.32183  1.0000
  N   N3        1.0  0.15518  0.54183  0.33585  1.0000
  C   C11       1.0  0.20447  0.56595  0.36813  1.0000
  N   N4        1.0  0.22653  0.61697  0.38512  1.0000
  C   C12       1.0  0.26838  0.55879  0.46121  1.0000
  C   C13       1.0  0.23722  0.54515  0.38177  1.0000
  N   N5        1.0  0.25309  0.57228  0.53890  1.0000
  C   C14       1.0  0.27948  0.58384  0.61841  1.0000
  C   C15       1.0  0.23602  0.69905  0.38433  1.0000
  C   C16       1.0  0.26756  0.71630  0.46386  1.0000
  C   C17       1.0  0.28231  0.70627  0.62184  1.0000
  N   N6        1.0  0.25317  0.68956  0.54480  1.0000
  H   H8        1.0  0.21968  0.65851  0.55006  1.0000
  O   O2        1.0  0.35087  0.59072  0.03477  1.0000
  H   H9        1.0  0.35234  0.76607  0.00856  1.0000
  C   C18       1.0  0.38575  0.56467  0.36896  1.0000
  C   C19       1.0  0.38655  0.82675  0.36794  1.0000
  C   C20       1.0  0.33221  0.54328  0.38369  1.0000
  C   C21       1.0  0.31506  0.55746  0.46345  1.0000
  C   C22       1.0  0.32517  0.58204  0.62152  1.0000
  N   N7        1.0  0.34190  0.56980  0.54428  1.0000
  H   H10       1.0  0.37296  0.56738  0.54937  1.0000
  C   C23       1.0  0.31562  0.76294  0.46136  1.0000
  C   C24       1.0  0.33302  0.79409  0.38190  1.0000
  N   N8        1.0  0.34456  0.77823  0.53888  1.0000
  C   C25       1.0  0.32987  0.75188  0.61843  1.0000
  C   C26       1.0  0.96292  0.48450  0.31598  1.0000
  C   C27       1.0  0.99086  0.49837  0.23222  1.0000
  C   C28       1.0  0.99323  0.49931  0.06860  1.0000
  N   N9        1.0  0.96685  0.48619  0.14888  1.0000
  H   H11       1.0  0.92945  0.46741  0.14540  1.0000
  C   C29       1.0  0.54672  0.48465  0.31550  1.0000
  C   C30       1.0  0.53271  0.49860  0.23177  1.0000
  C   C31       1.0  0.50500  0.52612  0.23284  1.0000
  C   C32       1.0  0.49084  0.54016  0.31578  1.0000
  N   N10       1.0  0.49226  0.53878  0.15168  1.0000
  C   C33       1.0  0.50445  0.52671  0.06986  1.0000
  C   C34       1.0  0.53154  0.49983  0.06814  1.0000
  N   N11       1.0  0.54478  0.48667  0.14840  1.0000
  H   H12       1.0  0.49397  0.53713  0.01081  1.0000
  H   H13       1.0  0.56354  0.46805  0.14490  1.0000
  C   C35       1.0  0.54666  0.06834  0.31590  1.0000
  C   C36       1.0  0.53258  0.04040  0.23215  1.0000
  C   C37       1.0  0.50506  0.98517  0.23317  1.0000
  C   C38       1.0  0.49119  0.95695  0.31610  1.0000
  N   N12       1.0  0.49228  0.95978  0.15199  1.0000
  C   C39       1.0  0.50422  0.98407  0.07019  1.0000
  C   C40       1.0  0.53109  0.03803  0.06853  1.0000
  N   N13       1.0  0.54438  0.06442  0.14881  1.0000
  H   H14       1.0  0.49372  0.96318  0.01113  1.0000
  H   H15       1.0  0.56300  0.10181  0.14534  1.0000
  C   C41       1.0  0.50734  0.73332  0.30751  1.0000
  C   C42       1.0  0.50798  0.78089  0.30851  1.0000
  H   H16       1.0  0.43973  0.67937  0.00841  1.0000
  H   H17       1.0  0.51545  0.80074  0.24832  1.0000
  H   H18       1.0  0.51458  0.72120  0.24683  1.0000
  O   O3        1.0  0.44115  0.76627  0.03500  1.0000
  C   C43       1.0  0.78662  0.50125  0.31026  1.0000
  C   C44       1.0  0.73970  0.50190  0.31106  1.0000
  H   H19       1.0  0.77252  0.43347  0.01114  1.0000
  H   H20       1.0  0.72733  0.50939  0.25088  1.0000
  H   H21       1.0  0.80610  0.50859  0.24968  1.0000
  O   O4        1.0  0.68692  0.43473  0.03725  1.0000
  C   C45       1.0  0.53006  0.29153  0.31013  1.0000
  C   C46       1.0  0.52933  0.24392  0.31123  1.0000
  H   H22       1.0  0.59811  0.34589  0.01074  1.0000
  H   H23       1.0  0.52180  0.22395  0.25118  1.0000
  H   H24       1.0  0.52268  0.30357  0.24949  1.0000
  O   O5        1.0  0.59645  0.25889  0.03761  1.0000
  C   C47       1.0  0.73980  0.24449  0.31131  1.0000
  C   C48       1.0  0.78739  0.29140  0.31219  1.0000
  H   H25       1.0  0.68523  0.25918  0.01121  1.0000
  H   H26       1.0  0.80741  0.30364  0.25216  1.0000
  H   H27       1.0  0.72785  0.22488  0.25085  1.0000
  O   O6        1.0  0.77212  0.34467  0.03763  1.0000
  N   N14       1.0  0.41113  0.54074  0.33691  1.0000
  C   C49       1.0  0.46315  0.56744  0.32139  1.0000
  N   N15       1.0  0.48948  0.61960  0.33542  1.0000
  C   C50       1.0  0.46535  0.64480  0.36751  1.0000
  N   N16       1.0  0.41432  0.61588  0.38440  1.0000
  C   C51       1.0  0.46671  0.82736  0.36906  1.0000
  N   N17       1.0  0.49057  0.87669  0.33711  1.0000
  C   C52       1.0  0.46384  0.90198  0.32170  1.0000
  N   N18       1.0  0.41168  0.87607  0.33584  1.0000
  N   N19       1.0  0.41552  0.80468  0.38473  1.0000
  C   C53       1.0  0.83360  0.37951  0.37200  1.0000
  N   N20       1.0  0.88272  0.40481  0.33909  1.0000
  C   C54       1.0  0.90799  0.45678  0.32321  1.0000
  N   N21       1.0  0.88218  0.48313  0.33738  1.0000
  C   C55       1.0  0.83304  0.45911  0.37031  1.0000
  N   N22       1.0  0.81105  0.40814  0.38773  1.0000
  C   C56       1.0  0.65179  0.46039  0.37114  1.0000
  N   N23       1.0  0.62643  0.48417  0.33838  1.0000
  C   C57       1.0  0.57443  0.45744  0.32267  1.0000
  N   N24       1.0  0.54816  0.40528  0.33691  1.0000
  C   C58       1.0  0.57224  0.38020  0.36982  1.0000
  N   N25       1.0  0.62323  0.40922  0.38700  1.0000
  C   C59       1.0  0.57083  0.19758  0.37180  1.0000
  N   N26       1.0  0.54708  0.14848  0.33875  1.0000
  C   C60       1.0  0.57387  0.12327  0.32314  1.0000
  N   N27       1.0  0.62599  0.14907  0.33769  1.0000
  C   C61       1.0  0.65102  0.19816  0.37088  1.0000
  N   N28       1.0  0.62197  0.22013  0.38790  1.0000
  C   C62       1.0  0.99153  0.49898  0.39826  1.0000
  H   H28       1.0  0.97291  0.48973  0.45985  1.0000
  O   O7        1.0  0.96805  0.48655  0.65438  1.0000
  C   C63       1.0  0.50514  0.52588  0.39798  1.0000
  C   C64       1.0  0.53237  0.49889  0.39780  1.0000
  H   H29       1.0  0.54173  0.48961  0.45938  1.0000
  H   H30       1.0  0.49577  0.53514  0.45963  1.0000
  O   O8        1.0  0.54419  0.48731  0.65391  1.0000
  C   C65       1.0  0.50559  0.98550  0.39831  1.0000
  C   C66       1.0  0.53258  0.03972  0.39818  1.0000
  H   H31       1.0  0.54195  0.05834  0.45977  1.0000
  H   H32       1.0  0.49643  0.96687  0.45996  1.0000
  O   O9        1.0  0.54350  0.06322  0.65432  1.0000
  C   C67       1.0  0.48816  0.79527  0.38382  1.0000
  C   C68       1.0  0.47412  0.76386  0.46346  1.0000
  C   C69       1.0  0.47276  0.71583  0.46096  1.0000
  C   C70       1.0  0.48624  0.69834  0.38132  1.0000
  N   N29       1.0  0.45933  0.68699  0.53858  1.0000
  C   C71       1.0  0.44785  0.70176  0.61823  1.0000
  C   C72       1.0  0.44973  0.74929  0.62161  1.0000
  N   N30       1.0  0.46193  0.77833  0.54445  1.0000
  H   H33       1.0  0.46429  0.81179  0.54965  1.0000
  C   C73       1.0  0.70531  0.48179  0.38607  1.0000
  C   C74       1.0  0.72257  0.46772  0.46581  1.0000
  C   C75       1.0  0.76926  0.46640  0.46354  1.0000
  C   C76       1.0  0.80031  0.47995  0.38400  1.0000
  N   N31       1.0  0.78462  0.45300  0.54128  1.0000
  C   C77       1.0  0.75825  0.44148  0.62081  1.0000
  C   C78       1.0  0.71256  0.44330  0.62395  1.0000
  N   N32       1.0  0.69578  0.45544  0.54667  1.0000
  H   H34       1.0  0.66471  0.45786  0.55177  1.0000
  C   C79       1.0  0.54949  0.22980  0.38637  1.0000
  C   C80       1.0  0.56362  0.26124  0.46597  1.0000
  C   C81       1.0  0.56504  0.30929  0.46335  1.0000
  C   C82       1.0  0.55146  0.32666  0.38365  1.0000
  N   N33       1.0  0.57853  0.33820  0.54089  1.0000
  C   C83       1.0  0.59003  0.32349  0.62057  1.0000
  C   C84       1.0  0.58802  0.27590  0.62411  1.0000
  N   N34       1.0  0.57582  0.24681  0.54701  1.0000
  H   H35       1.0  0.57328  0.21328  0.55235  1.0000
  C   C85       1.0  0.80142  0.32598  0.38683  1.0000
  C   C86       1.0  0.76990  0.30887  0.46639  1.0000
  C   C87       1.0  0.72188  0.26219  0.46400  1.0000
  C   C88       1.0  0.70456  0.23097  0.38460  1.0000
  N   N35       1.0  0.69298  0.24693  0.54156  1.0000
  C   C89       1.0  0.70767  0.27334  0.62105  1.0000
  C   C90       1.0  0.75518  0.31901  0.62432  1.0000
  N   N36       1.0  0.78428  0.33572  0.54722  1.0000
  H   H36       1.0  0.81778  0.36674  0.55244  1.0000
