data_image0
_chemical_formula_structural       C15NH2NH2NHC3NH2NH2NHC3NH2NH2NHC3NH2NH2NHC3NH2NH2NHC3NH2NH2NHC3NH2NH2NHC3NH2NH2NHC3NH2NH2NHC3NH2NH2NHC3NH2NH2NHC3NH2NH2NHC3NH2NH2NHC3NH2NH2NHC3NH2NH2NHC3NH2NH2NHC3NH2NH2NHC3NH2NH2NHC5H3C2O3C5H3C2O3C5H3C2O3C5H3C2O3C5H3C2O3C5H3C2O3C6H3C3O3C6H3C3O3C6H3C3O3C6H3C3O3C6H3C3O3C6H3C3O3C3NH2NH2NHC3NH2NH2NHC3NH2NH2NHC3NH2NH2NHC3NH2NH2NHC3NH2NH2NHC3NH2NH2NHC3NH2NH2NHC3NH2NH2NHC3NH2NH2NHC3NH2NH2NHC3NH2NH2NHC3NH2NH2NHC3NH2NH2NHC3NH2NH2NHC3NH2NH2NHC3NH2NH2NHC3NH2NH2NH
_chemical_formula_sum              "C216 N108 H216 O36"
_cell_length_a       59.4937
_cell_length_b       59.4937
_cell_length_c       15.0325
_cell_angle_alpha    90
_cell_angle_beta     90
_cell_angle_gamma    120

_space_group_name_H-M_alt    "P 1"
_space_group_IT_number       1

loop_
  _space_group_symop_operation_xyz
  'x, y, z'

loop_
  _atom_site_type_symbol
  _atom_site_label
  _atom_site_symmetry_multiplicity
  _atom_site_fract_x
  _atom_site_fract_y
  _atom_site_fract_z
  _atom_site_occupancy
  C   C1        1.0  0.10380  0.44737  0.34361  1.0000
  C   C2        1.0  0.07794  0.42580  0.34023  1.0000
  C   C3        1.0  0.56861  0.67449  0.34273  1.0000
  C   C4        1.0  0.59018  0.67022  0.33922  1.0000
  C   C5        1.0  0.34136  0.91205  0.34265  1.0000
  C   C6        1.0  0.34566  0.93791  0.33922  1.0000
  C   C7        1.0  0.90530  0.57520  0.34321  1.0000
  C   C8        1.0  0.93115  0.59676  0.33983  1.0000
  C   C9        1.0  0.44058  0.34807  0.34338  1.0000
  C   C10       1.0  0.41901  0.35236  0.33998  1.0000
  C   C11       1.0  0.66774  0.11052  0.34261  1.0000
  C   C12       1.0  0.66346  0.08467  0.33905  1.0000
  C   C13       1.0  0.23883  0.43329  0.31585  1.0000
  C   C14       1.0  0.22403  0.43322  0.24130  1.0000
  C   C15       1.0  0.19933  0.43093  0.25668  1.0000
  N   N1        1.0  0.23408  0.43640  0.15733  1.0000
  H   H1        1.0  0.25120  0.43876  0.14627  1.0000
  H   H2        1.0  0.22611  0.43958  0.10638  1.0000
  N   N2        1.0  0.18232  0.42658  0.18870  1.0000
  H   H3        1.0  0.16490  0.42345  0.19989  1.0000
  H   H4        1.0  0.18499  0.42197  0.12945  1.0000
  N   N3        1.0  0.26341  0.43741  0.30307  1.0000
  H   H5        1.0  0.26489  0.42407  0.27062  1.0000
  C   C16       1.0  0.58255  0.82354  0.31624  1.0000
  C   C17       1.0  0.58262  0.80885  0.24155  1.0000
  C   C18       1.0  0.58495  0.78646  0.25670  1.0000
  N   N4        1.0  0.57943  0.81576  0.15763  1.0000
  H   H6        1.0  0.57689  0.83042  0.14685  1.0000
  H   H7        1.0  0.57607  0.80451  0.10683  1.0000
  N   N5        1.0  0.58933  0.77387  0.18858  1.0000
  H   H8        1.0  0.59250  0.75959  0.19961  1.0000
  H   H9        1.0  0.59397  0.78121  0.12941  1.0000
  N   N6        1.0  0.57847  0.84403  0.30369  1.0000
  H   H10       1.0  0.59176  0.85882  0.27092  1.0000
  C   C19       1.0  0.19225  0.77703  0.31620  1.0000
  C   C20       1.0  0.20699  0.79181  0.24162  1.0000
  C   C21       1.0  0.22938  0.81653  0.25694  1.0000
  N   N7        1.0  0.20015  0.78174  0.15768  1.0000
  H   H11       1.0  0.18542  0.76460  0.14663  1.0000
  H   H12       1.0  0.21134  0.78970  0.10677  1.0000
  N   N8        1.0  0.24204  0.83352  0.18888  1.0000
  H   H13       1.0  0.25618  0.85100  0.20034  1.0000
  H   H14       1.0  0.23453  0.83088  0.13001  1.0000
  N   N9        1.0  0.17178  0.75246  0.30349  1.0000
  H   H15       1.0  0.15700  0.75095  0.27062  1.0000
  C   C22       1.0  0.77032  0.58927  0.31595  1.0000
  C   C23       1.0  0.78518  0.58937  0.24156  1.0000
  C   C24       1.0  0.80988  0.59169  0.25721  1.0000
  N   N10       1.0  0.77521  0.58621  0.15749  1.0000
  H   H16       1.0  0.75809  0.58385  0.14624  1.0000
  H   H17       1.0  0.78323  0.58305  0.10663  1.0000
  N   N11       1.0  0.82693  0.59602  0.18936  1.0000
  H   H18       1.0  0.84438  0.59929  0.20103  1.0000
  H   H19       1.0  0.82435  0.60073  0.13017  1.0000
  N   N12       1.0  0.74574  0.58511  0.30286  1.0000
  H   H20       1.0  0.74425  0.59848  0.27061  1.0000
  C   C25       1.0  0.42646  0.19897  0.31594  1.0000
  C   C26       1.0  0.42639  0.21373  0.24147  1.0000
  C   C27       1.0  0.42410  0.23613  0.25697  1.0000
  N   N13       1.0  0.42956  0.20688  0.15745  1.0000
  H   H21       1.0  0.43190  0.19211  0.14630  1.0000
  H   H22       1.0  0.43273  0.21804  0.10654  1.0000
  N   N14       1.0  0.41976  0.24882  0.18908  1.0000
  H   H23       1.0  0.41663  0.26311  0.20036  1.0000
  H   H24       1.0  0.41514  0.24156  0.12981  1.0000
  N   N15       1.0  0.43060  0.17853  0.30305  1.0000
  H   H25       1.0  0.41727  0.16370  0.27059  1.0000
  C   C28       1.0  0.81685  0.24555  0.31673  1.0000
  C   C29       1.0  0.80214  0.23078  0.24208  1.0000
  C   C30       1.0  0.77973  0.20607  0.25731  1.0000
  N   N16       1.0  0.80904  0.24084  0.15812  1.0000
  H   H26       1.0  0.82372  0.25803  0.14729  1.0000
  H   H27       1.0  0.79778  0.23294  0.10736  1.0000
  N   N17       1.0  0.76712  0.18907  0.18925  1.0000
  H   H28       1.0  0.75284  0.17164  0.20034  1.0000
  H   H29       1.0  0.77446  0.19176  0.13008  1.0000
  N   N18       1.0  0.83735  0.27010  0.30409  1.0000
  H   H30       1.0  0.85212  0.27158  0.27126  1.0000
  C   C31       1.0  0.16290  0.61405  0.32286  1.0000
  C   C32       1.0  0.16242  0.60023  0.24475  1.0000
  C   C33       1.0  0.16477  0.57761  0.25363  1.0000
  N   N19       1.0  0.16890  0.56613  0.18140  1.0000
  H   H31       1.0  0.17353  0.57454  0.12384  1.0000
  H   H32       1.0  0.17218  0.55178  0.18813  1.0000
  N   N20       1.0  0.15878  0.60824  0.16335  1.0000
  H   H33       1.0  0.15613  0.62297  0.15666  1.0000
  H   H34       1.0  0.15509  0.59767  0.11047  1.0000
  N   N21       1.0  0.16036  0.63571  0.31538  1.0000
  H   H35       1.0  0.17385  0.65028  0.28231  1.0000
  C   C34       1.0  0.40183  0.56691  0.32302  1.0000
  C   C35       1.0  0.41566  0.58026  0.24494  1.0000
  C   C36       1.0  0.43833  0.60519  0.25390  1.0000
  N   N22       1.0  0.44985  0.62083  0.18178  1.0000
  H   H36       1.0  0.44164  0.61703  0.12385  1.0000
  H   H37       1.0  0.46433  0.63840  0.18830  1.0000
  N   N23       1.0  0.40763  0.56865  0.16350  1.0000
  H   H38       1.0  0.39286  0.55128  0.15677  1.0000
  H   H39       1.0  0.41819  0.57553  0.11059  1.0000
  N   N24       1.0  0.38017  0.54272  0.31549  1.0000
  H   H40       1.0  0.36559  0.54166  0.28251  1.0000
  C   C37       1.0  0.44894  0.85291  0.32318  1.0000
  C   C38       1.0  0.43564  0.85341  0.24499  1.0000
  C   C39       1.0  0.41068  0.85108  0.25374  1.0000
  N   N25       1.0  0.39509  0.84695  0.18144  1.0000
  H   H41       1.0  0.39890  0.84232  0.12392  1.0000
  H   H42       1.0  0.37745  0.84366  0.18810  1.0000
  N   N26       1.0  0.44730  0.85705  0.16361  1.0000
  H   H43       1.0  0.46473  0.85979  0.15717  1.0000
  H   H44       1.0  0.44048  0.86083  0.11077  1.0000
  N   N27       1.0  0.47312  0.85539  0.31585  1.0000
  H   H45       1.0  0.47421  0.84195  0.28254  1.0000
  C   C40       1.0  0.84617  0.40850  0.32267  1.0000
  C   C41       1.0  0.84664  0.42230  0.24453  1.0000
  C   C42       1.0  0.84430  0.44492  0.25336  1.0000
  N   N28       1.0  0.84015  0.45639  0.18112  1.0000
  H   H46       1.0  0.83551  0.44797  0.12359  1.0000
  H   H47       1.0  0.83687  0.47074  0.18783  1.0000
  N   N29       1.0  0.85026  0.41427  0.16313  1.0000
  H   H48       1.0  0.85291  0.39953  0.15647  1.0000
  H   H49       1.0  0.85394  0.42483  0.11023  1.0000
  N   N30       1.0  0.84868  0.38683  0.31525  1.0000
  H   H50       1.0  0.83523  0.37225  0.28211  1.0000
  C   C43       1.0  0.60728  0.45558  0.32227  1.0000
  C   C44       1.0  0.59344  0.44221  0.24426  1.0000
  C   C45       1.0  0.57081  0.41726  0.25332  1.0000
  N   N31       1.0  0.55928  0.40161  0.18119  1.0000
  H   H51       1.0  0.56766  0.40536  0.12358  1.0000
  H   H52       1.0  0.54492  0.38399  0.18805  1.0000
  N   N32       1.0  0.60142  0.45381  0.16277  1.0000
  H   H53       1.0  0.61618  0.47118  0.15596  1.0000
  H   H54       1.0  0.59083  0.44690  0.10994  1.0000
  N   N33       1.0  0.62891  0.47980  0.31457  1.0000
  H   H55       1.0  0.64354  0.48089  0.28189  1.0000
  C   C46       1.0  0.56013  0.16965  0.32310  1.0000
  C   C47       1.0  0.57345  0.16917  0.24494  1.0000
  C   C48       1.0  0.59839  0.17146  0.25376  1.0000
  N   N34       1.0  0.61401  0.17560  0.18155  1.0000
  H   H56       1.0  0.61018  0.18001  0.12368  1.0000
  H   H57       1.0  0.63159  0.17870  0.18797  1.0000
  N   N35       1.0  0.56180  0.16557  0.16356  1.0000
  H   H58       1.0  0.54442  0.16293  0.15693  1.0000
  H   H59       1.0  0.56867  0.16189  0.11063  1.0000
  N   N36       1.0  0.53595  0.16717  0.31572  1.0000
  H   H60       1.0  0.53487  0.18063  0.28244  1.0000
  C   C49       1.0  0.97758  0.38294  0.31585  1.0000
  C   C50       1.0  0.99484  0.38969  0.24229  1.0000
  C   C51       1.0  0.02199  0.40593  0.25715  1.0000
  N   N37       1.0  0.98501  0.38092  0.15913  1.0000
  H   H61       1.0  0.96667  0.36870  0.14990  1.0000
  H   H62       1.0  0.99612  0.38239  0.10967  1.0000
  N   N38       1.0  0.03826  0.41885  0.18772  1.0000
  H   H63       1.0  0.05635  0.43166  0.19669  1.0000
  H   H64       1.0  0.03173  0.41913  0.12891  1.0000
  N   N39       1.0  0.95218  0.37543  0.29839  1.0000
  H   H65       1.0  0.94940  0.38743  0.26220  1.0000
  C   C52       1.0  0.63315  0.61278  0.31675  1.0000
  C   C53       1.0  0.62643  0.62322  0.24284  1.0000
  C   C54       1.0  0.61018  0.63413  0.25721  1.0000
  N   N40       1.0  0.63520  0.62202  0.15978  1.0000
  H   H66       1.0  0.64760  0.61610  0.15126  1.0000
  H   H67       1.0  0.63393  0.63186  0.11059  1.0000
  N   N41       1.0  0.59725  0.63735  0.18751  1.0000
  H   H68       1.0  0.58443  0.64263  0.19617  1.0000
  H   H69       1.0  0.59699  0.63045  0.12888  1.0000
  N   N42       1.0  0.64054  0.59478  0.29967  1.0000
  H   H70       1.0  0.62850  0.58001  0.26355  1.0000
  C   C55       1.0  0.40308  0.03828  0.31641  1.0000
  C   C56       1.0  0.39266  0.02109  0.24261  1.0000
  C   C57       1.0  0.38179  0.99394  0.25714  1.0000
  N   N43       1.0  0.39377  0.03101  0.15955  1.0000
  H   H71       1.0  0.39986  0.04935  0.15053  1.0000
  H   H72       1.0  0.38419  0.01994  0.10993  1.0000
  N   N44       1.0  0.37853  0.97776  0.18748  1.0000
  H   H73       1.0  0.37345  0.95972  0.19651  1.0000
  H   H74       1.0  0.38559  0.98445  0.12907  1.0000
  N   N45       1.0  0.42104  0.06368  0.29916  1.0000
  H   H75       1.0  0.43583  0.06644  0.26313  1.0000
  C   C58       1.0  0.03152  0.63976  0.31643  1.0000
  C   C59       1.0  0.01432  0.63301  0.24267  1.0000
  C   C60       1.0  0.98717  0.61673  0.25724  1.0000
  N   N46       1.0  0.02423  0.64182  0.15961  1.0000
  H   H76       1.0  0.04258  0.65407  0.15059  1.0000
  H   H77       1.0  0.01316  0.64033  0.11000  1.0000
  N   N47       1.0  0.97098  0.60385  0.18759  1.0000
  H   H78       1.0  0.95291  0.59096  0.19660  1.0000
  H   H79       1.0  0.97756  0.60357  0.12890  1.0000
  N   N48       1.0  0.05692  0.64719  0.29913  1.0000
  H   H80       1.0  0.05965  0.63513  0.26315  1.0000
  C   C61       1.0  0.37611  0.40985  0.31622  1.0000
  C   C62       1.0  0.38284  0.39935  0.24253  1.0000
  C   C63       1.0  0.39907  0.38843  0.25720  1.0000
  N   N49       1.0  0.37405  0.40045  0.15945  1.0000
  H   H81       1.0  0.36183  0.40658  0.15035  1.0000
  H   H82       1.0  0.37550  0.39083  0.10989  1.0000
  N   N50       1.0  0.41196  0.38509  0.18765  1.0000
  H   H83       1.0  0.42477  0.37979  0.19649  1.0000
  H   H84       1.0  0.41222  0.39191  0.12889  1.0000
  N   N51       1.0  0.36864  0.42778  0.29891  1.0000
  H   H85       1.0  0.38067  0.44257  0.26287  1.0000
  C   C64       1.0  0.60601  0.98426  0.31623  1.0000
  C   C65       1.0  0.61645  0.00144  0.24237  1.0000
  C   C66       1.0  0.62737  0.02860  0.25682  1.0000
  N   N52       1.0  0.61526  0.99149  0.15928  1.0000
  H   H86       1.0  0.60934  0.97317  0.15071  1.0000
  H   H87       1.0  0.62511  0.00262  0.11011  1.0000
  N   N53       1.0  0.63061  0.04476  0.18717  1.0000
  H   H88       1.0  0.63590  0.06288  0.19588  1.0000
  H   H89       1.0  0.62371  0.03815  0.12851  1.0000
  N   N54       1.0  0.58805  0.95886  0.29911  1.0000
  H   H90       1.0  0.57326  0.95610  0.26302  1.0000
  C   C67       1.0  0.15117  0.46430  0.34191  1.0000
  C   C68       1.0  0.15511  0.48983  0.33799  1.0000
  C   C69       1.0  0.13425  0.49484  0.33593  1.0000
  C   C70       1.0  0.10881  0.47322  0.33842  1.0000
  C   C71       1.0  0.12529  0.44339  0.34429  1.0000
  H   H91       1.0  0.09353  0.47644  0.33326  1.0000
  H   H92       1.0  0.12180  0.42475  0.34330  1.0000
  H   H93       1.0  0.17363  0.50509  0.33290  1.0000
  C   C72       1.0  0.17273  0.46003  0.33611  1.0000
  C   C73       1.0  0.13810  0.52046  0.32571  1.0000
  O   O1        1.0  0.07392  0.40343  0.30218  1.0000
  O   O2        1.0  0.19521  0.47935  0.30155  1.0000
  O   O3        1.0  0.11831  0.52280  0.29098  1.0000
  C   C74       1.0  0.55163  0.70489  0.34131  1.0000
  C   C75       1.0  0.52610  0.68328  0.33769  1.0000
  C   C76       1.0  0.52111  0.65742  0.33561  1.0000
  C   C77       1.0  0.54275  0.65363  0.33780  1.0000
  C   C78       1.0  0.57256  0.69994  0.34333  1.0000
  H   H94       1.0  0.53955  0.63513  0.33266  1.0000
  H   H95       1.0  0.59119  0.71511  0.34226  1.0000
  H   H96       1.0  0.51084  0.68654  0.33279  1.0000
  C   C79       1.0  0.55587  0.73070  0.33566  1.0000
  C   C80       1.0  0.49549  0.63562  0.32579  1.0000
  O   O4        1.0  0.61257  0.68859  0.30133  1.0000
  O   O5        1.0  0.53655  0.73386  0.30116  1.0000
  O   O6        1.0  0.49313  0.61345  0.29145  1.0000
  C   C81       1.0  0.31093  0.86468  0.34129  1.0000
  C   C82       1.0  0.33253  0.86074  0.33745  1.0000
  C   C83       1.0  0.35839  0.88161  0.33522  1.0000
  C   C84       1.0  0.36221  0.90704  0.33752  1.0000
  C   C85       1.0  0.31590  0.89056  0.34337  1.0000
  H   H97       1.0  0.38071  0.92233  0.33231  1.0000
  H   H98       1.0  0.30074  0.89404  0.34240  1.0000
  H   H99       1.0  0.32926  0.84222  0.33252  1.0000
  C   C86       1.0  0.28511  0.84311  0.33580  1.0000
  C   C87       1.0  0.38017  0.87776  0.32528  1.0000
  O   O7        1.0  0.32731  0.94196  0.30125  1.0000
  O   O8        1.0  0.28192  0.82060  0.30149  1.0000
  O   O9        1.0  0.40233  0.89756  0.29075  1.0000
  C   C88       1.0  0.85792  0.55826  0.34210  1.0000
  C   C89       1.0  0.85399  0.53273  0.33799  1.0000
  C   C90       1.0  0.87485  0.52773  0.33547  1.0000
  C   C91       1.0  0.90028  0.54934  0.33781  1.0000
  C   C92       1.0  0.88381  0.57917  0.34419  1.0000
  H   H100      1.0  0.91556  0.54613  0.33241  1.0000
  H   H101      1.0  0.88729  0.59781  0.34342  1.0000
  H   H102      1.0  0.83546  0.51748  0.33302  1.0000
  C   C93       1.0  0.83635  0.56252  0.33672  1.0000
  C   C94       1.0  0.87099  0.50211  0.32520  1.0000
  O   O10       1.0  0.93518  0.61916  0.30202  1.0000
  O   O11       1.0  0.81384  0.54320  0.30239  1.0000
  O   O12       1.0  0.89076  0.49976  0.29042  1.0000
  C   C95       1.0  0.45751  0.31764  0.34208  1.0000
  C   C96       1.0  0.48304  0.33922  0.33812  1.0000
  C   C97       1.0  0.48805  0.36510  0.33580  1.0000
  C   C98       1.0  0.46643  0.36892  0.33821  1.0000
  C   C99       1.0  0.43660  0.32261  0.34423  1.0000
  H   H103      1.0  0.46965  0.38742  0.33287  1.0000
  H   H104      1.0  0.41796  0.30745  0.34334  1.0000
  H   H105      1.0  0.49829  0.33595  0.33310  1.0000
  C   C100      1.0  0.45325  0.29181  0.33648  1.0000
  C   C101      1.0  0.51367  0.38686  0.32559  1.0000
  O   O13       1.0  0.39662  0.33400  0.30210  1.0000
  O   O14       1.0  0.47256  0.28863  0.30194  1.0000
  O   O15       1.0  0.51602  0.40900  0.29091  1.0000
  C   C102      1.0  0.69815  0.15789  0.34155  1.0000
  C   C103      1.0  0.67655  0.16182  0.33779  1.0000
  C   C104      1.0  0.65069  0.14094  0.33546  1.0000
  C   C105      1.0  0.64689  0.11552  0.33760  1.0000
  C   C106      1.0  0.69320  0.13201  0.34348  1.0000
  H   H106      1.0  0.62839  0.10023  0.33224  1.0000
  H   H107      1.0  0.70837  0.12854  0.34245  1.0000
  H   H108      1.0  0.67982  0.18034  0.33288  1.0000
  C   C107      1.0  0.72398  0.17946  0.33608  1.0000
  C   C108      1.0  0.62890  0.14478  0.32548  1.0000
  O   O16       1.0  0.68183  0.08065  0.30117  1.0000
  O   O17       1.0  0.72716  0.20197  0.30170  1.0000
  O   O18       1.0  0.60675  0.12499  0.29094  1.0000
  C   C109      1.0  0.45755  0.15792  0.32028  1.0000
  C   C110      1.0  0.48308  0.16186  0.32439  1.0000
  C   C111      1.0  0.48808  0.14100  0.32697  1.0000
  C   C112      1.0  0.46647  0.11556  0.32467  1.0000
  C   C113      1.0  0.44061  0.11055  0.31936  1.0000
  C   C114      1.0  0.43664  0.13204  0.31823  1.0000
  H   H109      1.0  0.46968  0.10028  0.33026  1.0000
  H   H110      1.0  0.41800  0.12856  0.31911  1.0000
  H   H111      1.0  0.49833  0.18039  0.32941  1.0000
  C   C115      1.0  0.45329  0.17949  0.32562  1.0000
  C   C116      1.0  0.41905  0.08470  0.32288  1.0000
  C   C117      1.0  0.51370  0.14486  0.33736  1.0000
  O   O19       1.0  0.39665  0.08068  0.36062  1.0000
  O   O20       1.0  0.47261  0.20202  0.35985  1.0000
  O   O21       1.0  0.51604  0.12507  0.37216  1.0000
  C   C118      1.0  0.69818  0.55817  0.32018  1.0000
  C   C119      1.0  0.67658  0.53265  0.32420  1.0000
  C   C120      1.0  0.65072  0.52766  0.32688  1.0000
  C   C121      1.0  0.64692  0.54930  0.32487  1.0000
  C   C122      1.0  0.66778  0.57515  0.31969  1.0000
  C   C123      1.0  0.69323  0.57909  0.31843  1.0000
  H   H112      1.0  0.62844  0.54610  0.33052  1.0000
  H   H113      1.0  0.70840  0.59773  0.31939  1.0000
  H   H114      1.0  0.67984  0.51738  0.32885  1.0000
  C   C124      1.0  0.72401  0.56241  0.32527  1.0000
  C   C125      1.0  0.66351  0.59672  0.32341  1.0000
  C   C126      1.0  0.62893  0.50204  0.33695  1.0000
  O   O22       1.0  0.68193  0.61912  0.36110  1.0000
  O   O23       1.0  0.72721  0.54309  0.35954  1.0000
  O   O24       1.0  0.60680  0.49969  0.37169  1.0000
  C   C127      1.0  0.85795  0.31768  0.32070  1.0000
  C   C128      1.0  0.85401  0.33927  0.32468  1.0000
  C   C129      1.0  0.87486  0.36514  0.32672  1.0000
  C   C130      1.0  0.90030  0.36897  0.32420  1.0000
  C   C131      1.0  0.90532  0.34813  0.31896  1.0000
  C   C132      1.0  0.88384  0.32266  0.31830  1.0000
  H   H115      1.0  0.91558  0.38747  0.32934  1.0000
  H   H116      1.0  0.88733  0.30751  0.31923  1.0000
  H   H117      1.0  0.83548  0.33599  0.32976  1.0000
  C   C133      1.0  0.83639  0.29185  0.32635  1.0000
  C   C134      1.0  0.93118  0.35243  0.32223  1.0000
  C   C135      1.0  0.87100  0.38690  0.33694  1.0000
  O   O25       1.0  0.93523  0.33412  0.36043  1.0000
  O   O26       1.0  0.81391  0.28867  0.36091  1.0000
  O   O27       1.0  0.89079  0.40904  0.37163  1.0000
  C   C136      1.0  0.55151  0.86463  0.32080  1.0000
  C   C137      1.0  0.52598  0.86069  0.32483  1.0000
  C   C138      1.0  0.52098  0.88156  0.32725  1.0000
  C   C139      1.0  0.54260  0.90699  0.32487  1.0000
  C   C140      1.0  0.56846  0.91200  0.31955  1.0000
  C   C141      1.0  0.57242  0.89051  0.31867  1.0000
  H   H118      1.0  0.53939  0.92228  0.33022  1.0000
  H   H119      1.0  0.59106  0.89399  0.31947  1.0000
  H   H120      1.0  0.51073  0.84217  0.32980  1.0000
  C   C142      1.0  0.55577  0.84306  0.32616  1.0000
  C   C143      1.0  0.59002  0.93785  0.32296  1.0000
  C   C144      1.0  0.49536  0.87771  0.33750  1.0000
  O   O28       1.0  0.61244  0.94188  0.36066  1.0000
  O   O29       1.0  0.53646  0.82055  0.36055  1.0000
  O   O30       1.0  0.49303  0.89749  0.37233  1.0000
  C   C145      1.0  0.31097  0.46434  0.32040  1.0000
  C   C146      1.0  0.33256  0.48986  0.32448  1.0000
  C   C147      1.0  0.35843  0.49485  0.32700  1.0000
  C   C148      1.0  0.36223  0.47323  0.32470  1.0000
  C   C149      1.0  0.34138  0.44738  0.31933  1.0000
  C   C150      1.0  0.31593  0.44342  0.31835  1.0000
  H   H121      1.0  0.38072  0.47643  0.33011  1.0000
  H   H122      1.0  0.30076  0.42478  0.31914  1.0000
  H   H123      1.0  0.32930  0.50512  0.32940  1.0000
  C   C151      1.0  0.28514  0.46009  0.32565  1.0000
  C   C152      1.0  0.34566  0.42581  0.32278  1.0000
  C   C153      1.0  0.38021  0.52047  0.33725  1.0000
  O   O31       1.0  0.32730  0.40342  0.36064  1.0000
  O   O32       1.0  0.28194  0.47940  0.35999  1.0000
  O   O33       1.0  0.40233  0.52280  0.37197  1.0000
  C   C154      1.0  0.15117  0.70490  0.32052  1.0000
  C   C155      1.0  0.15510  0.68331  0.32462  1.0000
  C   C156      1.0  0.13423  0.65744  0.32704  1.0000
  C   C157      1.0  0.10880  0.65363  0.32466  1.0000
  C   C158      1.0  0.10379  0.67448  0.31930  1.0000
  C   C159      1.0  0.12529  0.69993  0.31838  1.0000
  H   H124      1.0  0.09351  0.63513  0.33002  1.0000
  H   H125      1.0  0.12182  0.71510  0.31918  1.0000
  H   H126      1.0  0.17363  0.68657  0.32961  1.0000
  C   C160      1.0  0.17274  0.73073  0.32599  1.0000
  C   C161      1.0  0.07795  0.67020  0.32265  1.0000
  C   C162      1.0  0.13808  0.63567  0.33728  1.0000
  O   O34       1.0  0.07394  0.68858  0.36050  1.0000
  O   O35       1.0  0.19524  0.73392  0.36044  1.0000
  O   O36       1.0  0.11830  0.61355  0.37205  1.0000
  C   C163      1.0  0.19227  0.43326  0.34538  1.0000
  C   C164      1.0  0.20702  0.43323  0.41993  1.0000
  C   C165      1.0  0.22942  0.43092  0.40456  1.0000
  N   N55       1.0  0.24208  0.42659  0.47259  1.0000
  H   H127      1.0  0.23461  0.42172  0.53149  1.0000
  H   H128      1.0  0.25622  0.42325  0.46102  1.0000
  N   N56       1.0  0.20020  0.43645  0.50393  1.0000
  H   H129      1.0  0.18550  0.43892  0.51489  1.0000
  H   H130      1.0  0.21143  0.43974  0.55474  1.0000
  N   N57       1.0  0.17176  0.43730  0.35815  1.0000
  H   H131      1.0  0.15703  0.42403  0.39120  1.0000
  C   C166      1.0  0.58261  0.77701  0.34532  1.0000
  C   C167      1.0  0.58261  0.79173  0.42000  1.0000
  C   C168      1.0  0.58491  0.81644  0.40487  1.0000
  N   N58       1.0  0.58922  0.83338  0.47307  1.0000
  H   H132      1.0  0.59408  0.83073  0.53193  1.0000
  H   H133      1.0  0.59255  0.85086  0.46168  1.0000
  N   N59       1.0  0.57938  0.78161  0.50389  1.0000
  H   H134      1.0  0.57698  0.76447  0.51480  1.0000
  H   H135      1.0  0.57613  0.78954  0.55485  1.0000
  N   N60       1.0  0.57859  0.75246  0.35784  1.0000
  H   H136      1.0  0.59186  0.75098  0.39086  1.0000
  C   C169      1.0  0.23879  0.82359  0.34562  1.0000
  C   C170      1.0  0.22401  0.80886  0.42020  1.0000
  C   C171      1.0  0.19930  0.78645  0.40489  1.0000
  N   N61       1.0  0.18232  0.77380  0.47295  1.0000
  H   H137      1.0  0.18494  0.78129  0.53185  1.0000
  H   H138      1.0  0.16484  0.75966  0.46143  1.0000
  N   N62       1.0  0.23407  0.81572  0.50415  1.0000
  H   H139      1.0  0.25120  0.83047  0.51520  1.0000
  H   H140      1.0  0.22611  0.80454  0.55509  1.0000
  N   N63       1.0  0.26337  0.84405  0.35838  1.0000
  H   H141      1.0  0.26485  0.85888  0.39088  1.0000
  C   C172      1.0  0.81687  0.58935  0.34602  1.0000
  C   C173      1.0  0.80208  0.58941  0.42041  1.0000
  C   C174      1.0  0.77965  0.59164  0.40476  1.0000
  N   N64       1.0  0.76691  0.59595  0.47255  1.0000
  H   H142      1.0  0.77413  0.60057  0.53188  1.0000
  H   H143      1.0  0.75263  0.59907  0.46108  1.0000
  N   N65       1.0  0.80892  0.58627  0.50448  1.0000
  H   H144      1.0  0.82371  0.58396  0.51573  1.0000
  H   H145      1.0  0.79774  0.58309  0.55535  1.0000
  N   N66       1.0  0.83732  0.58523  0.35905  1.0000
  H   H146      1.0  0.85214  0.59857  0.39151  1.0000
  C   C175      1.0  0.42645  0.24550  0.34572  1.0000
  C   C176      1.0  0.42641  0.23069  0.42019  1.0000
  C   C177      1.0  0.42410  0.20599  0.40470  1.0000
  N   N67       1.0  0.41977  0.18897  0.47265  1.0000
  H   H147      1.0  0.41491  0.19157  0.53158  1.0000
  H   H148      1.0  0.41643  0.17149  0.46099  1.0000
  N   N68       1.0  0.42962  0.24070  0.50423  1.0000
  H   H149      1.0  0.43207  0.25786  0.51528  1.0000
  H   H150      1.0  0.43290  0.23275  0.55501  1.0000
  N   N69       1.0  0.43052  0.27006  0.35862  1.0000
  H   H151      1.0  0.41724  0.27154  0.39148  1.0000
  C   C178      1.0  0.77028  0.19899  0.34594  1.0000
  C   C179      1.0  0.78502  0.21372  0.42059  1.0000
  C   C180      1.0  0.80975  0.23612  0.40539  1.0000
  N   N70       1.0  0.82669  0.24876  0.47356  1.0000
  H   H152      1.0  0.82404  0.24127  0.53245  1.0000
  H   H153      1.0  0.84418  0.26290  0.46212  1.0000
  N   N71       1.0  0.77491  0.20687  0.50449  1.0000
  H   H154      1.0  0.75777  0.19213  0.51544  1.0000
  H   H155      1.0  0.78285  0.21804  0.55543  1.0000
  N   N72       1.0  0.74571  0.17850  0.35854  1.0000
  H   H156      1.0  0.74421  0.16372  0.39138  1.0000
  C   C181      1.0  0.16292  0.56689  0.33996  1.0000
  C   C182      1.0  0.16246  0.58024  0.41807  1.0000
  C   C183      1.0  0.16479  0.60519  0.40918  1.0000
  N   N73       1.0  0.15885  0.56861  0.49949  1.0000
  H   H157      1.0  0.15620  0.55122  0.50619  1.0000
  H   H158      1.0  0.15517  0.57550  0.55238  1.0000
  N   N74       1.0  0.16894  0.62083  0.48136  1.0000
  H   H159      1.0  0.17220  0.63845  0.47469  1.0000
  H   H160      1.0  0.17361  0.61705  0.53887  1.0000
  N   N75       1.0  0.16040  0.54270  0.34743  1.0000
  H   H161      1.0  0.17386  0.54159  0.38057  1.0000
  C   C184      1.0  0.44903  0.61404  0.34026  1.0000
  C   C185      1.0  0.43565  0.60025  0.41834  1.0000
  C   C186      1.0  0.41068  0.57763  0.40938  1.0000
  N   N76       1.0  0.44724  0.60829  0.49980  1.0000
  H   H162      1.0  0.46461  0.62305  0.50655  1.0000
  H   H163      1.0  0.44032  0.59776  0.55275  1.0000
  N   N77       1.0  0.39503  0.56615  0.48152  1.0000
  H   H164      1.0  0.37743  0.55175  0.47482  1.0000
  H   H165      1.0  0.39881  0.57443  0.53930  1.0000
  N   N78       1.0  0.47325  0.63565  0.34789  1.0000
  H   H166      1.0  0.47435  0.65033  0.38027  1.0000
  C   C187      1.0  0.40178  0.85293  0.34002  1.0000
  C   C188      1.0  0.41554  0.85336  0.41821  1.0000
  C   C189      1.0  0.43817  0.85103  0.40944  1.0000
  N   N79       1.0  0.40746  0.85692  0.49959  1.0000
  H   H167      1.0  0.39270  0.85954  0.50620  1.0000
  H   H168      1.0  0.41797  0.86056  0.55258  1.0000
  N   N80       1.0  0.44962  0.84685  0.48166  1.0000
  H   H169      1.0  0.46411  0.84377  0.47535  1.0000
  H   H170      1.0  0.44134  0.84242  0.53948  1.0000
  N   N81       1.0  0.38014  0.85550  0.34741  1.0000
  H   H171      1.0  0.36549  0.84198  0.38012  1.0000
  C   C190      1.0  0.84617  0.45567  0.33967  1.0000
  C   C191      1.0  0.84664  0.44234  0.41781  1.0000
  C   C192      1.0  0.84431  0.41738  0.40897  1.0000
  N   N82       1.0  0.85023  0.45397  0.49924  1.0000
  H   H172      1.0  0.85302  0.47141  0.50572  1.0000
  H   H173      1.0  0.85409  0.44714  0.55190  1.0000
  N   N83       1.0  0.84014  0.40175  0.48115  1.0000
  H   H174      1.0  0.83704  0.38417  0.47479  1.0000
  H   H175      1.0  0.83571  0.40559  0.53898  1.0000
  N   N84       1.0  0.84870  0.47986  0.34710  1.0000
  H   H176      1.0  0.83522  0.48095  0.38018  1.0000
  C   C193      1.0  0.56012  0.40843  0.33972  1.0000
  C   C194      1.0  0.57352  0.42226  0.41773  1.0000
  C   C195      1.0  0.59848  0.44487  0.40865  1.0000
  N   N85       1.0  0.56194  0.41428  0.49923  1.0000
  H   H177      1.0  0.54455  0.39954  0.50606  1.0000
  H   H178      1.0  0.56886  0.42486  0.55206  1.0000
  N   N86       1.0  0.61416  0.45638  0.48072  1.0000
  H   H179      1.0  0.63179  0.47071  0.47389  1.0000
  H   H180      1.0  0.61041  0.44795  0.53826  1.0000
  N   N87       1.0  0.53591  0.38680  0.34737  1.0000
  H   H181      1.0  0.53483  0.37222  0.38037  1.0000
  C   C196      1.0  0.60728  0.16961  0.34006  1.0000
  C   C197      1.0  0.59351  0.16917  0.41821  1.0000
  C   C198      1.0  0.57088  0.17151  0.40940  1.0000
  N   N88       1.0  0.60156  0.16559  0.49961  1.0000
  H   H182      1.0  0.61631  0.16296  0.50626  1.0000
  H   H183      1.0  0.59103  0.16194  0.55257  1.0000
  N   N89       1.0  0.55942  0.17567  0.48164  1.0000
  H   H184      1.0  0.54501  0.17886  0.47506  1.0000
  H   H185      1.0  0.56773  0.18018  0.53938  1.0000
  N   N90       1.0  0.62893  0.16705  0.34753  1.0000
  H   H186      1.0  0.64357  0.18057  0.38025  1.0000
  C   C199      1.0  0.03153  0.40987  0.34618  1.0000
  C   C200      1.0  0.01425  0.39940  0.41975  1.0000
  C   C201      1.0  0.98712  0.38856  0.40489  1.0000
  N   N91       1.0  0.97088  0.38528  0.47438  1.0000
  H   H187      1.0  0.97749  0.39228  0.53291  1.0000
  H   H188      1.0  0.95285  0.38023  0.46506  1.0000
  N   N92       1.0  0.02406  0.40046  0.50298  1.0000
  H   H189      1.0  0.04238  0.40642  0.51188  1.0000
  H   H190      1.0  0.01293  0.39077  0.55232  1.0000
  N   N93       1.0  0.05692  0.42780  0.36371  1.0000
  H   H191      1.0  0.05966  0.44255  0.39993  1.0000
  C   C202      1.0  0.60622  0.63984  0.34606  1.0000
  C   C203      1.0  0.61669  0.63316  0.41994  1.0000
  C   C204      1.0  0.62755  0.61686  0.40562  1.0000
  N   N94       1.0  0.63087  0.60403  0.47544  1.0000
  H   H192      1.0  0.62389  0.60374  0.53392  1.0000
  H   H193      1.0  0.63597  0.59108  0.46651  1.0000
  N   N95       1.0  0.61561  0.64204  0.50288  1.0000
  H   H194      1.0  0.60952  0.65431  0.51173  1.0000
  H   H195      1.0  0.62521  0.64060  0.55254  1.0000
  N   N96       1.0  0.58823  0.64725  0.36318  1.0000
  H   H196      1.0  0.57348  0.63525  0.39942  1.0000
  C   C205      1.0  0.37612  0.98432  0.34606  1.0000
  C   C206      1.0  0.38282  0.00151  0.41983  1.0000
  C   C207      1.0  0.39908  0.02866  0.40533  1.0000
  N   N97       1.0  0.41192  0.04486  0.47504  1.0000
  H   H197      1.0  0.41226  0.03820  0.53355  1.0000
  H   H198      1.0  0.42485  0.06291  0.46599  1.0000
  N   N98       1.0  0.37397  0.99158  0.50285  1.0000
  H   H199      1.0  0.36173  0.97324  0.51184  1.0000
  H   H200      1.0  0.37542  0.00265  0.55244  1.0000
  N   N99       1.0  0.36863  0.95890  0.36325  1.0000
  H   H201      1.0  0.38061  0.95612  0.39951  1.0000
  C   C208      1.0  0.97757  0.61272  0.34621  1.0000
  C   C209      1.0  0.99476  0.62319  0.41996  1.0000
  C   C210      1.0  0.02192  0.63412  0.40537  1.0000
  N   N100      1.0  0.03814  0.63746  0.47497  1.0000
  H   H202      1.0  0.03159  0.63065  0.53375  1.0000
  H   H203      1.0  0.05625  0.64278  0.46612  1.0000
  N   N101      1.0  0.98484  0.62204  0.50303  1.0000
  H   H204      1.0  0.96649  0.61590  0.51208  1.0000
  H   H205      1.0  0.99590  0.63164  0.55265  1.0000
  N   N102      1.0  0.95217  0.59476  0.36339  1.0000
  H   H206      1.0  0.94942  0.57998  0.39946  1.0000
  C   C211      1.0  0.40305  0.38281  0.34616  1.0000
  C   C212      1.0  0.39259  0.38959  0.41986  1.0000
  C   C213      1.0  0.38174  0.40588  0.40519  1.0000
  N   N103      1.0  0.37846  0.41880  0.47480  1.0000
  H   H207      1.0  0.38546  0.41916  0.53331  1.0000
  H   H208      1.0  0.37339  0.43177  0.46564  1.0000
  N   N104      1.0  0.39367  0.38081  0.50300  1.0000
  H   H209      1.0  0.39964  0.36845  0.51177  1.0000
  H   H210      1.0  0.38399  0.38222  0.55242  1.0000
  N   N105      1.0  0.42100  0.37537  0.36354  1.0000
  H   H211      1.0  0.43577  0.38741  0.39963  1.0000
  C   C214      1.0  0.63307  0.03825  0.34569  1.0000
  C   C215      1.0  0.62636  0.02108  0.41953  1.0000
  C   C216      1.0  0.61007  0.99392  0.40513  1.0000
  N   N106      1.0  0.59722  0.97776  0.47490  1.0000
  H   H212      1.0  0.59691  0.98445  0.53338  1.0000
  H   H213      1.0  0.58425  0.95972  0.46592  1.0000
  N   N107      1.0  0.63524  0.03103  0.50250  1.0000
  H   H214      1.0  0.64750  0.04937  0.51141  1.0000
  H   H215      1.0  0.63379  0.01997  0.55213  1.0000
  N   N108      1.0  0.64049  0.06364  0.36289  1.0000
  H   H216      1.0  0.62847  0.06639  0.39904  1.0000
