data_image0
_chemical_formula_structural       COH2C5OH3C6O2H4C6O2H4CNCHNHCNCHNHCNCHNHCNCHNHCNCHNHCNCHNHC3HOC3OC3HOC3OHC3HOC3OHC4HC6H3C4HC6H3C4HC6H3C4HC6H3C4HC6H3C4HC6H3
_chemical_formula_sum              "C108 O12 H54 N12"
_cell_length_a       31.4297
_cell_length_b       31.4296
_cell_length_c       14.9523
_cell_angle_alpha    90
_cell_angle_beta     90
_cell_angle_gamma    120

_space_group_name_H-M_alt    "P 1"
_space_group_IT_number       1

loop_
  _space_group_symop_operation_xyz
  'x, y, z'

loop_
  _atom_site_type_symbol
  _atom_site_label
  _atom_site_symmetry_multiplicity
  _atom_site_fract_x
  _atom_site_fract_y
  _atom_site_fract_z
  _atom_site_occupancy
  C   C1        1.0  0.02928  0.51551  0.33073  1.0000
  O   O1        1.0  0.03695  0.59425  0.28535  1.0000
  H   H1        1.0  0.02933  0.58636  0.22158  1.0000
  H   H2        1.0  0.03986  0.45584  0.36812  1.0000
  C   C2        1.0  0.97547  0.48764  0.33079  1.0000
  C   C3        1.0  0.89546  0.40920  0.32425  1.0000
  C   C4        1.0  0.94725  0.43575  0.31405  1.0000
  C   C5        1.0  0.05748  0.56741  0.31409  1.0000
  C   C6        1.0  0.10929  0.59396  0.32410  1.0000
  O   O2        1.0  0.96776  0.40893  0.28513  1.0000
  H   H3        1.0  0.97533  0.41685  0.22135  1.0000
  H   H4        1.0  0.80752  0.40491  0.28026  1.0000
  H   H5        1.0  0.19721  0.59825  0.27994  1.0000
  C   C7        1.0  0.51633  0.48864  0.33077  1.0000
  C   C8        1.0  0.59478  0.48710  0.32409  1.0000
  C   C9        1.0  0.56822  0.51233  0.31397  1.0000
  C   C10       1.0  0.48846  0.51458  0.33080  1.0000
  C   C11       1.0  0.43657  0.49090  0.31407  1.0000
  C   C12       1.0  0.41003  0.51616  0.32420  1.0000
  O   O3        1.0  0.59503  0.55968  0.28515  1.0000
  O   O4        1.0  0.40973  0.44355  0.28530  1.0000
  H   H6        1.0  0.58711  0.55938  0.22138  1.0000
  H   H7        1.0  0.41762  0.44382  0.22152  1.0000
  H   H8        1.0  0.59907  0.40347  0.27985  1.0000
  H   H9        1.0  0.40571  0.59979  0.28029  1.0000
  C   C13       1.0  0.51539  0.02850  0.33076  1.0000
  C   C14       1.0  0.51695  0.10851  0.32426  1.0000
  C   C15       1.0  0.49171  0.05672  0.31408  1.0000
  C   C16       1.0  0.48944  0.97469  0.33076  1.0000
  C   C17       1.0  0.51313  0.94648  0.31403  1.0000
  C   C18       1.0  0.48788  0.89468  0.32414  1.0000
  O   O5        1.0  0.44435  0.03620  0.28532  1.0000
  O   O6        1.0  0.56047  0.96701  0.28517  1.0000
  H   H10       1.0  0.44462  0.02860  0.22154  1.0000
  H   H11       1.0  0.56016  0.97460  0.22140  1.0000
  H   H12       1.0  0.60059  0.19647  0.28025  1.0000
  H   H13       1.0  0.40424  0.80677  0.27992  1.0000
  C   C19       1.0  0.32968  0.48642  0.25198  1.0000
  N   N1        1.0  0.28375  0.47984  0.26043  1.0000
  C   C20       1.0  0.15392  0.48398  0.26937  1.0000
  H   H14       1.0  0.34489  0.49214  0.18957  1.0000
  N   N2        1.0  0.19380  0.47810  0.26948  1.0000
  H   H15       1.0  0.14120  0.48843  0.20912  1.0000
  C   C21       1.0  0.51760  0.84402  0.25177  1.0000
  N   N3        1.0  0.52412  0.80463  0.26037  1.0000
  C   C22       1.0  0.51993  0.67065  0.26975  1.0000
  H   H16       1.0  0.51177  0.85343  0.18938  1.0000
  N   N4        1.0  0.52581  0.71641  0.26971  1.0000
  H   H17       1.0  0.51545  0.65343  0.20953  1.0000
  C   C23       1.0  0.15992  0.67433  0.25195  1.0000
  N   N5        1.0  0.19928  0.72025  0.26043  1.0000
  C   C24       1.0  0.33327  0.85004  0.26952  1.0000
  H   H18       1.0  0.15044  0.65913  0.18952  1.0000
  N   N6        1.0  0.28750  0.81017  0.26958  1.0000
  H   H19       1.0  0.35044  0.86277  0.20927  1.0000
  C   C25       1.0  0.67521  0.51681  0.25171  1.0000
  N   N7        1.0  0.72110  0.52331  0.26032  1.0000
  C   C26       1.0  0.85089  0.51911  0.26981  1.0000
  H   H20       1.0  0.65997  0.51098  0.18930  1.0000
  N   N8        1.0  0.81102  0.52500  0.26974  1.0000
  H   H21       1.0  0.86364  0.51464  0.20961  1.0000
  C   C27       1.0  0.48724  0.15914  0.25203  1.0000
  N   N9        1.0  0.48067  0.19849  0.26049  1.0000
  C   C28       1.0  0.48485  0.33248  0.26952  1.0000
  H   H22       1.0  0.49298  0.14966  0.18962  1.0000
  N   N10       1.0  0.47896  0.28671  0.26958  1.0000
  H   H23       1.0  0.48930  0.34965  0.20926  1.0000
  C   C29       1.0  0.84481  0.32882  0.25181  1.0000
  N   N11       1.0  0.80543  0.28292  0.26036  1.0000
  C   C30       1.0  0.67146  0.15310  0.26958  1.0000
  H   H24       1.0  0.85424  0.34409  0.18944  1.0000
  N   N12       1.0  0.71722  0.19298  0.26960  1.0000
  H   H25       1.0  0.65425  0.14037  0.20936  1.0000
  C   C31       1.0  0.94779  0.51117  0.35079  1.0000
  C   C32       1.0  0.89604  0.48644  0.34818  1.0000
  C   C33       1.0  0.86989  0.43503  0.33706  1.0000
  H   H26       1.0  0.96492  0.54729  0.36847  1.0000
  O   O7        1.0  0.81966  0.41019  0.34224  1.0000
  C   C34       1.0  0.13486  0.56813  0.33682  1.0000
  C   C35       1.0  0.10873  0.51672  0.34787  1.0000
  C   C36       1.0  0.05698  0.49198  0.35052  1.0000
  O   O8        1.0  0.18510  0.59299  0.34193  1.0000
  C   C37       1.0  0.49281  0.43742  0.35064  1.0000
  C   C38       1.0  0.51755  0.41041  0.34793  1.0000
  C   C39       1.0  0.56896  0.43569  0.33679  1.0000
  H   H27       1.0  0.45668  0.41841  0.36830  1.0000
  O   O9        1.0  0.59383  0.41032  0.34185  1.0000
  C   C40       1.0  0.43586  0.56755  0.33703  1.0000
  C   C41       1.0  0.48727  0.59282  0.34808  1.0000
  C   C42       1.0  0.51200  0.56579  0.35072  1.0000
  O   O10       1.0  0.41102  0.59294  0.34226  1.0000
  H   H28       1.0  0.54812  0.58478  0.36839  1.0000
  C   C43       1.0  0.56661  0.05618  0.35063  1.0000
  C   C44       1.0  0.59363  0.10794  0.34798  1.0000
  C   C45       1.0  0.56836  0.13408  0.33699  1.0000
  H   H29       1.0  0.58561  0.03906  0.36827  1.0000
  O   O11       1.0  0.59374  0.18431  0.34222  1.0000
  C   C46       1.0  0.43648  0.86910  0.33684  1.0000
  C   C47       1.0  0.41121  0.89524  0.34793  1.0000
  C   C48       1.0  0.43822  0.94700  0.35064  1.0000
  O   O12       1.0  0.41110  0.81887  0.34191  1.0000
  H   H30       1.0  0.41921  0.96411  0.36828  1.0000
  C   C49       1.0  0.35787  0.49167  0.32895  1.0000
  C   C50       1.0  0.26187  0.47682  0.34062  1.0000
  C   C51       1.0  0.28790  0.48018  0.42047  1.0000
  C   C52       1.0  0.33566  0.48685  0.41346  1.0000
  H   H31       1.0  0.35638  0.49367  0.47025  1.0000
  C   C53       1.0  0.21686  0.47669  0.34536  1.0000
  C   C54       1.0  0.13550  0.49137  0.35053  1.0000
  C   C55       1.0  0.15759  0.48873  0.43104  1.0000
  C   C56       1.0  0.19824  0.48104  0.42951  1.0000
  C   C57       1.0  0.22336  0.48219  0.50852  1.0000
  C   C58       1.0  0.26763  0.48140  0.50407  1.0000
  H   H32       1.0  0.21092  0.48602  0.56957  1.0000
  H   H33       1.0  0.28644  0.48483  0.56201  1.0000
  H   H34       1.0  0.14688  0.49688  0.49031  1.0000
  C   C59       1.0  0.51239  0.86702  0.32867  1.0000
  C   C60       1.0  0.52715  0.78584  0.34063  1.0000
  C   C61       1.0  0.52382  0.80857  0.42041  1.0000
  C   C62       1.0  0.51712  0.84963  0.41327  1.0000
  H   H35       1.0  0.51045  0.86371  0.47001  1.0000
  C   C63       1.0  0.52730  0.74097  0.34549  1.0000
  C   C64       1.0  0.51265  0.64494  0.35104  1.0000
  C   C65       1.0  0.51535  0.66976  0.43143  1.0000
  C   C66       1.0  0.52299  0.71808  0.42973  1.0000
  C   C67       1.0  0.52185  0.74211  0.50864  1.0000
  C   C68       1.0  0.52270  0.78721  0.50409  1.0000
  H   H36       1.0  0.51804  0.72589  0.56975  1.0000
  H   H37       1.0  0.51919  0.80257  0.56198  1.0000
  H   H38       1.0  0.50711  0.65093  0.49075  1.0000
  C   C69       1.0  0.13695  0.64612  0.32889  1.0000
  C   C70       1.0  0.21812  0.74210  0.34065  1.0000
  C   C71       1.0  0.19544  0.71606  0.42047  1.0000
  C   C72       1.0  0.15434  0.66830  0.41342  1.0000
  H   H39       1.0  0.14041  0.64757  0.47019  1.0000
  C   C73       1.0  0.26302  0.78710  0.34542  1.0000
  C   C74       1.0  0.35910  0.86848  0.35069  1.0000
  C   C75       1.0  0.33432  0.84635  0.43113  1.0000
  C   C76       1.0  0.28597  0.80570  0.42959  1.0000
  C   C77       1.0  0.26199  0.78057  0.50857  1.0000
  C   C78       1.0  0.21691  0.73630  0.50409  1.0000
  H   H40       1.0  0.27825  0.79299  0.56964  1.0000
  H   H41       1.0  0.20153  0.71748  0.56202  1.0000
  H   H42       1.0  0.35316  0.85703  0.49042  1.0000
  C   C79       1.0  0.64695  0.51161  0.32854  1.0000
  C   C80       1.0  0.74290  0.52633  0.34060  1.0000
  C   C81       1.0  0.71683  0.52300  0.42035  1.0000
  C   C82       1.0  0.66906  0.51630  0.41315  1.0000
  H   H43       1.0  0.64832  0.50964  0.46988  1.0000
  C   C83       1.0  0.78791  0.52647  0.34550  1.0000
  C   C84       1.0  0.86929  0.51181  0.35112  1.0000
  C   C85       1.0  0.84716  0.51450  0.43148  1.0000
  C   C86       1.0  0.80647  0.52214  0.42975  1.0000
  C   C87       1.0  0.78128  0.52100  0.50864  1.0000
  C   C88       1.0  0.73704  0.52186  0.50404  1.0000
  H   H44       1.0  0.79367  0.51718  0.56976  1.0000
  H   H45       1.0  0.71815  0.51833  0.56192  1.0000
  H   H46       1.0  0.85772  0.50626  0.49081  1.0000
  C   C89       1.0  0.49246  0.13617  0.32899  1.0000
  C   C90       1.0  0.47763  0.21734  0.34069  1.0000
  C   C91       1.0  0.48097  0.19465  0.42052  1.0000
  C   C92       1.0  0.48764  0.15356  0.41350  1.0000
  H   H47       1.0  0.49443  0.13963  0.47029  1.0000
  C   C93       1.0  0.47752  0.26223  0.34544  1.0000
  C   C94       1.0  0.49221  0.35831  0.35068  1.0000
  C   C95       1.0  0.48955  0.33352  0.43113  1.0000
  C   C96       1.0  0.48185  0.28518  0.42960  1.0000
  C   C97       1.0  0.48298  0.26120  0.50859  1.0000
  C   C98       1.0  0.48217  0.21612  0.50414  1.0000
  H   H48       1.0  0.48680  0.27746  0.56966  1.0000
  H   H49       1.0  0.48559  0.20073  0.56208  1.0000
  H   H50       1.0  0.49769  0.35237  0.49042  1.0000
  C   C99       1.0  0.86778  0.35702  0.32874  1.0000
  C   C100      1.0  0.78662  0.26108  0.34060  1.0000
  C   C101      1.0  0.80933  0.28712  0.42041  1.0000
  C   C102      1.0  0.85038  0.33490  0.41332  1.0000
  H   H51       1.0  0.86445  0.35562  0.47007  1.0000
  C   C103      1.0  0.74176  0.21605  0.34542  1.0000
  C   C104      1.0  0.64576  0.13469  0.35086  1.0000
  C   C105      1.0  0.67052  0.15675  0.43131  1.0000
  C   C106      1.0  0.71884  0.19745  0.42964  1.0000
  C   C107      1.0  0.74285  0.22260  0.50858  1.0000
  C   C108      1.0  0.78794  0.26686  0.50407  1.0000
  H   H52       1.0  0.72662  0.21019  0.56967  1.0000
  H   H53       1.0  0.80329  0.28572  0.56198  1.0000
  H   H54       1.0  0.65168  0.14615  0.49061  1.0000
