data_image0
_chemical_formula_structural       H2C6NC6NH6C24H15C24H17C6NC6NH6C24H15C24H15
_chemical_formula_sum              "H76 C120 N4"
_cell_length_a       25.9242
_cell_length_b       30.1008
_cell_length_c       14.9149
_cell_angle_alpha    93.7951
_cell_angle_beta     87.7978
_cell_angle_gamma    90.0364

_space_group_name_H-M_alt    "P 1"
_space_group_IT_number       1

loop_
  _space_group_symop_operation_xyz
  'x, y, z'

loop_
  _atom_site_type_symbol
  _atom_site_label
  _atom_site_symmetry_multiplicity
  _atom_site_fract_x
  _atom_site_fract_y
  _atom_site_fract_z
  _atom_site_occupancy
  H   H1        1.0  0.97173  0.45789  0.30877  1.0000
  H   H2        1.0  0.05243  0.09242  0.30885  1.0000
  C   C1        1.0  0.98309  0.02635  0.33921  1.0000
  C   C2        1.0  0.95339  0.48684  0.32985  1.0000
  C   C3        1.0  0.89894  0.48518  0.34328  1.0000
  C   C4        1.0  0.87247  0.02637  0.36578  1.0000
  C   C5        1.0  0.89876  0.06787  0.35782  1.0000
  C   C6        1.0  0.95359  0.06622  0.35093  1.0000
  N   N1        1.0  0.82548  0.02622  0.41113  1.0000
  C   C7        1.0  0.03972  0.02594  0.33922  1.0000
  C   C8        1.0  0.06871  0.48684  0.35089  1.0000
  C   C9        1.0  0.12322  0.48563  0.35780  1.0000
  C   C10       1.0  0.14914  0.02765  0.36579  1.0000
  C   C11       1.0  0.12369  0.06739  0.34336  1.0000
  C   C12       1.0  0.06983  0.06486  0.32997  1.0000
  N   N2        1.0  0.19413  0.03076  0.41117  1.0000
  H   H3        1.0  0.20657  0.50577  0.44226  1.0000
  H   H4        1.0  0.20711  0.05947  0.43354  1.0000
  H   H5        1.0  0.81177  0.05329  0.44231  1.0000
  H   H6        1.0  0.81141  0.49902  0.43341  1.0000
  H   H7        1.0  0.97265  0.09565  0.35144  1.0000
  H   H8        1.0  0.04962  0.45744  0.35137  1.0000
  C   C13       1.0  0.23343  0.23440  0.33178  1.0000
  C   C14       1.0  0.28829  0.23595  0.32905  1.0000
  C   C15       1.0  0.31697  0.27608  0.33532  1.0000
  C   C16       1.0  0.28845  0.31636  0.34158  1.0000
  C   C17       1.0  0.23374  0.31801  0.34218  1.0000
  C   C18       1.0  0.20793  0.27636  0.33816  1.0000
  C   C19       1.0  0.37274  0.27609  0.33637  1.0000
  C   C20       1.0  0.40048  0.24274  0.37747  1.0000
  C   C21       1.0  0.45484  0.24236  0.37703  1.0000
  C   C22       1.0  0.48395  0.27616  0.33756  1.0000
  C   C23       1.0  0.45690  0.31000  0.29771  1.0000
  C   C24       1.0  0.40258  0.30955  0.29613  1.0000
  C   C25       1.0  0.20533  0.19321  0.32960  1.0000
  C   C26       1.0  0.22781  0.15188  0.29704  1.0000
  C   C27       1.0  0.20093  0.11128  0.29969  1.0000
  C   C28       1.0  0.14974  0.10900  0.33584  1.0000
  C   C29       1.0  0.12612  0.15023  0.36441  1.0000
  C   C30       1.0  0.15315  0.19076  0.36213  1.0000
  C   C31       1.0  0.20605  0.35933  0.34644  1.0000
  C   C32       1.0  0.15448  0.36355  0.38168  1.0000
  C   C33       1.0  0.12748  0.40430  0.38632  1.0000
  C   C34       1.0  0.15005  0.44383  0.35585  1.0000
  C   C35       1.0  0.20096  0.43917  0.31780  1.0000
  C   C36       1.0  0.22832  0.39867  0.31462  1.0000
  H   H9        1.0  0.21924  0.08300  0.27312  1.0000
  H   H10       1.0  0.26394  0.15051  0.26726  1.0000
  H   H11       1.0  0.08996  0.15101  0.39455  1.0000
  H   H12       1.0  0.13455  0.21820  0.39148  1.0000
  H   H13       1.0  0.13642  0.33741  0.41001  1.0000
  H   H14       1.0  0.09180  0.40503  0.41799  1.0000
  H   H15       1.0  0.26405  0.39795  0.28306  1.0000
  H   H16       1.0  0.21858  0.46528  0.28846  1.0000
  H   H17       1.0  0.38509  0.33390  0.26340  1.0000
  H   H18       1.0  0.47669  0.33465  0.26711  1.0000
  H   H19       1.0  0.47305  0.21768  0.40790  1.0000
  H   H20       1.0  0.38133  0.21843  0.41001  1.0000
  H   H21       1.0  0.30852  0.20686  0.32553  1.0000
  H   H22       1.0  0.16907  0.27667  0.33042  1.0000
  H   H23       1.0  0.30829  0.34546  0.35193  1.0000
  C   C37       1.0  0.78973  0.31740  0.33174  1.0000
  C   C38       1.0  0.73499  0.31567  0.32902  1.0000
  C   C39       1.0  0.70603  0.27596  0.33530  1.0000
  C   C40       1.0  0.73427  0.23609  0.34158  1.0000
  C   C41       1.0  0.78895  0.23448  0.34220  1.0000
  C   C42       1.0  0.81494  0.27587  0.33816  1.0000
  C   C43       1.0  0.65021  0.27602  0.33635  1.0000
  C   C44       1.0  0.62067  0.31206  0.37749  1.0000
  C   C45       1.0  0.56632  0.31242  0.37705  1.0000
  C   C46       1.0  0.53896  0.27604  0.33756  1.0000
  C   C47       1.0  0.56776  0.23960  0.29763  1.0000
  C   C48       1.0  0.62214  0.23994  0.29606  1.0000
  C   C49       1.0  0.81793  0.35845  0.32950  1.0000
  C   C50       1.0  0.79690  0.39762  0.29689  1.0000
  C   C51       1.0  0.82364  0.43841  0.29958  1.0000
  C   C52       1.0  0.87323  0.44307  0.33573  1.0000
  C   C53       1.0  0.89563  0.40371  0.36419  1.0000
  C   C54       1.0  0.86867  0.36304  0.36205  1.0000
  C   C55       1.0  0.81644  0.19344  0.34648  1.0000
  C   C56       1.0  0.86646  0.19152  0.38173  1.0000
  C   C57       1.0  0.89323  0.15106  0.38643  1.0000
  C   C58       1.0  0.87203  0.10954  0.35586  1.0000
  C   C59       1.0  0.82280  0.11172  0.31781  1.0000
  C   C60       1.0  0.79556  0.15200  0.31472  1.0000
  H   H24       1.0  0.80648  0.46496  0.27306  1.0000
  H   H25       1.0  0.76205  0.39705  0.26721  1.0000
  H   H26       1.0  0.93040  0.40492  0.39453  1.0000
  H   H27       1.0  0.88596  0.33754  0.39147  1.0000
  H   H28       1.0  0.88327  0.21952  0.41004  1.0000
  H   H29       1.0  0.92753  0.15242  0.41804  1.0000
  H   H30       1.0  0.76125  0.15066  0.28306  1.0000
  H   H31       1.0  0.80647  0.08368  0.28847  1.0000
  H   H32       1.0  0.64109  0.21345  0.26331  1.0000
  H   H33       1.0  0.54932  0.21294  0.26703  1.0000
  H   H34       1.0  0.54675  0.33910  0.40800  1.0000
  H   H35       1.0  0.63839  0.33849  0.41008  1.0000
  H   H36       1.0  0.71491  0.34453  0.32549  1.0000
  H   H37       1.0  0.85414  0.27504  0.33044  1.0000
  H   H38       1.0  0.71396  0.20768  0.35193  1.0000
  H   H39       1.0  0.97173  0.95789  0.30877  1.0000
  H   H40       1.0  0.05243  0.59242  0.30885  1.0000
  C   C61       1.0  0.98309  0.52635  0.33921  1.0000
  C   C62       1.0  0.95339  0.98684  0.32986  1.0000
  C   C63       1.0  0.89894  0.98518  0.34329  1.0000
  C   C64       1.0  0.87247  0.52636  0.36577  1.0000
  C   C65       1.0  0.89876  0.56787  0.35780  1.0000
  C   C66       1.0  0.95358  0.56622  0.35093  1.0000
  N   N3        1.0  0.82548  0.52622  0.41112  1.0000
  C   C67       1.0  0.03972  0.52594  0.33922  1.0000
  C   C68       1.0  0.06871  0.98684  0.35089  1.0000
  C   C69       1.0  0.12322  0.98563  0.35780  1.0000
  C   C70       1.0  0.14914  0.52766  0.36579  1.0000
  C   C71       1.0  0.12369  0.56739  0.34336  1.0000
  C   C72       1.0  0.06983  0.56486  0.32997  1.0000
  N   N4        1.0  0.19412  0.53076  0.41117  1.0000
  H   H41       1.0  0.20657  0.00577  0.44226  1.0000
  H   H42       1.0  0.20711  0.55947  0.43354  1.0000
  H   H43       1.0  0.81177  0.55329  0.44229  1.0000
  H   H44       1.0  0.81142  0.99902  0.43343  1.0000
  H   H45       1.0  0.97265  0.59565  0.35144  1.0000
  H   H46       1.0  0.04962  0.95744  0.35138  1.0000
  C   C73       1.0  0.23343  0.73440  0.33178  1.0000
  C   C74       1.0  0.28829  0.73595  0.32905  1.0000
  C   C75       1.0  0.31697  0.77608  0.33532  1.0000
  C   C76       1.0  0.28845  0.81636  0.34158  1.0000
  C   C77       1.0  0.23374  0.81801  0.34218  1.0000
  C   C78       1.0  0.20793  0.77635  0.33816  1.0000
  C   C79       1.0  0.37275  0.77609  0.33637  1.0000
  C   C80       1.0  0.40047  0.74274  0.37747  1.0000
  C   C81       1.0  0.45484  0.74235  0.37703  1.0000
  C   C82       1.0  0.48395  0.77616  0.33756  1.0000
  C   C83       1.0  0.45690  0.80999  0.29771  1.0000
  C   C84       1.0  0.40259  0.80955  0.29613  1.0000
  C   C85       1.0  0.20533  0.69321  0.32960  1.0000
  C   C86       1.0  0.22781  0.65188  0.29705  1.0000
  C   C87       1.0  0.20093  0.61128  0.29969  1.0000
  C   C88       1.0  0.14974  0.60900  0.33584  1.0000
  C   C89       1.0  0.12612  0.65023  0.36441  1.0000
  C   C90       1.0  0.15315  0.69076  0.36213  1.0000
  C   C91       1.0  0.20605  0.85932  0.34644  1.0000
  C   C92       1.0  0.15448  0.86355  0.38168  1.0000
  C   C93       1.0  0.12748  0.90430  0.38632  1.0000
  C   C94       1.0  0.15005  0.94383  0.35585  1.0000
  C   C95       1.0  0.20097  0.93917  0.31780  1.0000
  C   C96       1.0  0.22832  0.89867  0.31462  1.0000
  H   H47       1.0  0.21924  0.58300  0.27312  1.0000
  H   H48       1.0  0.26394  0.65051  0.26727  1.0000
  H   H49       1.0  0.08996  0.65101  0.39455  1.0000
  H   H50       1.0  0.13455  0.71820  0.39148  1.0000
  H   H51       1.0  0.13642  0.83741  0.41001  1.0000
  H   H52       1.0  0.09180  0.90503  0.41799  1.0000
  H   H53       1.0  0.26405  0.89795  0.28306  1.0000
  H   H54       1.0  0.21859  0.96528  0.28846  1.0000
  H   H55       1.0  0.38509  0.83390  0.26340  1.0000
  H   H56       1.0  0.47669  0.83465  0.26711  1.0000
  H   H57       1.0  0.47305  0.71768  0.40790  1.0000
  H   H58       1.0  0.38133  0.71843  0.41001  1.0000
  H   H59       1.0  0.30852  0.70686  0.32553  1.0000
  H   H60       1.0  0.16907  0.77667  0.33042  1.0000
  H   H61       1.0  0.30829  0.84546  0.35193  1.0000
  C   C97       1.0  0.78973  0.81741  0.33175  1.0000
  C   C98       1.0  0.73499  0.81567  0.32902  1.0000
  C   C99       1.0  0.70603  0.77596  0.33530  1.0000
  C   C100      1.0  0.73427  0.73609  0.34158  1.0000
  C   C101      1.0  0.78895  0.73448  0.34220  1.0000
  C   C102      1.0  0.81494  0.77587  0.33816  1.0000
  C   C103      1.0  0.65021  0.77602  0.33635  1.0000
  C   C104      1.0  0.62067  0.81206  0.37749  1.0000
  C   C105      1.0  0.56632  0.81242  0.37705  1.0000
  C   C106      1.0  0.53896  0.77604  0.33756  1.0000
  C   C107      1.0  0.56776  0.73960  0.29763  1.0000
  C   C108      1.0  0.62215  0.73994  0.29606  1.0000
  C   C109      1.0  0.81793  0.85845  0.32951  1.0000
  C   C110      1.0  0.79690  0.89763  0.29689  1.0000
  C   C111      1.0  0.82364  0.93841  0.29959  1.0000
  C   C112      1.0  0.87323  0.94307  0.33573  1.0000
  C   C113      1.0  0.89564  0.90371  0.36420  1.0000
  C   C114      1.0  0.86867  0.86304  0.36205  1.0000
  C   C115      1.0  0.81644  0.69344  0.34647  1.0000
  C   C116      1.0  0.86646  0.69152  0.38173  1.0000
  C   C117      1.0  0.89323  0.65106  0.38643  1.0000
  C   C118      1.0  0.87203  0.60954  0.35585  1.0000
  C   C119      1.0  0.82280  0.61172  0.31779  1.0000
  C   C120      1.0  0.79556  0.65200  0.31471  1.0000
  H   H62       1.0  0.80648  0.96496  0.27307  1.0000
  H   H63       1.0  0.76206  0.89706  0.26722  1.0000
  H   H64       1.0  0.93040  0.90491  0.39453  1.0000
  H   H65       1.0  0.88596  0.83754  0.39147  1.0000
  H   H66       1.0  0.88327  0.71952  0.41004  1.0000
  H   H67       1.0  0.92753  0.65241  0.41804  1.0000
  H   H68       1.0  0.76125  0.65066  0.28306  1.0000
  H   H69       1.0  0.80647  0.58369  0.28846  1.0000
  H   H70       1.0  0.64109  0.71345  0.26330  1.0000
  H   H71       1.0  0.54932  0.71294  0.26703  1.0000
  H   H72       1.0  0.54675  0.83910  0.40800  1.0000
  H   H73       1.0  0.63838  0.83849  0.41008  1.0000
  H   H74       1.0  0.71491  0.84453  0.32549  1.0000
  H   H75       1.0  0.85414  0.77504  0.33044  1.0000
  H   H76       1.0  0.71397  0.70768  0.35193  1.0000
