data_image0
_chemical_formula_structural       HCNC15H2C2NCOC5H2NCOCNC4H6NC10H4CNCOC5H4NC2OC3NC16H14CH3CH3C8H9CH3CH3
_chemical_formula_sum              "H54 C80 N8 O4"
_cell_length_a       29.9189
_cell_length_b       29.9186
_cell_length_c       14.8452
_cell_angle_alpha    90
_cell_angle_beta     90
_cell_angle_gamma    90.0716

_space_group_name_H-M_alt    "P 1"
_space_group_IT_number       1

loop_
  _space_group_symop_operation_xyz
  'x, y, z'

loop_
  _atom_site_type_symbol
  _atom_site_label
  _atom_site_symmetry_multiplicity
  _atom_site_fract_x
  _atom_site_fract_y
  _atom_site_fract_z
  _atom_site_occupancy
  H   H1        1.0  0.03170  0.03461  0.34184  1.0000
  C   C1        1.0  0.04545  0.10176  0.34145  1.0000
  N   N1        1.0  0.05439  0.05731  0.34185  1.0000
  C   C2        1.0  0.88659  0.00742  0.34078  1.0000
  C   C3        1.0  0.09885  0.04837  0.34224  1.0000
  C   C4        1.0  0.12147  0.00651  0.34278  1.0000
  C   C5        1.0  0.16921  0.00699  0.34240  1.0000
  C   C6        1.0  0.19304  0.00879  0.26041  1.0000
  C   C7        1.0  0.24010  0.00980  0.26009  1.0000
  C   C8        1.0  0.26499  0.00908  0.34139  1.0000
  C   C9        1.0  0.31299  0.01022  0.34072  1.0000
  C   C10       1.0  0.33681  0.03795  0.27996  1.0000
  C   C11       1.0  0.38388  0.03871  0.27842  1.0000
  C   C12       1.0  0.40925  0.01179  0.33773  1.0000
  C   C13       1.0  0.83884  0.00712  0.34102  1.0000
  C   C14       1.0  0.74303  0.00875  0.34167  1.0000
  C   C15       1.0  0.69502  0.00992  0.34216  1.0000
  C   C16       1.0  0.59875  0.01163  0.34477  1.0000
  H   H2        1.0  0.17625  0.00929  0.20030  1.0000
  H   H3        1.0  0.25607  0.01030  0.19916  1.0000
  C   C17       1.0  0.45694  0.01211  0.33688  1.0000
  C   C18       1.0  0.55105  0.01201  0.34553  1.0000
  N   N2        1.0  0.52861  0.01165  0.26576  1.0000
  C   C19       1.0  0.48334  0.01149  0.25762  1.0000
  O   O1        1.0  0.46547  0.01085  0.17286  1.0000
  C   C20       1.0  0.24058  0.00718  0.42322  1.0000
  C   C21       1.0  0.81493  0.00882  0.42291  1.0000
  C   C22       1.0  0.76786  0.00960  0.42306  1.0000
  C   C23       1.0  0.67124  0.03764  0.40289  1.0000
  C   C24       1.0  0.62417  0.03847  0.40425  1.0000
  H   H4        1.0  0.75184  0.01014  0.48392  1.0000
  H   H5        1.0  0.83165  0.00957  0.48307  1.0000
  N   N3        1.0  0.47938  0.01158  0.41663  1.0000
  C   C25       1.0  0.52465  0.01132  0.42477  1.0000
  O   O2        1.0  0.54251  0.01047  0.50953  1.0000
  C   C26       1.0  0.90817  0.04977  0.34056  1.0000
  N   N4        1.0  0.95254  0.05847  0.34074  1.0000
  C   C27       1.0  0.96125  0.10284  0.34058  1.0000
  C   C28       1.0  0.88702  0.09137  0.34013  1.0000
  C   C29       1.0  0.11983  0.09013  0.34212  1.0000
  C   C30       1.0  0.76752  0.00684  0.25995  1.0000
  H   H6        1.0  0.85341  0.09753  0.33989  1.0000
  H   H7        1.0  0.15341  0.09651  0.34241  1.0000
  H   H8        1.0  0.39945  0.06006  0.23464  1.0000
  H   H9        1.0  0.32003  0.05870  0.23689  1.0000
  H   H10       1.0  0.60864  0.05983  0.44800  1.0000
  H   H11       1.0  0.68804  0.05838  0.44603  1.0000
  N   N5        1.0  0.05555  0.95546  0.34297  1.0000
  C   C31       1.0  0.04684  0.91109  0.34315  1.0000
  C   C32       1.0  0.00596  0.81786  0.26075  1.0000
  C   C33       1.0  0.00673  0.77079  0.26057  1.0000
  C   C34       1.0  0.00582  0.74595  0.34194  1.0000
  C   C35       1.0  0.00699  0.69795  0.34143  1.0000
  C   C36       1.0  0.03560  0.62710  0.27943  1.0000
  C   C37       1.0  0.03475  0.67416  0.28077  1.0000
  C   C38       1.0  0.00617  0.26791  0.34223  1.0000
  C   C39       1.0  0.00732  0.31590  0.34288  1.0000
  C   C40       1.0  0.00891  0.41217  0.34582  1.0000
  H   H12       1.0  0.05553  0.69098  0.23771  1.0000
  H   H13       1.0  0.05698  0.61157  0.23570  1.0000
  H   H14       1.0  0.00734  0.75478  0.19970  1.0000
  H   H15       1.0  0.00677  0.83460  0.20059  1.0000
  C   C41       1.0  0.00911  0.55398  0.33803  1.0000
  N   N6        1.0  0.00873  0.48231  0.26691  1.0000
  C   C42       1.0  0.00846  0.52758  0.25878  1.0000
  O   O3        1.0  0.00765  0.54544  0.17402  1.0000
  C   C43       1.0  0.00870  0.60167  0.33879  1.0000
  C   C44       1.0  0.00583  0.19597  0.42326  1.0000
  C   C45       1.0  0.00685  0.24303  0.42355  1.0000
  C   C46       1.0  0.03580  0.38680  0.40520  1.0000
  C   C47       1.0  0.03501  0.33973  0.40371  1.0000
  H   H16       1.0  0.00630  0.17919  0.48338  1.0000
  H   H17       1.0  0.00732  0.25901  0.48447  1.0000
  H   H18       1.0  0.05576  0.32296  0.44679  1.0000
  H   H19       1.0  0.05713  0.40237  0.44903  1.0000
  N   N7        1.0  0.00870  0.53153  0.41779  1.0000
  C   C48       1.0  0.00856  0.48625  0.42592  1.0000
  C   C49       1.0  0.00924  0.45986  0.34667  1.0000
  O   O4        1.0  0.00787  0.46839  0.51068  1.0000
  C   C50       1.0  0.88822  0.92377  0.34157  1.0000
  C   C51       1.0  0.92084  0.89114  0.34209  1.0000
  C   C52       1.0  0.96261  0.91212  0.34238  1.0000
  N   N8        1.0  0.95366  0.95658  0.34187  1.0000
  C   C53       1.0  0.90920  0.96554  0.34134  1.0000
  C   C54       1.0  0.91968  0.12403  0.34023  1.0000
  C   C55       1.0  0.00360  0.12439  0.34091  1.0000
  C   C56       1.0  0.08722  0.12275  0.34159  1.0000
  C   C57       1.0  0.08845  0.88993  0.34357  1.0000
  C   C58       1.0  0.12111  0.92259  0.34347  1.0000
  C   C59       1.0  0.00449  0.88951  0.34291  1.0000
  C   C60       1.0  0.00419  0.84176  0.34264  1.0000
  C   C61       1.0  0.00408  0.17213  0.34128  1.0000
  C   C62       1.0  0.00429  0.24350  0.26042  1.0000
  C   C63       1.0  0.00332  0.19642  0.25978  1.0000
  C   C64       1.0  0.98088  0.34144  0.28275  1.0000
  C   C65       1.0  0.98187  0.38852  0.28376  1.0000
  C   C66       1.0  0.81460  0.00609  0.25947  1.0000
  C   C67       1.0  0.62235  0.98458  0.28275  1.0000
  C   C68       1.0  0.66943  0.98354  0.28188  1.0000
  H   H20       1.0  0.60538  0.96434  0.23883  1.0000
  H   H21       1.0  0.68486  0.96234  0.23767  1.0000
  H   H22       1.0  0.75127  0.00708  0.19932  1.0000
  H   H23       1.0  0.83111  0.00524  0.19906  1.0000
  H   H24       1.0  0.85463  0.91743  0.34130  1.0000
  H   H25       1.0  0.91449  0.85756  0.34229  1.0000
  H   H26       1.0  0.97634  0.97927  0.34190  1.0000
  H   H27       1.0  0.91356  0.15765  0.34011  1.0000
  H   H28       1.0  0.00234  0.17996  0.19933  1.0000
  H   H29       1.0  0.00462  0.25979  0.19984  1.0000
  H   H30       1.0  0.09360  0.15632  0.34131  1.0000
  H   H31       1.0  0.15472  0.91647  0.34359  1.0000
  H   H32       1.0  0.95970  0.32597  0.23848  1.0000
  H   H33       1.0  0.96159  0.40545  0.23992  1.0000
  C   C69       1.0  0.96326  0.54946  0.13780  1.0000
  H   H34       1.0  0.96585  0.56404  0.07068  1.0000
  H   H35       1.0  0.94259  0.57149  0.17909  1.0000
  H   H36       1.0  0.94710  0.51685  0.13162  1.0000
  C   C70       1.0  0.46083  0.96650  0.13671  1.0000
  H   H37       1.0  0.44634  0.96923  0.06953  1.0000
  H   H38       1.0  0.43849  0.94610  0.17796  1.0000
  H   H39       1.0  0.49322  0.94994  0.13064  1.0000
  C   C71       1.0  0.09992  0.96416  0.34313  1.0000
  C   C72       1.0  0.00383  0.77043  0.42367  1.0000
  C   C73       1.0  0.00309  0.81751  0.42419  1.0000
  C   C74       1.0  0.98055  0.67234  0.40159  1.0000
  C   C75       1.0  0.98160  0.62526  0.40071  1.0000
  C   C76       1.0  0.19351  0.00618  0.42388  1.0000
  C   C77       1.0  0.38560  0.98473  0.39975  1.0000
  C   C78       1.0  0.33853  0.98376  0.40081  1.0000
  H   H40       1.0  0.09460  0.85632  0.34381  1.0000
  H   H41       1.0  0.17706  0.00517  0.48434  1.0000
  H   H42       1.0  0.25689  0.00743  0.48379  1.0000
  H   H43       1.0  0.32305  0.96254  0.44501  1.0000
  H   H44       1.0  0.40253  0.96442  0.44354  1.0000
  H   H45       1.0  0.00218  0.83401  0.48460  1.0000
  H   H46       1.0  0.00402  0.75417  0.48429  1.0000
  H   H47       1.0  0.96134  0.60828  0.44459  1.0000
  H   H48       1.0  0.95934  0.68777  0.44578  1.0000
  C   C79       1.0  0.96350  0.46376  0.54674  1.0000
  H   H49       1.0  0.96619  0.44926  0.61392  1.0000
  H   H50       1.0  0.94312  0.44142  0.50544  1.0000
  H   H51       1.0  0.94694  0.49614  0.55279  1.0000
  C   C80       1.0  0.54651  0.96608  0.54569  1.0000
  H   H52       1.0  0.56109  0.96864  0.61283  1.0000
  H   H53       1.0  0.56852  0.94540  0.50438  1.0000
  H   H54       1.0  0.51389  0.94993  0.55187  1.0000
