data_image0
_chemical_formula_structural       CNCHNHCNCHNHCNCHNHCNCNCNC18H12C3O3CNCNCNC18H12C3O3NC3H3NHNC3H3NHNC3H3NH
_chemical_formula_sum              "C63 N18 H42 O6"
_cell_length_a       36.5879
_cell_length_b       36.5873
_cell_length_c       15.0724
_cell_angle_alpha    90
_cell_angle_beta     90
_cell_angle_gamma    120

_space_group_name_H-M_alt    "P 1"
_space_group_IT_number       1

loop_
  _space_group_symop_operation_xyz
  'x, y, z'

loop_
  _atom_site_type_symbol
  _atom_site_label
  _atom_site_symmetry_multiplicity
  _atom_site_fract_x
  _atom_site_fract_y
  _atom_site_fract_z
  _atom_site_occupancy
  C   C1        1.0  0.47221  0.51566  0.31435  1.0000
  N   N1        1.0  0.52489  0.49886  0.27366  1.0000
  C   C2        1.0  0.50033  0.51531  0.25096  1.0000
  H   H1        1.0  0.50214  0.52665  0.18820  1.0000
  N   N2        1.0  0.44816  0.53369  0.29634  1.0000
  H   H2        1.0  0.45688  0.55300  0.24594  1.0000
  C   C3        1.0  0.47832  0.95536  0.31439  1.0000
  N   N3        1.0  0.49517  0.02486  0.27366  1.0000
  C   C4        1.0  0.47870  0.98383  0.25097  1.0000
  H   H3        1.0  0.46736  0.97430  0.18822  1.0000
  N   N4        1.0  0.46030  0.91328  0.29636  1.0000
  H   H4        1.0  0.44101  0.90270  0.24593  1.0000
  C   C5        1.0  0.03863  0.52177  0.31435  1.0000
  N   N5        1.0  0.96915  0.46908  0.27367  1.0000
  C   C6        1.0  0.01016  0.49365  0.25097  1.0000
  H   H5        1.0  0.01968  0.49186  0.18818  1.0000
  N   N6        1.0  0.08071  0.54583  0.29631  1.0000
  H   H6        1.0  0.09128  0.53712  0.24587  1.0000
  C   C7        1.0  0.28677  0.64833  0.31767  1.0000
  N   N7        1.0  0.30345  0.62247  0.31794  1.0000
  C   C8        1.0  0.34565  0.63724  0.31771  1.0000
  N   N8        1.0  0.37151  0.67978  0.31796  1.0000
  C   C9        1.0  0.35674  0.70722  0.31767  1.0000
  N   N9        1.0  0.31420  0.69053  0.31793  1.0000
  C   C10       1.0  0.36218  0.60944  0.32053  1.0000
  C   C11       1.0  0.33569  0.56556  0.33502  1.0000
  C   C12       1.0  0.35253  0.53854  0.34186  1.0000
  C   C13       1.0  0.39634  0.55440  0.33257  1.0000
  C   C14       1.0  0.42283  0.59810  0.31746  1.0000
  C   C15       1.0  0.40605  0.62511  0.31157  1.0000
  C   C16       1.0  0.24244  0.63181  0.32047  1.0000
  C   C17       1.0  0.21424  0.58794  0.31146  1.0000
  C   C18       1.0  0.17045  0.57117  0.31730  1.0000
  C   C19       1.0  0.15323  0.59764  0.33250  1.0000
  C   C20       1.0  0.18118  0.64145  0.34186  1.0000
  C   C21       1.0  0.22505  0.65829  0.33502  1.0000
  C   C22       1.0  0.38455  0.75155  0.32051  1.0000
  C   C23       1.0  0.36887  0.77975  0.31152  1.0000
  C   C24       1.0  0.39588  0.82353  0.31737  1.0000
  C   C25       1.0  0.43957  0.84075  0.33257  1.0000
  C   C26       1.0  0.45543  0.81280  0.34192  1.0000
  C   C27       1.0  0.42842  0.76894  0.33502  1.0000
  H   H7        1.0  0.15143  0.53911  0.31348  1.0000
  H   H8        1.0  0.22514  0.56739  0.30159  1.0000
  H   H9        1.0  0.16987  0.66156  0.35342  1.0000
  H   H10       1.0  0.24411  0.69015  0.34286  1.0000
  H   H11       1.0  0.33742  0.76884  0.30159  1.0000
  H   H12       1.0  0.38285  0.84255  0.31350  1.0000
  H   H13       1.0  0.44122  0.74987  0.34291  1.0000
  H   H14       1.0  0.48686  0.82412  0.35347  1.0000
  H   H15       1.0  0.42660  0.65656  0.30171  1.0000
  H   H16       1.0  0.45488  0.61114  0.31360  1.0000
  H   H17       1.0  0.33242  0.50711  0.35336  1.0000
  H   H18       1.0  0.30383  0.55276  0.34282  1.0000
  C   C28       1.0  0.10910  0.58009  0.34357  1.0000
  C   C29       1.0  0.46617  0.88489  0.34363  1.0000
  C   C30       1.0  0.41389  0.52781  0.34359  1.0000
  O   O1        1.0  0.39580  0.49649  0.40454  1.0000
  O   O2        1.0  0.49746  0.89811  0.40463  1.0000
  O   O3        1.0  0.09588  0.59816  0.40460  1.0000
  C   C31       1.0  0.70590  0.34603  0.32451  1.0000
  N   N10       1.0  0.69002  0.37258  0.32455  1.0000
  C   C32       1.0  0.64799  0.35867  0.32457  1.0000
  N   N11       1.0  0.62144  0.31625  0.32459  1.0000
  C   C33       1.0  0.63535  0.28812  0.32455  1.0000
  N   N12       1.0  0.67777  0.30400  0.32453  1.0000
  C   C34       1.0  0.63236  0.38726  0.32482  1.0000
  C   C35       1.0  0.65984  0.43146  0.31842  1.0000
  C   C36       1.0  0.64406  0.45949  0.31777  1.0000
  C   C37       1.0  0.60029  0.44426  0.32520  1.0000
  C   C38       1.0  0.57276  0.40019  0.33101  1.0000
  C   C39       1.0  0.58850  0.37223  0.33082  1.0000
  C   C40       1.0  0.75012  0.36165  0.32470  1.0000
  C   C41       1.0  0.77895  0.40552  0.33061  1.0000
  C   C42       1.0  0.82264  0.42125  0.33072  1.0000
  C   C43       1.0  0.83917  0.39370  0.32506  1.0000
  C   C44       1.0  0.81063  0.34993  0.31773  1.0000
  C   C45       1.0  0.76681  0.33416  0.31839  1.0000
  C   C46       1.0  0.60676  0.24390  0.32477  1.0000
  C   C47       1.0  0.62179  0.21507  0.33073  1.0000
  C   C48       1.0  0.59383  0.17138  0.33089  1.0000
  C   C49       1.0  0.54976  0.15484  0.32516  1.0000
  C   C50       1.0  0.53453  0.18338  0.31777  1.0000
  C   C51       1.0  0.56256  0.22720  0.31842  1.0000
  H   H19       1.0  0.84221  0.45327  0.33273  1.0000
  H   H20       1.0  0.76863  0.42680  0.33451  1.0000
  H   H21       1.0  0.82144  0.32906  0.31300  1.0000
  H   H22       1.0  0.74731  0.30223  0.31338  1.0000
  H   H23       1.0  0.65340  0.22540  0.33462  1.0000
  H   H24       1.0  0.60629  0.15182  0.33283  1.0000
  H   H25       1.0  0.55013  0.24670  0.31338  1.0000
  H   H26       1.0  0.50284  0.17256  0.31299  1.0000
  H   H27       1.0  0.56722  0.34062  0.33474  1.0000
  H   H28       1.0  0.54074  0.38772  0.33295  1.0000
  H   H29       1.0  0.66493  0.49118  0.31294  1.0000
  H   H30       1.0  0.69177  0.44389  0.31333  1.0000
  C   C52       1.0  0.88342  0.41011  0.32196  1.0000
  C   C53       1.0  0.52193  0.11059  0.32198  1.0000
  C   C54       1.0  0.58387  0.47209  0.32200  1.0000
  O   O4        1.0  0.60356  0.50635  0.26855  1.0000
  O   O5        1.0  0.48763  0.09600  0.26865  1.0000
  O   O6        1.0  0.89801  0.39038  0.26869  1.0000
  N   N13       1.0  0.47266  0.50033  0.39627  1.0000
  C   C55       1.0  0.49725  0.48386  0.42018  1.0000
  C   C56       1.0  0.52519  0.48328  0.35554  1.0000
  C   C57       1.0  0.49419  0.46881  0.51240  1.0000
  H   H31       1.0  0.47230  0.47430  0.55146  1.0000
  H   H32       1.0  0.52515  0.48548  0.54407  1.0000
  H   H33       1.0  0.48294  0.43498  0.51273  1.0000
  N   N14       1.0  0.54915  0.46468  0.36956  1.0000
  H   H34       1.0  0.53920  0.44274  0.41470  1.0000
  N   N15       1.0  0.49365  0.97114  0.39632  1.0000
  C   C58       1.0  0.51013  0.01220  0.42022  1.0000
  C   C59       1.0  0.51076  0.04073  0.35554  1.0000
  C   C60       1.0  0.52517  0.02420  0.51244  1.0000
  H   H35       1.0  0.51965  0.99680  0.55152  1.0000
  H   H36       1.0  0.50852  0.03851  0.54407  1.0000
  H   H37       1.0  0.55901  0.04676  0.51278  1.0000
  N   N16       1.0  0.52933  0.08328  0.36959  1.0000
  H   H38       1.0  0.55131  0.09528  0.41465  1.0000
  N   N17       1.0  0.02285  0.52130  0.39629  1.0000
  C   C61       1.0  0.98181  0.49670  0.42022  1.0000
  C   C62       1.0  0.95327  0.46877  0.35558  1.0000
  C   C63       1.0  0.96981  0.49974  0.51244  1.0000
  H   H39       1.0  0.99720  0.52164  0.55151  1.0000
  H   H40       1.0  0.95552  0.46879  0.54409  1.0000
  H   H41       1.0  0.94723  0.51100  0.51278  1.0000
  N   N18       1.0  0.91073  0.44481  0.36959  1.0000
  H   H42       1.0  0.89872  0.45480  0.41461  1.0000
