data_image0
_chemical_formula_structural       C2NCOC4NH2C4HNHOC3HC3HN2H2OC4HNO2HCHCHC5H2NH2NO2C4H2C5HNO2CH2OC3HC4HN2H2O2CHNH2C5H2NH2NO2C5H2NH2NO2C3H2C5H2C5H2C6H3NO2C5H2NH2NO2C2HNH2C3HC4HN2H2O2C3HC4HN2H2O2
_chemical_formula_sum              "C96 N24 O24 H60"
_cell_length_a       34.5816
_cell_length_b       34.592
_cell_length_c       14.8094
_cell_angle_alpha    90
_cell_angle_beta     90
_cell_angle_gamma    119.993

_space_group_name_H-M_alt    "P 1"
_space_group_IT_number       1

loop_
  _space_group_symop_operation_xyz
  'x, y, z'

loop_
  _atom_site_type_symbol
  _atom_site_label
  _atom_site_symmetry_multiplicity
  _atom_site_fract_x
  _atom_site_fract_y
  _atom_site_fract_z
  _atom_site_occupancy
  C   C1        1.0  0.10185  0.05254  0.34874  1.0000
  C   C2        1.0  0.12552  0.05392  0.26910  1.0000
  N   N1        1.0  0.10136  0.03179  0.19018  1.0000
  C   C3        1.0  0.95825  0.05230  0.34868  1.0000
  O   O1        1.0  0.95201  0.05359  0.12631  1.0000
  C   C4        1.0  0.05387  0.02848  0.34825  1.0000
  C   C5        1.0  0.02961  0.05151  0.34799  1.0000
  C   C6        1.0  0.98230  0.02838  0.34822  1.0000
  C   C7        1.0  0.93517  0.05399  0.42723  1.0000
  N   N2        1.0  0.93599  0.03483  0.50706  1.0000
  H   H1        1.0  0.92049  0.03682  0.56021  1.0000
  H   H2        1.0  0.95319  0.01988  0.51495  1.0000
  C   C8        1.0  0.24621  0.12721  0.34253  1.0000
  C   C9        1.0  0.27146  0.16124  0.27789  1.0000
  C   C10       1.0  0.19805  0.10227  0.34450  1.0000
  C   C11       1.0  0.17290  0.07809  0.26850  1.0000
  H   H3        1.0  0.18927  0.07834  0.21070  1.0000
  N   N3        1.0  0.25214  0.17532  0.21577  1.0000
  H   H4        1.0  0.22030  0.16451  0.21561  1.0000
  O   O2        1.0  0.10939  0.05874  0.12639  1.0000
  C   C12       1.0  0.88375  0.12216  0.34244  1.0000
  C   C13       1.0  0.84973  0.11343  0.27776  1.0000
  C   C14       1.0  0.82812  0.13919  0.27972  1.0000
  H   H5        1.0  0.80424  0.13297  0.23201  1.0000
  C   C15       1.0  0.90864  0.09889  0.34442  1.0000
  C   C16       1.0  0.95689  0.07458  0.26901  1.0000
  C   C17       1.0  0.93277  0.09785  0.26840  1.0000
  H   H6        1.0  0.93254  0.11396  0.21058  1.0000
  N   N4        1.0  0.97898  0.07250  0.19008  1.0000
  N   N5        1.0  0.83562  0.08003  0.21563  1.0000
  H   H7        1.0  0.81147  0.07385  0.17381  1.0000
  H   H8        1.0  0.84627  0.05887  0.21574  1.0000
  O   O3        1.0  0.00848  0.11066  0.16464  1.0000
  C   C18       1.0  0.49163  0.18071  0.36195  1.0000
  C   C19       1.0  0.49506  0.15446  0.29246  1.0000
  C   C20       1.0  0.53141  0.14634  0.29271  1.0000
  C   C21       1.0  0.62998  0.17706  0.26345  1.0000
  H   H9        1.0  0.53387  0.12821  0.24058  1.0000
  N   N6        1.0  0.46375  0.13926  0.22085  1.0000
  O   O4        1.0  0.48222  0.15554  0.14644  1.0000
  O   O5        1.0  0.44343  0.09744  0.21503  1.0000
  H   H10       1.0  0.04668  0.08572  0.34823  1.0000
  C   C22       1.0  0.41672  0.17637  0.35094  1.0000
  H   H11       1.0  0.40081  0.14230  0.35457  1.0000
  C   C23       1.0  0.76539  0.17236  0.33786  1.0000
  H   H12       1.0  0.74850  0.13823  0.33444  1.0000
  C   C24       1.0  0.34287  0.17345  0.34537  1.0000
  C   C25       1.0  0.31750  0.14028  0.41090  1.0000
  C   C26       1.0  0.27013  0.11768  0.40802  1.0000
  C   C27       1.0  0.17397  0.10008  0.42333  1.0000
  C   C28       1.0  0.12658  0.07566  0.42728  1.0000
  H   H13       1.0  0.19152  0.11713  0.47949  1.0000
  H   H14       1.0  0.25281  0.09359  0.45555  1.0000
  N   N7        1.0  0.10658  0.07483  0.50710  1.0000
  H   H15       1.0  0.12405  0.09031  0.56027  1.0000
  H   H16       1.0  0.07443  0.05754  0.51500  1.0000
  N   N8        1.0  0.33966  0.13114  0.48102  1.0000
  O   O6        1.0  0.33016  0.09100  0.48034  1.0000
  O   O7        1.0  0.33026  0.14006  0.55736  1.0000
  C   C29       1.0  0.83759  0.17266  0.34521  1.0000
  C   C30       1.0  0.87075  0.18042  0.41077  1.0000
  C   C31       1.0  0.89330  0.15562  0.40792  1.0000
  C   C32       1.0  0.91080  0.07700  0.42327  1.0000
  H   H17       1.0  0.89379  0.07756  0.47944  1.0000
  H   H18       1.0  0.91738  0.16235  0.45547  1.0000
  C   C33       1.0  0.56612  0.16559  0.35767  1.0000
  C   C34       1.0  0.60544  0.16210  0.34467  1.0000
  C   C35       1.0  0.69287  0.17290  0.32933  1.0000
  C   C36       1.0  0.66743  0.15500  0.40947  1.0000
  C   C37       1.0  0.62354  0.14827  0.41467  1.0000
  H   H19       1.0  0.60643  0.13729  0.47427  1.0000
  N   N9        1.0  0.68749  0.14754  0.48596  1.0000
  O   O8        1.0  0.69044  0.17225  0.55098  1.0000
  O   O9        1.0  0.66606  0.10756  0.51127  1.0000
  C   C38       1.0  0.31884  0.18289  0.27988  1.0000
  H   H20       1.0  0.33648  0.20679  0.23220  1.0000
  H   H21       1.0  0.27006  0.19937  0.17373  1.0000
  O   O10       1.0  0.11010  0.00234  0.16477  1.0000
  C   C39       1.0  0.88878  0.76464  0.34250  1.0000
  C   C40       1.0  0.89757  0.73939  0.27786  1.0000
  C   C41       1.0  0.87185  0.69203  0.27985  1.0000
  H   H22       1.0  0.87812  0.67439  0.23218  1.0000
  C   C42       1.0  0.91201  0.81280  0.34446  1.0000
  C   C43       1.0  0.95850  0.90897  0.34872  1.0000
  C   C44       1.0  0.93621  0.88531  0.26907  1.0000
  C   C45       1.0  0.91300  0.83795  0.26846  1.0000
  H   H23       1.0  0.89689  0.82159  0.21065  1.0000
  N   N10       1.0  0.93826  0.90947  0.19014  1.0000
  N   N11       1.0  0.93099  0.75870  0.21577  1.0000
  H   H24       1.0  0.93713  0.74077  0.17374  1.0000
  H   H25       1.0  0.95203  0.79053  0.21562  1.0000
  O   O11       1.0  0.95719  0.90143  0.12636  1.0000
  O   O12       1.0  0.90007  0.90075  0.16471  1.0000
  C   C46       1.0  0.67310  0.18231  0.25405  1.0000
  H   H26       1.0  0.61753  0.18734  0.21178  1.0000
  N   N12       1.0  0.69515  0.19838  0.17444  1.0000
  H   H27       1.0  0.68125  0.20464  0.12364  1.0000
  H   H28       1.0  0.72413  0.20114  0.16345  1.0000
  C   C47       1.0  0.83020  0.31409  0.36199  1.0000
  C   C48       1.0  0.85657  0.34377  0.29257  1.0000
  C   C49       1.0  0.86471  0.38823  0.29283  1.0000
  C   C50       1.0  0.83400  0.45608  0.26358  1.0000
  C   C51       1.0  0.82869  0.49390  0.25424  1.0000
  H   H29       1.0  0.82358  0.43328  0.21203  1.0000
  H   H30       1.0  0.88291  0.40883  0.24079  1.0000
  N   N13       1.0  0.81252  0.49982  0.17469  1.0000
  H   H31       1.0  0.80638  0.47972  0.12381  1.0000
  H   H32       1.0  0.80987  0.52609  0.16365  1.0000
  N   N14       1.0  0.87180  0.32767  0.22101  1.0000
  O   O13       1.0  0.85560  0.32991  0.14654  1.0000
  O   O14       1.0  0.91365  0.34915  0.21533  1.0000
  C   C52       1.0  0.69688  0.51929  0.36190  1.0000
  C   C53       1.0  0.66719  0.51583  0.29236  1.0000
  C   C54       1.0  0.62274  0.47948  0.29264  1.0000
  C   C55       1.0  0.55490  0.38093  0.26355  1.0000
  C   C56       1.0  0.51702  0.33783  0.25422  1.0000
  H   H33       1.0  0.57762  0.39334  0.21188  1.0000
  H   H34       1.0  0.60215  0.47700  0.24050  1.0000
  N   N15       1.0  0.51102  0.31577  0.17461  1.0000
  H   H35       1.0  0.53119  0.32965  0.12380  1.0000
  H   H36       1.0  0.48479  0.28681  0.16361  1.0000
  N   N16       1.0  0.68330  0.54711  0.22072  1.0000
  O   O15       1.0  0.68113  0.52863  0.14634  1.0000
  O   O16       1.0  0.66177  0.56741  0.21484  1.0000
  C   C57       1.0  0.95927  0.98109  0.34797  1.0000
  C   C58       1.0  0.98241  0.95693  0.34824  1.0000
  C   C59       1.0  0.02971  0.98119  0.34799  1.0000
  H   H37       1.0  0.92505  0.96396  0.34820  1.0000
  H   H38       1.0  0.04686  0.96413  0.34826  1.0000
  C   C60       1.0  0.46400  0.20053  0.35296  1.0000
  C   C61       1.0  0.48567  0.24736  0.34388  1.0000
  C   C62       1.0  0.46195  0.27048  0.33560  1.0000
  C   C63       1.0  0.41477  0.24563  0.33800  1.0000
  C   C64       1.0  0.39115  0.19822  0.34498  1.0000
  H   H39       1.0  0.39753  0.26252  0.33462  1.0000
  H   H40       1.0  0.51994  0.26530  0.34325  1.0000
  C   C65       1.0  0.81045  0.26666  0.35290  1.0000
  C   C66       1.0  0.76361  0.24149  0.34379  1.0000
  C   C67       1.0  0.74051  0.19465  0.33550  1.0000
  C   C68       1.0  0.81281  0.19616  0.34486  1.0000
  C   C69       1.0  0.83464  0.24357  0.35089  1.0000
  H   H41       1.0  0.86872  0.26174  0.35457  1.0000
  H   H42       1.0  0.74564  0.25778  0.34318  1.0000
  C   C70       1.0  0.74433  0.54690  0.35294  1.0000
  C   C71       1.0  0.76951  0.52524  0.34386  1.0000
  C   C72       1.0  0.81636  0.54896  0.33558  1.0000
  C   C73       1.0  0.83867  0.59612  0.33798  1.0000
  C   C74       1.0  0.81486  0.61974  0.34494  1.0000
  C   C75       1.0  0.76744  0.59417  0.35091  1.0000
  H   H43       1.0  0.87281  0.61336  0.33460  1.0000
  H   H44       1.0  0.74926  0.61008  0.35451  1.0000
  H   H45       1.0  0.75320  0.49098  0.34323  1.0000
  N   N17       1.0  0.87990  0.21171  0.48089  1.0000
  O   O17       1.0  0.92007  0.24232  0.48024  1.0000
  O   O18       1.0  0.87096  0.19340  0.55723  1.0000
  C   C76       1.0  0.83836  0.66801  0.34531  1.0000
  C   C77       1.0  0.83055  0.69339  0.41083  1.0000
  C   C78       1.0  0.85532  0.74074  0.40796  1.0000
  C   C79       1.0  0.93389  0.83686  0.42331  1.0000
  C   C80       1.0  0.95686  0.88423  0.42726  1.0000
  H   H46       1.0  0.93338  0.81931  0.47947  1.0000
  H   H47       1.0  0.84855  0.75806  0.45549  1.0000
  N   N18       1.0  0.97603  0.90422  0.50709  1.0000
  H   H48       1.0  0.97403  0.88675  0.56026  1.0000
  H   H49       1.0  0.99089  0.93636  0.51499  1.0000
  N   N19       1.0  0.79924  0.67124  0.48093  1.0000
  O   O19       1.0  0.76859  0.68075  0.48024  1.0000
  O   O20       1.0  0.81755  0.68062  0.55729  1.0000
  C   C81       1.0  0.56259  0.19192  0.42800  1.0000
  C   C82       1.0  0.52448  0.19710  0.43069  1.0000
  H   H50       1.0  0.52297  0.21745  0.47928  1.0000
  N   N20       1.0  0.59558  0.21568  0.48924  1.0000
  H   H51       1.0  0.59261  0.23466  0.53403  1.0000
  H   H52       1.0  0.62472  0.21827  0.48516  1.0000
  C   C83       1.0  0.84546  0.40369  0.35780  1.0000
  C   C84       1.0  0.81906  0.37383  0.42805  1.0000
  C   C85       1.0  0.81386  0.33055  0.43080  1.0000
  H   H53       1.0  0.79342  0.30864  0.47922  1.0000
  C   C86       1.0  0.84901  0.44652  0.34478  1.0000
  C   C87       1.0  0.83813  0.52308  0.32953  1.0000
  C   C88       1.0  0.85611  0.51558  0.40958  1.0000
  C   C89       1.0  0.86290  0.47847  0.41473  1.0000
  H   H54       1.0  0.87385  0.47229  0.47432  1.0000
  N   N21       1.0  0.86355  0.54309  0.48606  1.0000
  N   N22       1.0  0.79530  0.38306  0.48926  1.0000
  H   H55       1.0  0.77641  0.36121  0.53428  1.0000
  H   H56       1.0  0.79289  0.40972  0.48544  1.0000
  O   O21       1.0  0.83887  0.52131  0.55111  1.0000
  O   O22       1.0  0.90356  0.56168  0.51133  1.0000
  C   C90       1.0  0.60730  0.44481  0.35767  1.0000
  C   C91       1.0  0.63717  0.44837  0.42802  1.0000
  C   C92       1.0  0.68045  0.48647  0.43068  1.0000
  H   H57       1.0  0.70232  0.48801  0.47928  1.0000
  C   C93       1.0  0.56449  0.40550  0.34473  1.0000
  C   C94       1.0  0.48784  0.31811  0.32953  1.0000
  C   C95       1.0  0.49540  0.34359  0.40959  1.0000
  C   C96       1.0  0.53256  0.38745  0.41474  1.0000
  H   H58       1.0  0.53870  0.40459  0.47430  1.0000
  N   N23       1.0  0.46787  0.32356  0.48608  1.0000
  N   N24       1.0  0.62796  0.41542  0.48931  1.0000
  H   H59       1.0  0.64991  0.41840  0.53413  1.0000
  H   H60       1.0  0.60141  0.38628  0.48527  1.0000
  O   O23       1.0  0.48964  0.32062  0.55112  1.0000
  O   O24       1.0  0.44933  0.34501  0.51135  1.0000
