data_image0
_chemical_formula_structural       C4OHOHC4OHOHC4OHOHC2O2H2C2O2H2C2O2H2C4OHOHC4OHOHC4OHOHC4OHOHC4OHOHC4OHOHC2O2H2C2O2H2C2O2H2C2O2H2C2O2H2C2O2H2C4OHOHC4OHOHC4OHOHC4OHOHC4OHOHC4OHOHCNCNCNCNCNCNCNCNCNCNCNCNCNCNCNCNCNCNCNCNCNCNCNCNCNCNCNCNCNCNCNCNCNCNCNCNCNCNCNCNCNCNCNCNCNCNCNCNC2O2H2C2O2H2C2O2H2C4OHOHC4OHOHC4OHOHC2O2H2C2O2H2C2O2H2C2O2H2C2O2H2C2O2H2C4OHOHC4OHOHC4OHOHC4OHOHC4OHOHC4OHOHC2O2H2C2O2H2C2O2H2C2O2H2C2O2H2C2O2H2
_chemical_formula_sum              "C192 O96 H96 N48"
_cell_length_a       41.5783
_cell_length_b       41.5783
_cell_length_c       14.8008
_cell_angle_alpha    90
_cell_angle_beta     90
_cell_angle_gamma    120

_space_group_name_H-M_alt    "P 1"
_space_group_IT_number       1

loop_
  _space_group_symop_operation_xyz
  'x, y, z'

loop_
  _atom_site_type_symbol
  _atom_site_label
  _atom_site_symmetry_multiplicity
  _atom_site_fract_x
  _atom_site_fract_y
  _atom_site_fract_z
  _atom_site_occupancy
  C   C1        1.0  0.00941  0.14642  0.34501  1.0000
  C   C2        1.0  0.97865  0.11297  0.31199  1.0000
  C   C3        1.0  0.97832  0.07859  0.31240  1.0000
  C   C4        1.0  0.00879  0.07544  0.34559  1.0000
  O   O1        1.0  0.94761  0.04841  0.27822  1.0000
  H   H1        1.0  0.95289  0.04690  0.21407  1.0000
  O   O2        1.0  0.94823  0.11285  0.27715  1.0000
  H   H2        1.0  0.95386  0.11990  0.21321  1.0000
  C   C5        1.0  0.86972  0.86704  0.34695  1.0000
  C   C6        1.0  0.90336  0.87020  0.31391  1.0000
  C   C7        1.0  0.93743  0.90455  0.31383  1.0000
  C   C8        1.0  0.94008  0.93801  0.34659  1.0000
  O   O3        1.0  0.96776  0.90439  0.27941  1.0000
  H   H3        1.0  0.96920  0.91127  0.21534  1.0000
  O   O4        1.0  0.90398  0.84011  0.27945  1.0000
  H   H4        1.0  0.89708  0.83859  0.21538  1.0000
  C   C9        1.0  0.14811  0.00674  0.34613  1.0000
  C   C10       1.0  0.14536  0.03784  0.31606  1.0000
  C   C11       1.0  0.11114  0.03786  0.31618  1.0000
  C   C12       1.0  0.07732  0.00674  0.34618  1.0000
  O   O5        1.0  0.11182  0.06905  0.28500  1.0000
  H   H5        1.0  0.10559  0.06482  0.22037  1.0000
  O   O6        1.0  0.17580  0.06900  0.28453  1.0000
  H   H6        1.0  0.17761  0.06474  0.21982  1.0000
  C   C13       1.0  0.08957  0.30370  0.26562  1.0000
  C   C14       1.0  0.11880  0.34115  0.26615  1.0000
  O   O7        1.0  0.07472  0.28713  0.18489  1.0000
  O   O8        1.0  0.13033  0.35963  0.18608  1.0000
  H   H7        1.0  0.05530  0.29325  0.17058  1.0000
  H   H8        1.0  0.15151  0.35704  0.16643  1.0000
  C   C15       1.0  0.71290  0.78937  0.26561  1.0000
  C   C16       1.0  0.67551  0.78133  0.26613  1.0000
  O   O9        1.0  0.72958  0.79144  0.18484  1.0000
  O   O10       1.0  0.65716  0.77483  0.18597  1.0000
  H   H9        1.0  0.72348  0.76596  0.16984  1.0000
  H   H10       1.0  0.65989  0.79874  0.16706  1.0000
  C   C17       1.0  0.22620  0.92735  0.26567  1.0000
  C   C18       1.0  0.23480  0.89837  0.26623  1.0000
  O   O11       1.0  0.22417  0.94200  0.18493  1.0000
  O   O12       1.0  0.24178  0.88689  0.18613  1.0000
  H   H11       1.0  0.24961  0.96160  0.17037  1.0000
  H   H12       1.0  0.21804  0.86565  0.16654  1.0000
  C   C19       1.0  0.36208  0.13013  0.34397  1.0000
  C   C20       1.0  0.34193  0.11682  0.26222  1.0000
  C   C21       1.0  0.30433  0.08782  0.26284  1.0000
  C   C22       1.0  0.28547  0.07251  0.34532  1.0000
  O   O13       1.0  0.28649  0.07462  0.18254  1.0000
  H   H13       1.0  0.29180  0.05507  0.16351  1.0000
  O   O14       1.0  0.35928  0.12979  0.18133  1.0000
  H   H14       1.0  0.35646  0.15129  0.16639  1.0000
  C   C23       1.0  0.78085  0.65356  0.34414  1.0000
  C   C24       1.0  0.78801  0.67381  0.26248  1.0000
  C   C25       1.0  0.79620  0.71127  0.26314  1.0000
  C   C26       1.0  0.79901  0.72984  0.34563  1.0000
  O   O15       1.0  0.80112  0.72922  0.18289  1.0000
  H   H15       1.0  0.77630  0.72368  0.16295  1.0000
  O   O16       1.0  0.78426  0.65665  0.18158  1.0000
  H   H16       1.0  0.80875  0.65971  0.16763  1.0000
  C   C27       1.0  0.88592  0.23596  0.34423  1.0000
  C   C28       1.0  0.89891  0.22869  0.26258  1.0000
  C   C29       1.0  0.92827  0.22065  0.26318  1.0000
  C   C30       1.0  0.94426  0.21820  0.34565  1.0000
  O   O17       1.0  0.94120  0.21557  0.18294  1.0000
  H   H17       1.0  0.96054  0.24034  0.16286  1.0000
  O   O18       1.0  0.88532  0.23219  0.18169  1.0000
  H   H18       1.0  0.86396  0.20761  0.16804  1.0000
  C   C31       1.0  0.34129  0.49917  0.34782  1.0000
  C   C32       1.0  0.32138  0.48975  0.26537  1.0000
  C   C33       1.0  0.28215  0.47181  0.26554  1.0000
  C   C34       1.0  0.26221  0.46115  0.34800  1.0000
  O   O19       1.0  0.26378  0.46397  0.18510  1.0000
  H   H19       1.0  0.26230  0.48612  0.16885  1.0000
  O   O20       1.0  0.33974  0.49922  0.18485  1.0000
  H   H20       1.0  0.34212  0.47779  0.16626  1.0000
  C   C35       1.0  0.51716  0.84530  0.34787  1.0000
  C   C36       1.0  0.52636  0.83463  0.26536  1.0000
  C   C37       1.0  0.54441  0.81344  0.26541  1.0000
  C   C38       1.0  0.55545  0.80450  0.34778  1.0000
  O   O21       1.0  0.55205  0.80275  0.18495  1.0000
  H   H21       1.0  0.52988  0.77904  0.16920  1.0000
  O   O22       1.0  0.51660  0.84327  0.18490  1.0000
  H   H22       1.0  0.53795  0.86703  0.16576  1.0000
  C   C39       1.0  0.17157  0.67598  0.34800  1.0000
  C   C40       1.0  0.18238  0.69585  0.26549  1.0000
  C   C41       1.0  0.20343  0.73511  0.26550  1.0000
  C   C42       1.0  0.21212  0.75514  0.34778  1.0000
  O   O23       1.0  0.21426  0.75341  0.18504  1.0000
  H   H23       1.0  0.23798  0.75493  0.16958  1.0000
  O   O24       1.0  0.17399  0.67744  0.18508  1.0000
  H   H24       1.0  0.15020  0.67485  0.16558  1.0000
  C   C43       1.0  0.47029  0.27790  0.26561  1.0000
  C   C44       1.0  0.48848  0.31716  0.26498  1.0000
  O   O25       1.0  0.45872  0.25921  0.18577  1.0000
  O   O26       1.0  0.49440  0.33517  0.18443  1.0000
  H   H25       1.0  0.47974  0.25710  0.16244  1.0000
  H   H26       1.0  0.47209  0.33698  0.17264  1.0000
  C   C45       1.0  0.82081  0.54573  0.26538  1.0000
  C   C46       1.0  0.84211  0.52780  0.26486  1.0000
  O   O27       1.0  0.81346  0.55706  0.18545  1.0000
  O   O28       1.0  0.85417  0.52182  0.18435  1.0000
  H   H27       1.0  0.79035  0.53592  0.16244  1.0000
  H   H28       1.0  0.87824  0.54417  0.17235  1.0000
  C   C47       1.0  0.73811  0.19580  0.26525  1.0000
  C   C48       1.0  0.69887  0.17460  0.26473  1.0000
  O   O29       1.0  0.75680  0.20291  0.18542  1.0000
  O   O30       1.0  0.68084  0.16237  0.18425  1.0000
  H   H29       1.0  0.75888  0.22601  0.16200  1.0000
  H   H30       1.0  0.67920  0.13831  0.17258  1.0000
  C   C49       1.0  0.15667  0.53567  0.26569  1.0000
  C   C50       1.0  0.16441  0.50618  0.26549  1.0000
  O   O31       1.0  0.15486  0.55075  0.18541  1.0000
  O   O32       1.0  0.16938  0.49336  0.18496  1.0000
  H   H31       1.0  0.12902  0.53593  0.16456  1.0000
  H   H32       1.0  0.19598  0.50844  0.17083  1.0000
  C   C51       1.0  0.48145  0.62434  0.26588  1.0000
  C   C52       1.0  0.51078  0.66163  0.26571  1.0000
  O   O33       1.0  0.46651  0.60739  0.18556  1.0000
  O   O34       1.0  0.52365  0.67939  0.18516  1.0000
  H   H33       1.0  0.48143  0.59644  0.16498  1.0000
  H   H34       1.0  0.50853  0.69085  0.17081  1.0000
  C   C53       1.0  0.39196  0.86057  0.26565  1.0000
  C   C54       1.0  0.35478  0.85297  0.26544  1.0000
  O   O35       1.0  0.40879  0.86222  0.18538  1.0000
  O   O36       1.0  0.33699  0.84799  0.18491  1.0000
  H   H35       1.0  0.41994  0.88806  0.16444  1.0000
  H   H36       1.0  0.32550  0.82140  0.17077  1.0000
  C   C55       1.0  0.49125  0.16099  0.34762  1.0000
  C   C56       1.0  0.50357  0.15367  0.26505  1.0000
  C   C57       1.0  0.53314  0.14606  0.26400  1.0000
  C   C58       1.0  0.55223  0.14775  0.34474  1.0000
  O   O37       1.0  0.54404  0.13860  0.18360  1.0000
  H   H37       1.0  0.52785  0.11185  0.17292  1.0000
  O   O38       1.0  0.48650  0.15282  0.18574  1.0000
  H   H38       1.0  0.50013  0.17815  0.16105  1.0000
  C   C59       1.0  0.68280  0.52450  0.34772  1.0000
  C   C60       1.0  0.66314  0.51228  0.26518  1.0000
  C   C61       1.0  0.62592  0.48280  0.26418  1.0000
  C   C62       1.0  0.60850  0.46373  0.34493  1.0000
  O   O39       1.0  0.60752  0.47201  0.18381  1.0000
  H   H39       1.0  0.59709  0.48833  0.17323  1.0000
  O   O40       1.0  0.67936  0.52937  0.18589  1.0000
  H   H40       1.0  0.69107  0.51576  0.16115  1.0000
  C   C63       1.0  0.85497  0.33389  0.34755  1.0000
  C   C64       1.0  0.86219  0.35347  0.26494  1.0000
  C   C65       1.0  0.87014  0.39076  0.26402  1.0000
  C   C66       1.0  0.86895  0.40830  0.34497  1.0000
  O   O41       1.0  0.87753  0.40910  0.18360  1.0000
  H   H41       1.0  0.90425  0.41952  0.17258  1.0000
  O   O42       1.0  0.86270  0.33714  0.18554  1.0000
  H   H42       1.0  0.83729  0.32549  0.16136  1.0000
  C   C67       1.0  0.97110  0.53095  0.34426  1.0000
  C   C68       1.0  0.99103  0.54048  0.26192  1.0000
  C   C69       1.0  0.03020  0.56013  0.26285  1.0000
  C   C70       1.0  0.04951  0.57027  0.34609  1.0000
  O   O43       1.0  0.04878  0.56676  0.18296  1.0000
  H   H43       1.0  0.05537  0.59209  0.16498  1.0000
  O   O44       1.0  0.97306  0.52878  0.18122  1.0000
  H   H44       1.0  0.96633  0.54742  0.16320  1.0000
  C   C71       1.0  0.48589  0.44321  0.34397  1.0000
  C   C72       1.0  0.47619  0.45346  0.26162  1.0000
  C   C73       1.0  0.45667  0.47310  0.26253  1.0000
  C   C74       1.0  0.44684  0.48257  0.34579  1.0000
  O   O45       1.0  0.44993  0.48493  0.18260  1.0000
  H   H45       1.0  0.42452  0.46625  0.16506  1.0000
  O   O46       1.0  0.48768  0.44698  0.18087  1.0000
  H   H46       1.0  0.46895  0.42160  0.16319  1.0000
  C   C75       1.0  0.57314  0.04586  0.34395  1.0000
  C   C76       1.0  0.56278  0.02592  0.26163  1.0000
  C   C77       1.0  0.54319  0.98675  0.26256  1.0000
  C   C78       1.0  0.53389  0.96746  0.34584  1.0000
  O   O47       1.0  0.53126  0.96816  0.18268  1.0000
  H   H47       1.0  0.54996  0.96149  0.16489  1.0000
  O   O48       1.0  0.56911  0.04387  0.18088  1.0000
  H   H48       1.0  0.59449  0.05060  0.16302  1.0000
  C   C79       1.0  0.97497  0.97311  0.34640  1.0000
  N   N1        1.0  0.00862  0.97468  0.34643  1.0000
  C   C80       1.0  0.04228  0.00674  0.34617  1.0000
  N   N2        1.0  0.04067  0.03879  0.34587  1.0000
  C   C81       1.0  0.00858  0.04035  0.34584  1.0000
  N   N3        1.0  0.97644  0.00673  0.34610  1.0000
  C   C82       1.0  0.97713  0.21571  0.34555  1.0000
  N   N4        1.0  0.97748  0.18306  0.34484  1.0000
  C   C83       1.0  0.00970  0.18157  0.34521  1.0000
  N   N5        1.0  0.04214  0.21512  0.34625  1.0000
  C   C84       1.0  0.04287  0.24832  0.34703  1.0000
  N   N6        1.0  0.01008  0.24790  0.34668  1.0000
  C   C85       1.0  0.80127  0.76513  0.34559  1.0000
  N   N7        1.0  0.83374  0.79833  0.34592  1.0000
  C   C86       1.0  0.83487  0.83189  0.34676  1.0000
  N   N8        1.0  0.80115  0.83040  0.34726  1.0000
  C   C87       1.0  0.76816  0.79775  0.34705  1.0000
  N   N9        1.0  0.76890  0.76555  0.34628  1.0000
  C   C88       1.0  0.25002  0.03964  0.34538  1.0000
  N   N10       1.0  0.21688  0.03906  0.34540  1.0000
  C   C89       1.0  0.18319  0.00674  0.34611  1.0000
  N   N11       1.0  0.18456  0.97443  0.34688  1.0000
  C   C90       1.0  0.21712  0.97385  0.34704  1.0000
  N   N12       1.0  0.24938  0.00675  0.34628  1.0000
  C   C91       1.0  0.22351  0.44714  0.34830  1.0000
  N   N13       1.0  0.19795  0.41019  0.34915  1.0000
  C   C92       1.0  0.16086  0.39837  0.34936  1.0000
  N   N14       1.0  0.14974  0.42418  0.34861  1.0000
  C   C93       1.0  0.17508  0.46116  0.34772  1.0000
  N   N15       1.0  0.21172  0.47218  0.34752  1.0000
  C   C94       1.0  0.56949  0.77983  0.34809  1.0000
  N   N16       1.0  0.60645  0.79124  0.34894  1.0000
  C   C95       1.0  0.61825  0.76595  0.34930  1.0000
  N   N17       1.0  0.59247  0.72904  0.34878  1.0000
  C   C96       1.0  0.55550  0.71740  0.34791  1.0000
  N   N18       1.0  0.54446  0.74300  0.34753  1.0000
  C   C97       1.0  0.23668  0.79390  0.34806  1.0000
  N   N19       1.0  0.22523  0.81943  0.34908  1.0000
  C   C98       1.0  0.25043  0.85656  0.34936  1.0000
  N   N20       1.0  0.28738  0.86774  0.34859  1.0000
  C   C99       1.0  0.29911  0.84245  0.34759  1.0000
  N   N21       1.0  0.27353  0.80580  0.34728  1.0000
  C   C100      1.0  0.44953  0.21957  0.34756  1.0000
  N   N22       1.0  0.41257  0.19406  0.34469  1.0000
  C   C101      1.0  0.40064  0.15693  0.34349  1.0000
  N   N23       1.0  0.42641  0.14575  0.34488  1.0000
  C   C102      1.0  0.46341  0.17101  0.34772  1.0000
  N   N24       1.0  0.47447  0.20766  0.34909  1.0000
  C   C103      1.0  0.78312  0.56632  0.34735  1.0000
  N   N25       1.0  0.79451  0.60326  0.34453  1.0000
  C   C104      1.0  0.76924  0.61508  0.34351  1.0000
  N   N26       1.0  0.73232  0.58928  0.34506  1.0000
  C   C105      1.0  0.72066  0.55231  0.34782  1.0000
  N   N27       1.0  0.74628  0.54130  0.34899  1.0000
  C   C106      1.0  0.79637  0.23360  0.34719  1.0000
  N   N28       1.0  0.82191  0.22221  0.34447  1.0000
  C   C107      1.0  0.85900  0.24748  0.34355  1.0000
  N   N29       1.0  0.87014  0.28440  0.34510  1.0000
  C   C108      1.0  0.84483  0.29604  0.34771  1.0000
  N   N30       1.0  0.80819  0.27044  0.34879  1.0000
  C   C109      1.0  0.13940  0.57595  0.34787  1.0000
  N   N31       1.0  0.16275  0.61346  0.34784  1.0000
  C   C110      1.0  0.14873  0.63696  0.34781  1.0000
  N   N32       1.0  0.11137  0.62270  0.34746  1.0000
  C   C111      1.0  0.08811  0.58546  0.34722  1.0000
  N   N33       1.0  0.10221  0.56234  0.34745  1.0000
  C   C112      1.0  0.44126  0.56683  0.34799  1.0000
  N   N34       1.0  0.40377  0.55272  0.34796  1.0000
  C   C113      1.0  0.38027  0.51523  0.34761  1.0000
  N   N35       1.0  0.39448  0.49209  0.34703  1.0000
  C   C114      1.0  0.43170  0.50603  0.34686  1.0000
  N   N36       1.0  0.45486  0.54325  0.34738  1.0000
  C   C115      1.0  0.44949  0.87770  0.34779  1.0000
  N   N37       1.0  0.46357  0.85428  0.34778  1.0000
  C   C116      1.0  0.50107  0.86821  0.34765  1.0000
  N   N38       1.0  0.52425  0.90554  0.34722  1.0000
  C   C117      1.0  0.51037  0.92888  0.34699  1.0000
  N   N39       1.0  0.47316  0.91487  0.34730  1.0000
  C   C118      1.0  0.57845  0.13560  0.34496  1.0000
  N   N40       1.0  0.61595  0.15902  0.34659  1.0000
  C   C119      1.0  0.63954  0.14511  0.34593  1.0000
  N   N41       1.0  0.62540  0.10779  0.34453  1.0000
  C   C120      1.0  0.58819  0.08444  0.34343  1.0000
  N   N42       1.0  0.56498  0.09843  0.34352  1.0000
  C   C121      1.0  0.57012  0.43758  0.34511  1.0000
  N   N43       1.0  0.55596  0.40007  0.34676  1.0000
  C   C122      1.0  0.51845  0.37655  0.34603  1.0000
  N   N44       1.0  0.49534  0.39080  0.34453  1.0000
  C   C123      1.0  0.50929  0.42802  0.34343  1.0000
  N   N45       1.0  0.54651  0.45115  0.34360  1.0000
  C   C124      1.0  0.88126  0.44667  0.34524  1.0000
  N   N46       1.0  0.85789  0.46079  0.34678  1.0000
  C   C125      1.0  0.87188  0.49829  0.34618  1.0000
  N   N47       1.0  0.90922  0.52143  0.34484  1.0000
  C   C126      1.0  0.93250  0.50749  0.34379  1.0000
  N   N48       1.0  0.91844  0.47027  0.34385  1.0000
  C   C127      1.0  0.03956  0.10889  0.37846  1.0000
  C   C128      1.0  0.03985  0.14325  0.37827  1.0000
  O   O49       1.0  0.07001  0.10904  0.41312  1.0000
  O   O50       1.0  0.07052  0.17332  0.41293  1.0000
  H   H49       1.0  0.06449  0.10214  0.47716  1.0000
  H   H50       1.0  0.06506  0.17481  0.47697  1.0000
  C   C129      1.0  0.90645  0.93487  0.37960  1.0000
  C   C130      1.0  0.87239  0.90049  0.37992  1.0000
  O   O51       1.0  0.90590  0.96505  0.41371  1.0000
  O   O52       1.0  0.84209  0.90062  0.41462  1.0000
  H   H51       1.0  0.91264  0.96655  0.47789  1.0000
  H   H52       1.0  0.84065  0.89360  0.47859  1.0000
  C   C131      1.0  0.08002  0.97562  0.37617  1.0000
  C   C132      1.0  0.11427  0.97565  0.37625  1.0000
  O   O53       1.0  0.04952  0.94444  0.40739  1.0000
  O   O54       1.0  0.11355  0.94449  0.40779  1.0000
  H   H53       1.0  0.04753  0.94868  0.47201  1.0000
  H   H54       1.0  0.11963  0.94876  0.47249  1.0000
  C   C133      1.0  0.13401  0.35990  0.34870  1.0000
  C   C134      1.0  0.12038  0.33990  0.43052  1.0000
  C   C135      1.0  0.09112  0.30244  0.42987  1.0000
  C   C136      1.0  0.07590  0.28359  0.34735  1.0000
  O   O55       1.0  0.07761  0.28470  0.51016  1.0000
  H   H55       1.0  0.05828  0.29037  0.52884  1.0000
  O   O56       1.0  0.13329  0.35726  0.51142  1.0000
  H   H56       1.0  0.15467  0.35428  0.52671  1.0000
  C   C137      1.0  0.65668  0.77748  0.34872  1.0000
  C   C138      1.0  0.67647  0.78322  0.43062  1.0000
  C   C139      1.0  0.71387  0.79128  0.42999  1.0000
  C   C140      1.0  0.73282  0.79529  0.34744  1.0000
  O   O57       1.0  0.73145  0.79502  0.51029  1.0000
  H   H57       1.0  0.72579  0.76992  0.52796  1.0000
  O   O58       1.0  0.65898  0.77838  0.51150  1.0000
  H   H58       1.0  0.66203  0.80268  0.52769  1.0000
  C   C141      1.0  0.23868  0.88336  0.34876  1.0000
  C   C142      1.0  0.23231  0.89702  0.43056  1.0000
  C   C143      1.0  0.22371  0.92601  0.42992  1.0000
  C   C144      1.0  0.21970  0.94098  0.34740  1.0000
  O   O59       1.0  0.21950  0.93953  0.51021  1.0000
  H   H59       1.0  0.24445  0.95909  0.52848  1.0000
  O   O60       1.0  0.23711  0.88434  0.51146  1.0000
  H   H60       1.0  0.21285  0.86293  0.52727  1.0000
  C   C145      1.0  0.30574  0.08580  0.42696  1.0000
  C   C146      1.0  0.34332  0.11477  0.42644  1.0000
  O   O61       1.0  0.28917  0.07085  0.50762  1.0000
  O   O62       1.0  0.36189  0.12594  0.50648  1.0000
  H   H61       1.0  0.29510  0.05125  0.52144  1.0000
  H   H62       1.0  0.35941  0.14710  0.52691  1.0000
  C   C147      1.0  0.79182  0.70950  0.42720  1.0000
  C   C148      1.0  0.78362  0.67206  0.42664  1.0000
  O   O63       1.0  0.79287  0.72586  0.50779  1.0000
  O   O64       1.0  0.77600  0.65338  0.50655  1.0000
  H   H63       1.0  0.76719  0.71958  0.52094  1.0000
  H   H64       1.0  0.79960  0.65590  0.52747  1.0000
  C   C149      1.0  0.93127  0.22559  0.42722  1.0000
  C   C150      1.0  0.90193  0.23362  0.42670  1.0000
  O   O65       1.0  0.94678  0.22481  0.50775  1.0000
  O   O66       1.0  0.89098  0.24140  0.50656  1.0000
  H   H65       1.0  0.96614  0.25055  0.52047  1.0000
  H   H66       1.0  0.86997  0.21784  0.52787  1.0000
  C   C151      1.0  0.28217  0.47056  0.43043  1.0000
  C   C152      1.0  0.32141  0.48852  0.43032  1.0000
  O   O67       1.0  0.26384  0.46165  0.51100  1.0000
  O   O68       1.0  0.33979  0.49693  0.51077  1.0000
  H   H67       1.0  0.26215  0.48349  0.52938  1.0000
  H   H68       1.0  0.34209  0.47523  0.52708  1.0000
  C   C153      1.0  0.54637  0.81531  0.43027  1.0000
  C   C154      1.0  0.52829  0.83648  0.43023  1.0000
  O   O69       1.0  0.55568  0.80624  0.51077  1.0000
  O   O70       1.0  0.52022  0.84675  0.51072  1.0000
  H   H69       1.0  0.53398  0.78273  0.52983  1.0000
  H   H70       1.0  0.54201  0.87075  0.52644  1.0000
  C   C155      1.0  0.20128  0.73523  0.43027  1.0000
  C   C156      1.0  0.18024  0.69597  0.43029  1.0000
  O   O71       1.0  0.21025  0.75364  0.51074  1.0000
  O   O72       1.0  0.17000  0.67765  0.51081  1.0000
  H   H71       1.0  0.23376  0.75550  0.52998  1.0000
  H   H72       1.0  0.14592  0.67530  0.52637  1.0000
  C   C157      1.0  0.50226  0.33752  0.34624  1.0000
  C   C158      1.0  0.49575  0.31800  0.42874  1.0000
  C   C159      1.0  0.47758  0.27875  0.42934  1.0000
  C   C160      1.0  0.46376  0.25835  0.34813  1.0000
  O   O73       1.0  0.47226  0.26074  0.50969  1.0000
  H   H73       1.0  0.49504  0.25976  0.52129  1.0000
  O   O74       1.0  0.50792  0.33673  0.50837  1.0000
  H   H74       1.0  0.48738  0.33963  0.53183  1.0000
  C   C161      1.0  0.84895  0.51434  0.34630  1.0000
  C   C162      1.0  0.83599  0.52090  0.42881  1.0000
  C   C163      1.0  0.81467  0.53881  0.42927  1.0000
  C   C164      1.0  0.80779  0.55228  0.34786  1.0000
  O   O75       1.0  0.80205  0.54422  0.50961  1.0000
  H   H75       1.0  0.77835  0.52141  0.52150  1.0000
  O   O76       1.0  0.84280  0.50901  0.50854  1.0000
  H   H76       1.0  0.86622  0.52968  0.53164  1.0000
  C   C165      1.0  0.67854  0.16803  0.34603  1.0000
  C   C166      1.0  0.69806  0.18105  0.42853  1.0000
  C   C167      1.0  0.73730  0.20227  0.42905  1.0000
  C   C168      1.0  0.75764  0.20895  0.34772  1.0000
  O   O77       1.0  0.75532  0.21494  0.50938  1.0000
  H   H77       1.0  0.75628  0.23869  0.52106  1.0000
  O   O78       1.0  0.67936  0.17437  0.50822  1.0000
  H   H78       1.0  0.67661  0.15099  0.53161  1.0000
  C   C169      1.0  0.16503  0.48895  0.34749  1.0000
  C   C170      1.0  0.16008  0.50313  0.43007  1.0000
  C   C171      1.0  0.15238  0.53264  0.43024  1.0000
  C   C172      1.0  0.15166  0.54983  0.34823  1.0000
  O   O79       1.0  0.14683  0.54507  0.51070  1.0000
  H   H79       1.0  0.12029  0.52936  0.52480  1.0000
  O   O80       1.0  0.16127  0.48766  0.51029  1.0000
  H   H80       1.0  0.18715  0.50183  0.53121  1.0000
  C   C173      1.0  0.52780  0.67956  0.34778  1.0000
  C   C174      1.0  0.51362  0.66048  0.43038  1.0000
  C   C175      1.0  0.48426  0.62320  0.43054  1.0000
  C   C176      1.0  0.46730  0.60521  0.34847  1.0000
  O   O81       1.0  0.47176  0.60524  0.51100  1.0000
  H   H81       1.0  0.48747  0.59444  0.52531  1.0000
  O   O82       1.0  0.52893  0.67722  0.51063  1.0000
  H   H82       1.0  0.51467  0.68887  0.53121  1.0000
  C   C177      1.0  0.33696  0.85248  0.34741  1.0000
  C   C178      1.0  0.35604  0.85724  0.42998  1.0000
  C   C179      1.0  0.39320  0.86479  0.43018  1.0000
  C   C180      1.0  0.41112  0.86551  0.34818  1.0000
  O   O83       1.0  0.41113  0.87013  0.51066  1.0000
  H   H83       1.0  0.42210  0.89666  0.52496  1.0000
  O   O84       1.0  0.33936  0.85598  0.51022  1.0000
  H   H84       1.0  0.32767  0.83008  0.53102  1.0000
  C   C181      1.0  0.54005  0.15530  0.42723  1.0000
  C   C182      1.0  0.51050  0.16296  0.42826  1.0000
  O   O85       1.0  0.55691  0.15577  0.50660  1.0000
  O   O86       1.0  0.49941  0.17013  0.50872  1.0000
  H   H85       1.0  0.54282  0.13050  0.53144  1.0000
  H   H86       1.0  0.51518  0.19696  0.51915  1.0000
  C   C183      1.0  0.62822  0.47591  0.42742  1.0000
  C   C184      1.0  0.66548  0.50536  0.42843  1.0000
  O   O87       1.0  0.61177  0.45919  0.50684  1.0000
  O   O88       1.0  0.68371  0.51650  0.50892  1.0000
  H   H87       1.0  0.60069  0.47341  0.53149  1.0000
  H   H88       1.0  0.69484  0.50079  0.51940  1.0000
  C   C185      1.0  0.86162  0.38866  0.42754  1.0000
  C   C186      1.0  0.85360  0.35135  0.42847  1.0000
  O   O89       1.0  0.86168  0.40521  0.50708  1.0000
  O   O90       1.0  0.84672  0.33317  0.50900  1.0000
  H   H89       1.0  0.88706  0.41623  0.53120  1.0000
  H   H90       1.0  0.81992  0.32206  0.51993  1.0000
  C   C187      1.0  0.02957  0.56143  0.42837  1.0000
  C   C188      1.0  0.99039  0.54179  0.42746  1.0000
  O   O91       1.0  0.04752  0.56910  0.50936  1.0000
  O   O92       1.0  0.97182  0.53117  0.50762  1.0000
  H   H91       1.0  0.05397  0.59463  0.52472  1.0000
  H   H92       1.0  0.96535  0.55026  0.52286  1.0000
  C   C189      1.0  0.45582  0.47163  0.42810  1.0000
  C   C190      1.0  0.47533  0.45197  0.42718  1.0000
  O   O93       1.0  0.44838  0.48215  0.50906  1.0000
  O   O94       1.0  0.48608  0.44415  0.50732  1.0000
  H   H93       1.0  0.42284  0.46317  0.52475  1.0000
  H   H94       1.0  0.46696  0.41866  0.52299  1.0000
  C   C191      1.0  0.54506  0.98740  0.42811  1.0000
  C   C192      1.0  0.56468  0.02657  0.42716  1.0000
  O   O95       1.0  0.53478  0.96944  0.50911  1.0000
  O   O96       1.0  0.57268  0.04515  0.50732  1.0000
  H   H95       1.0  0.55387  0.96297  0.52439  1.0000
  H   H96       1.0  0.59825  0.05162  0.52247  1.0000
