data_image0
_chemical_formula_structural       C3NC3NC5NC5NC20H18N4C3NC3NC5NC5NC20H18N4C3NC3NC5NC5NC20H18N5C2HCHNC2HCHNC2HCHNC2HCHNC2HCHNC2HCHC8H8C8H8C8H8CNC2ONH2CHCNC2ONH2CHCNC2ONH2CHCNC2ONH2CHCNC2ONH2CHCNC2ONH2CH
_chemical_formula_sum              "C174 N42 H108 O6"
_cell_length_a       50.3907
_cell_length_b       50.3907
_cell_length_c       14.8121
_cell_angle_alpha    90.0974
_cell_angle_beta     89.9026
_cell_angle_gamma    120

_space_group_name_H-M_alt    "P 1"
_space_group_IT_number       1

loop_
  _space_group_symop_operation_xyz
  'x, y, z'

loop_
  _atom_site_type_symbol
  _atom_site_label
  _atom_site_symmetry_multiplicity
  _atom_site_fract_x
  _atom_site_fract_y
  _atom_site_fract_z
  _atom_site_occupancy
  C   C1        1.0  0.05364  0.65489  0.32933  1.0000
  C   C2        1.0  0.02195  0.63911  0.32975  1.0000
  C   C3        1.0  0.01179  0.60774  0.32789  1.0000
  N   N1        1.0  0.03767  0.60573  0.32663  1.0000
  C   C4        1.0  0.06364  0.63355  0.32754  1.0000
  C   C5        1.0  0.09486  0.64090  0.32655  1.0000
  C   C6        1.0  0.10468  0.61889  0.32596  1.0000
  N   N2        1.0  0.08730  0.58796  0.32699  1.0000
  C   C7        1.0  0.10454  0.57425  0.32649  1.0000
  C   C8        1.0  0.13500  0.59801  0.32480  1.0000
  C   C9        1.0  0.13509  0.62542  0.32482  1.0000
  C   C10       1.0  0.09456  0.54238  0.32760  1.0000
  C   C11       1.0  0.06329  0.51863  0.32797  1.0000
  N   N3        1.0  0.03741  0.52063  0.32661  1.0000
  C   C12       1.0  0.01144  0.49282  0.32761  1.0000
  C   C13       1.0  0.02144  0.47148  0.32958  1.0000
  C   C14       1.0  0.05313  0.48726  0.33003  1.0000
  C   C15       1.0  0.98023  0.48546  0.32654  1.0000
  C   C16       1.0  0.97040  0.50747  0.32590  1.0000
  N   N4        1.0  0.98778  0.53841  0.32693  1.0000
  C   C17       1.0  0.97054  0.55211  0.32646  1.0000
  C   C18       1.0  0.94008  0.52835  0.32483  1.0000
  C   C19       1.0  0.94000  0.50094  0.32482  1.0000
  C   C20       1.0  0.98052  0.58398  0.32758  1.0000
  C   C21       1.0  0.95722  0.59229  0.32912  1.0000
  C   C22       1.0  0.90487  0.60020  0.32922  1.0000
  C   C23       1.0  0.92067  0.60227  0.24831  1.0000
  C   C24       1.0  0.94633  0.59810  0.24795  1.0000
  C   C25       1.0  0.95681  0.45388  0.32640  1.0000
  C   C26       1.0  0.90403  0.39385  0.32758  1.0000
  C   C27       1.0  0.91647  0.40959  0.24539  1.0000
  C   C28       1.0  0.94246  0.43917  0.24479  1.0000
  C   C29       1.0  0.11785  0.53406  0.32919  1.0000
  C   C30       1.0  0.12864  0.52796  0.24808  1.0000
  C   C31       1.0  0.15422  0.52366  0.24846  1.0000
  C   C32       1.0  0.16999  0.52580  0.32934  1.0000
  C   C33       1.0  0.11828  0.67248  0.32635  1.0000
  C   C34       1.0  0.13268  0.68713  0.24474  1.0000
  C   C35       1.0  0.17120  0.73242  0.32756  1.0000
  C   C36       1.0  0.15873  0.71667  0.24535  1.0000
  H   H1        1.0  0.16908  0.72604  0.18517  1.0000
  H   H2        1.0  0.12503  0.67586  0.18450  1.0000
  H   H3        1.0  0.06696  0.67823  0.33035  1.0000
  H   H4        1.0  0.00873  0.64925  0.33114  1.0000
  H   H5        1.0  0.03761  0.58666  0.32465  1.0000
  H   H6        1.0  0.03747  0.53970  0.32431  1.0000
  H   H7        1.0  0.15445  0.64650  0.32405  1.0000
  H   H8        1.0  0.15429  0.59617  0.32380  1.0000
  H   H9        1.0  0.11857  0.52761  0.18779  1.0000
  H   H10       1.0  0.16194  0.52001  0.18835  1.0000
  H   H11       1.0  0.06634  0.47712  0.33155  1.0000
  H   H12       1.0  0.00812  0.44814  0.33073  1.0000
  H   H13       1.0  0.92079  0.53019  0.32390  1.0000
  H   H14       1.0  0.92063  0.47985  0.32412  1.0000
  H   H15       1.0  0.95012  0.45042  0.18454  1.0000
  H   H16       1.0  0.90620  0.40014  0.18519  1.0000
  H   H17       1.0  0.95641  0.59838  0.18764  1.0000
  H   H18       1.0  0.91287  0.60571  0.18814  1.0000
  N   N5        1.0  0.87827  0.36671  0.33439  1.0000
  N   N6        1.0  0.19495  0.52297  0.32355  1.0000
  N   N7        1.0  0.19708  0.75946  0.33440  1.0000
  N   N8        1.0  0.87978  0.60281  0.32344  1.0000
  C   C37       1.0  0.44524  0.48637  0.32856  1.0000
  C   C38       1.0  0.46102  0.47047  0.32893  1.0000
  C   C39       1.0  0.49239  0.49168  0.32700  1.0000
  N   N9        1.0  0.49439  0.51956  0.32573  1.0000
  C   C40       1.0  0.46657  0.51771  0.32674  1.0000
  C   C41       1.0  0.45922  0.54157  0.32576  1.0000
  C   C42       1.0  0.48123  0.57340  0.32513  1.0000
  N   N10       1.0  0.51216  0.58697  0.32613  1.0000
  C   C43       1.0  0.52586  0.61791  0.32563  1.0000
  C   C44       1.0  0.50210  0.62460  0.32397  1.0000
  C   C45       1.0  0.47469  0.59728  0.32401  1.0000
  C   C46       1.0  0.55773  0.63980  0.32673  1.0000
  C   C47       1.0  0.58148  0.63229  0.32706  1.0000
  N   N11       1.0  0.57948  0.60441  0.32572  1.0000
  C   C48       1.0  0.60730  0.60626  0.32675  1.0000
  C   C49       1.0  0.62864  0.63760  0.32865  1.0000
  C   C50       1.0  0.61285  0.65351  0.32908  1.0000
  C   C51       1.0  0.61466  0.58240  0.32571  1.0000
  C   C52       1.0  0.59266  0.55057  0.32505  1.0000
  N   N12       1.0  0.56173  0.53701  0.32604  1.0000
  C   C53       1.0  0.54802  0.50606  0.32555  1.0000
  C   C54       1.0  0.57179  0.49937  0.32392  1.0000
  C   C55       1.0  0.59920  0.52670  0.32395  1.0000
  C   C56       1.0  0.51615  0.48418  0.32664  1.0000
  C   C57       1.0  0.50785  0.45256  0.32818  1.0000
  C   C58       1.0  0.49992  0.39230  0.32829  1.0000
  C   C59       1.0  0.49786  0.40595  0.24737  1.0000
  C   C60       1.0  0.50200  0.43577  0.24701  1.0000
  C   C61       1.0  0.64624  0.59057  0.32564  1.0000
  C   C62       1.0  0.70629  0.59785  0.32711  1.0000
  C   C63       1.0  0.69058  0.59445  0.24485  1.0000
  C   C64       1.0  0.66099  0.59085  0.24412  1.0000
  C   C65       1.0  0.56605  0.67142  0.32830  1.0000
  C   C66       1.0  0.57215  0.68822  0.24718  1.0000
  C   C67       1.0  0.57645  0.71810  0.24755  1.0000
  C   C68       1.0  0.57431  0.73181  0.32843  1.0000
  C   C69       1.0  0.42764  0.53342  0.32569  1.0000
  C   C70       1.0  0.41295  0.53305  0.24413  1.0000
  C   C71       1.0  0.36771  0.52642  0.32715  1.0000
  C   C72       1.0  0.38342  0.52962  0.24488  1.0000
  H   H19       1.0  0.37402  0.53050  0.18473  1.0000
  H   H20       1.0  0.42420  0.53664  0.18384  1.0000
  H   H21       1.0  0.42190  0.47635  0.32964  1.0000
  H   H22       1.0  0.45089  0.44712  0.33034  1.0000
  H   H23       1.0  0.51347  0.53858  0.32370  1.0000
  H   H24       1.0  0.56041  0.58539  0.32360  1.0000
  H   H25       1.0  0.45361  0.59556  0.32328  1.0000
  H   H26       1.0  0.50394  0.64574  0.32299  1.0000
  H   H27       1.0  0.57249  0.67844  0.18689  1.0000
  H   H28       1.0  0.58009  0.72941  0.18743  1.0000
  H   H29       1.0  0.62299  0.67685  0.33057  1.0000
  H   H30       1.0  0.65198  0.64763  0.32978  1.0000
  H   H31       1.0  0.56995  0.47824  0.32296  1.0000
  H   H32       1.0  0.62028  0.52842  0.32326  1.0000
  H   H33       1.0  0.64977  0.58719  0.18383  1.0000
  H   H34       1.0  0.70004  0.59354  0.18471  1.0000
  H   H35       1.0  0.50173  0.44552  0.18671  1.0000
  H   H36       1.0  0.49437  0.39464  0.18722  1.0000
  N   N13       1.0  0.73341  0.59920  0.33408  1.0000
  N   N14       1.0  0.57714  0.75960  0.32264  1.0000
  N   N15       1.0  0.34067  0.52525  0.33411  1.0000
  N   N16       1.0  0.49730  0.36460  0.32250  1.0000
  C   C73       1.0  0.61374  0.04649  0.32818  1.0000
  C   C74       1.0  0.62965  0.07818  0.32866  1.0000
  C   C75       1.0  0.60844  0.08834  0.32667  1.0000
  N   N17       1.0  0.58056  0.06246  0.32530  1.0000
  C   C76       1.0  0.58241  0.03649  0.32626  1.0000
  C   C77       1.0  0.55854  0.00527  0.32518  1.0000
  C   C78       1.0  0.52671  0.99545  0.32458  1.0000
  N   N18       1.0  0.51315  0.01283  0.32567  1.0000
  C   C79       1.0  0.48221  0.99559  0.32523  1.0000
  C   C80       1.0  0.47551  0.96513  0.32354  1.0000
  C   C81       1.0  0.50283  0.96504  0.32347  1.0000
  C   C82       1.0  0.46032  0.00558  0.32643  1.0000
  C   C83       1.0  0.46784  0.03685  0.32673  1.0000
  N   N19       1.0  0.49572  0.06272  0.32531  1.0000
  C   C84       1.0  0.49387  0.08869  0.32629  1.0000
  C   C85       1.0  0.46254  0.07870  0.32824  1.0000
  C   C86       1.0  0.44662  0.04700  0.32875  1.0000
  C   C87       1.0  0.51773  0.11991  0.32521  1.0000
  C   C88       1.0  0.54956  0.12973  0.32460  1.0000
  N   N20       1.0  0.56312  0.11235  0.32565  1.0000
  C   C89       1.0  0.59407  0.12959  0.32519  1.0000
  C   C90       1.0  0.60076  0.16005  0.32352  1.0000
  C   C91       1.0  0.57344  0.16014  0.32348  1.0000
  C   C92       1.0  0.61595  0.11960  0.32636  1.0000
  C   C93       1.0  0.64756  0.14291  0.32803  1.0000
  C   C94       1.0  0.70783  0.19525  0.32852  1.0000
  C   C95       1.0  0.69423  0.17949  0.24751  1.0000
  C   C96       1.0  0.66441  0.15382  0.24696  1.0000
  C   C97       1.0  0.50958  0.14333  0.32507  1.0000
  C   C98       1.0  0.50228  0.19608  0.32641  1.0000
  C   C99       1.0  0.50568  0.18367  0.24418  1.0000
  C   C100      1.0  0.50927  0.15767  0.24350  1.0000
  C   C101      1.0  0.42870  0.98228  0.32814  1.0000
  C   C102      1.0  0.41185  0.97144  0.24713  1.0000
  C   C103      1.0  0.38196  0.94588  0.24769  1.0000
  C   C104      1.0  0.36831  0.93013  0.32866  1.0000
  C   C105      1.0  0.56668  0.98184  0.32505  1.0000
  C   C106      1.0  0.56702  0.96743  0.24348  1.0000
  C   C107      1.0  0.57368  0.92891  0.32640  1.0000
  C   C108      1.0  0.57048  0.94135  0.24416  1.0000
  H   H37       1.0  0.56961  0.93102  0.18399  1.0000
  H   H38       1.0  0.56346  0.97507  0.18320  1.0000
  H   H39       1.0  0.62376  0.03317  0.32926  1.0000
  H   H40       1.0  0.65300  0.09139  0.33013  1.0000
  H   H41       1.0  0.56154  0.06252  0.32312  1.0000
  H   H42       1.0  0.51473  0.06266  0.32318  1.0000
  H   H43       1.0  0.50454  0.94568  0.32271  1.0000
  H   H44       1.0  0.45437  0.94584  0.32259  1.0000
  H   H45       1.0  0.42158  0.98151  0.18679  1.0000
  H   H46       1.0  0.37061  0.93812  0.18764  1.0000
  H   H47       1.0  0.42327  0.03380  0.33028  1.0000
  H   H48       1.0  0.45251  0.09201  0.32936  1.0000
  H   H49       1.0  0.62190  0.17934  0.32256  1.0000
  H   H50       1.0  0.57172  0.17950  0.32274  1.0000
  H   H51       1.0  0.51297  0.15006  0.18324  1.0000
  H   H52       1.0  0.50661  0.19398  0.18402  1.0000
  H   H53       1.0  0.65470  0.14376  0.18660  1.0000
  H   H54       1.0  0.70558  0.18729  0.18743  1.0000
  N   N21       1.0  0.50091  0.22185  0.33330  1.0000
  N   N22       1.0  0.34052  0.90517  0.32304  1.0000
  N   N23       1.0  0.57484  0.90304  0.33331  1.0000
  N   N24       1.0  0.73553  0.22033  0.32291  1.0000
  N   N25       1.0  0.24999  0.52745  0.26747  1.0000
  C   C109      1.0  0.27489  0.52627  0.23806  1.0000
  C   C110      1.0  0.29475  0.52451  0.30177  1.0000
  H   H55       1.0  0.27933  0.52767  0.17032  1.0000
  C   C111      1.0  0.32135  0.52465  0.27611  1.0000
  H   H56       1.0  0.32588  0.52507  0.21066  1.0000
  N   N26       1.0  0.57266  0.81011  0.26658  1.0000
  C   C112      1.0  0.57384  0.83616  0.23718  1.0000
  C   C113      1.0  0.57560  0.85784  0.30091  1.0000
  H   H57       1.0  0.57242  0.83913  0.16945  1.0000
  C   C114      1.0  0.57544  0.88427  0.27528  1.0000
  H   H58       1.0  0.57503  0.88832  0.20983  1.0000
  N   N27       1.0  0.28998  0.85011  0.26727  1.0000
  C   C115      1.0  0.26391  0.82520  0.23799  1.0000
  C   C116      1.0  0.24226  0.80536  0.30182  1.0000
  H   H59       1.0  0.26092  0.82073  0.17028  1.0000
  C   C117      1.0  0.21581  0.77876  0.27630  1.0000
  H   H60       1.0  0.21172  0.77423  0.21087  1.0000
  N   N28       1.0  0.82460  0.59789  0.26736  1.0000
  C   C118      1.0  0.79961  0.59884  0.23797  1.0000
  C   C119      1.0  0.77955  0.60035  0.30171  1.0000
  H   H61       1.0  0.79526  0.59745  0.17022  1.0000
  C   C120      1.0  0.75287  0.59999  0.27606  1.0000
  H   H62       1.0  0.74843  0.59962  0.21061  1.0000
  N   N29       1.0  0.50222  0.31427  0.26646  1.0000
  C   C121      1.0  0.50126  0.28830  0.23710  1.0000
  C   C122      1.0  0.49976  0.26680  0.30086  1.0000
  H   H63       1.0  0.50265  0.28525  0.16935  1.0000
  C   C123      1.0  0.50013  0.24045  0.27525  1.0000
  H   H64       1.0  0.50053  0.23633  0.20981  1.0000
  N   N30       1.0  0.78587  0.27554  0.26717  1.0000
  C   C124      1.0  0.81185  0.30055  0.23791  1.0000
  C   C125      1.0  0.83333  0.32058  0.30177  1.0000
  H   H65       1.0  0.81491  0.30494  0.17018  1.0000
  C   C126      1.0  0.85967  0.34728  0.27627  1.0000
  H   H66       1.0  0.86380  0.35179  0.21085  1.0000
  C   C127      1.0  0.94209  0.59118  0.41067  1.0000
  C   C128      1.0  0.91634  0.59517  0.41075  1.0000
  C   C129      1.0  0.94478  0.43808  0.40846  1.0000
  C   C130      1.0  0.91881  0.40846  0.40880  1.0000
  C   C131      1.0  0.15861  0.53112  0.41081  1.0000
  C   C132      1.0  0.13297  0.53529  0.41071  1.0000
  C   C133      1.0  0.13032  0.68830  0.40844  1.0000
  C   C134      1.0  0.15634  0.71787  0.40879  1.0000
  H   H67       1.0  0.16505  0.72836  0.46951  1.0000
  H   H68       1.0  0.12092  0.67791  0.46873  1.0000
  H   H69       1.0  0.12598  0.54019  0.47025  1.0000
  H   H70       1.0  0.16919  0.53255  0.47089  1.0000
  H   H71       1.0  0.95416  0.44850  0.46874  1.0000
  H   H72       1.0  0.91016  0.39796  0.46951  1.0000
  H   H73       1.0  0.90573  0.59378  0.47084  1.0000
  H   H74       1.0  0.94910  0.58641  0.47026  1.0000
  C   C135      1.0  0.50895  0.43863  0.40975  1.0000
  C   C136      1.0  0.50497  0.40889  0.40981  1.0000
  C   C137      1.0  0.66201  0.59444  0.40778  1.0000
  C   C138      1.0  0.69164  0.59809  0.40826  1.0000
  C   C139      1.0  0.56900  0.71520  0.40990  1.0000
  C   C140      1.0  0.56484  0.68540  0.40981  1.0000
  C   C141      1.0  0.41186  0.52972  0.40784  1.0000
  C   C142      1.0  0.38228  0.52617  0.40831  1.0000
  H   H75       1.0  0.37182  0.52445  0.46907  1.0000
  H   H76       1.0  0.42227  0.53078  0.46808  1.0000
  H   H77       1.0  0.55991  0.67357  0.46936  1.0000
  H   H78       1.0  0.56756  0.72441  0.46998  1.0000
  H   H79       1.0  0.65156  0.59342  0.46802  1.0000
  H   H80       1.0  0.70210  0.59997  0.46902  1.0000
  H   H81       1.0  0.50634  0.39972  0.46991  1.0000
  H   H82       1.0  0.51374  0.45047  0.46931  1.0000
  C   C143      1.0  0.66144  0.15801  0.40968  1.0000
  C   C144      1.0  0.69118  0.18375  0.40994  1.0000
  C   C145      1.0  0.50570  0.15532  0.40717  1.0000
  C   C146      1.0  0.50200  0.18126  0.40759  1.0000
  C   C147      1.0  0.38497  0.94155  0.41003  1.0000
  C   C148      1.0  0.41478  0.96719  0.40974  1.0000
  C   C149      1.0  0.57040  0.96984  0.40717  1.0000
  C   C150      1.0  0.57391  0.94378  0.40759  1.0000
  H   H83       1.0  0.57567  0.93512  0.46833  1.0000
  H   H84       1.0  0.56934  0.97925  0.46743  1.0000
  H   H85       1.0  0.42665  0.97420  0.46923  1.0000
  H   H86       1.0  0.37582  0.93099  0.47016  1.0000
  H   H87       1.0  0.50666  0.14592  0.46744  1.0000
  H   H88       1.0  0.50011  0.18991  0.46832  1.0000
  H   H89       1.0  0.70030  0.19433  0.47010  1.0000
  H   H90       1.0  0.64956  0.15097  0.46919  1.0000
  C   C151      1.0  0.24201  0.52608  0.35595  1.0000
  N   N31       1.0  0.28681  0.52327  0.39013  1.0000
  C   C152      1.0  0.26147  0.52361  0.42101  1.0000
  C   C153      1.0  0.25696  0.52154  0.51590  1.0000
  O   O1        1.0  0.28191  0.53335  0.57012  1.0000
  N   N32       1.0  0.22924  0.50508  0.55584  1.0000
  H   H91       1.0  0.21073  0.49294  0.52077  1.0000
  H   H92       1.0  0.22776  0.50288  0.62118  1.0000
  C   C154      1.0  0.21778  0.53074  0.37720  1.0000
  H   H93       1.0  0.21882  0.54145  0.43454  1.0000
  C   C155      1.0  0.57403  0.80359  0.35505  1.0000
  N   N33       1.0  0.57684  0.85122  0.38927  1.0000
  C   C156      1.0  0.57650  0.82557  0.42013  1.0000
  C   C157      1.0  0.57858  0.82323  0.51501  1.0000
  O   O2        1.0  0.56677  0.83642  0.56925  1.0000
  N   N34       1.0  0.59504  0.81200  0.55493  1.0000
  H   H94       1.0  0.60717  0.80560  0.51985  1.0000
  H   H95       1.0  0.59724  0.81279  0.62027  1.0000
  C   C158      1.0  0.56937  0.77471  0.37629  1.0000
  H   H96       1.0  0.55864  0.76509  0.43361  1.0000
  C   C159      1.0  0.29655  0.85813  0.35571  1.0000
  N   N35       1.0  0.24893  0.81335  0.39015  1.0000
  C   C160      1.0  0.27459  0.83870  0.42089  1.0000
  C   C161      1.0  0.27698  0.84325  0.51576  1.0000
  O   O3        1.0  0.26382  0.81833  0.57008  1.0000
  N   N36       1.0  0.28822  0.87100  0.55559  1.0000
  H   H97       1.0  0.29461  0.88948  0.52045  1.0000
  H   H98       1.0  0.28747  0.87250  0.62092  1.0000
  C   C162      1.0  0.32543  0.88237  0.37680  1.0000
  H   H99       1.0  0.33508  0.88136  0.43413  1.0000
  C   C163      1.0  0.83249  0.59926  0.35586  1.0000
  N   N37       1.0  0.78740  0.60158  0.39009  1.0000
  C   C164      1.0  0.81282  0.60146  0.42096  1.0000
  C   C165      1.0  0.81720  0.60349  0.51587  1.0000
  O   O4        1.0  0.79217  0.59145  0.56993  1.0000
  N   N38       1.0  0.84484  0.62012  0.55602  1.0000
  H   H100      1.0  0.86336  0.63240  0.52110  1.0000
  H   H101      1.0  0.84621  0.62226  0.62139  1.0000
  C   C166      1.0  0.85686  0.59484  0.37704  1.0000
  H   H102      1.0  0.85585  0.58414  0.43426  1.0000
  C   C167      1.0  0.50085  0.32088  0.35494  1.0000
  N   N39       1.0  0.49852  0.27351  0.38923  1.0000
  C   C168      1.0  0.49863  0.29908  0.42007  1.0000
  C   C169      1.0  0.49660  0.30153  0.51497  1.0000
  O   O5        1.0  0.50865  0.28861  0.56906  1.0000
  N   N40       1.0  0.47999  0.31260  0.55510  1.0000
  H   H103      1.0  0.46770  0.31880  0.52017  1.0000
  H   H104      1.0  0.47784  0.31189  0.62047  1.0000
  C   C170      1.0  0.50527  0.34969  0.37610  1.0000
  H   H105      1.0  0.51599  0.35945  0.43330  1.0000
  C   C171      1.0  0.77923  0.26760  0.35562  1.0000
  N   N41       1.0  0.82659  0.31267  0.39011  1.0000
  C   C172      1.0  0.80102  0.28723  0.42083  1.0000
  C   C173      1.0  0.79853  0.28280  0.51572  1.0000
  O   O6        1.0  0.81144  0.30780  0.56991  1.0000
  N   N42       1.0  0.78746  0.25514  0.55574  1.0000
  H   H106      1.0  0.78128  0.23664  0.52074  1.0000
  H   H107      1.0  0.78815  0.25373  0.62110  1.0000
  C   C174      1.0  0.75042  0.24321  0.37665  1.0000
  H   H108      1.0  0.74065  0.24420  0.43386  1.0000
