data_image0
_chemical_formula_structural       HCNHC5NH3C6N2H4C6N2H4C2NCNC2H3CH3C2NCNC2H3CH3C2NCNC2H3CH3C2NCNC2H3CH3C2NCNC2H3CH3C2NCNC2H3CH3C3H2C3HC3H2C3H2C3H2C3H2C2HC6H3C2HC6H3C2HC6H3C2HC6H3C2HC6H3C2HC6H3
_chemical_formula_sum              "H84 C120 N18"
_cell_length_a       31.4633
_cell_length_b       31.4632
_cell_length_c       14.9518
_cell_angle_alpha    90
_cell_angle_beta     90
_cell_angle_gamma    120

_space_group_name_H-M_alt    "P 1"
_space_group_IT_number       1

loop_
  _space_group_symop_operation_xyz
  'x, y, z'

loop_
  _atom_site_type_symbol
  _atom_site_label
  _atom_site_symmetry_multiplicity
  _atom_site_fract_x
  _atom_site_fract_y
  _atom_site_fract_z
  _atom_site_occupancy
  H   H1        1.0  0.00513  0.57275  0.22673  1.0000
  C   C1        1.0  0.02922  0.51614  0.32162  1.0000
  N   N1        1.0  0.03636  0.59130  0.25740  1.0000
  H   H2        1.0  0.03891  0.45700  0.36660  1.0000
  C   C2        1.0  0.97559  0.48706  0.32170  1.0000
  C   C3        1.0  0.89673  0.40809  0.32172  1.0000
  C   C4        1.0  0.94793  0.43534  0.30118  1.0000
  C   C5        1.0  0.05686  0.56785  0.30104  1.0000
  C   C6        1.0  0.10805  0.59515  0.32155  1.0000
  N   N2        1.0  0.96847  0.41184  0.25779  1.0000
  H   H3        1.0  0.99951  0.43050  0.22663  1.0000
  H   H4        1.0  0.94929  0.37742  0.24134  1.0000
  H   H5        1.0  0.05529  0.62581  0.24139  1.0000
  C   C7        1.0  0.51697  0.48936  0.32167  1.0000
  C   C8        1.0  0.59596  0.48951  0.32143  1.0000
  C   C9        1.0  0.56867  0.51343  0.30097  1.0000
  C   C10       1.0  0.48788  0.51391  0.32170  1.0000
  C   C11       1.0  0.43616  0.48985  0.30120  1.0000
  C   C12       1.0  0.40890  0.51377  0.32175  1.0000
  N   N3        1.0  0.59211  0.55744  0.25748  1.0000
  N   N4        1.0  0.41265  0.44586  0.25768  1.0000
  H   H6        1.0  0.57341  0.56979  0.22637  1.0000
  H   H7        1.0  0.62650  0.57267  0.24089  1.0000
  H   H8        1.0  0.37813  0.43029  0.24176  1.0000
  H   H9        1.0  0.43117  0.43316  0.22697  1.0000
  C   C13       1.0  0.51472  0.02845  0.32170  1.0000
  C   C14       1.0  0.51460  0.10731  0.32167  1.0000
  C   C15       1.0  0.49067  0.05612  0.30117  1.0000
  C   C16       1.0  0.49016  0.97481  0.32174  1.0000
  C   C17       1.0  0.51422  0.94715  0.30116  1.0000
  C   C18       1.0  0.49027  0.89595  0.32159  1.0000
  N   N5        1.0  0.44664  0.03562  0.25777  1.0000
  N   N6        1.0  0.55826  0.96769  0.25778  1.0000
  H   H10       1.0  0.43419  0.00451  0.22673  1.0000
  H   H11       1.0  0.43121  0.05464  0.24148  1.0000
  H   H12       1.0  0.57349  0.94853  0.24118  1.0000
  H   H13       1.0  0.57056  0.99871  0.22654  1.0000
  C   C19       1.0  0.35671  0.49159  0.32138  1.0000
  C   C20       1.0  0.32997  0.49094  0.24421  1.0000
  N   N7        1.0  0.28419  0.48459  0.25498  1.0000
  C   C21       1.0  0.26155  0.47887  0.33513  1.0000
  N   N8        1.0  0.19430  0.48250  0.26650  1.0000
  C   C22       1.0  0.15480  0.48910  0.26662  1.0000
  C   C23       1.0  0.34947  0.50123  0.15180  1.0000
  H   H14       1.0  0.38661  0.50714  0.14702  1.0000
  H   H15       1.0  0.34993  0.53404  0.12674  1.0000
  H   H16       1.0  0.32579  0.47028  0.10876  1.0000
  C   C24       1.0  0.13573  0.49340  0.17847  1.0000
  H   H17       1.0  0.15457  0.48670  0.12360  1.0000
  H   H18       1.0  0.14084  0.53010  0.16992  1.0000
  H   H19       1.0  0.09668  0.46648  0.17377  1.0000
  C   C25       1.0  0.51246  0.86594  0.32122  1.0000
  C   C26       1.0  0.51304  0.83980  0.24407  1.0000
  N   N9        1.0  0.51936  0.80036  0.25491  1.0000
  C   C27       1.0  0.52507  0.78347  0.33510  1.0000
  N   N10       1.0  0.52148  0.71259  0.26653  1.0000
  C   C28       1.0  0.51493  0.66651  0.26667  1.0000
  C   C29       1.0  0.50275  0.84901  0.15166  1.0000
  H   H20       1.0  0.49687  0.88026  0.14686  1.0000
  H   H21       1.0  0.46992  0.81667  0.12663  1.0000
  H   H22       1.0  0.53368  0.85624  0.10862  1.0000
  C   C30       1.0  0.51064  0.64313  0.17853  1.0000
  H   H23       1.0  0.51730  0.66865  0.12365  1.0000
  H   H24       1.0  0.47394  0.61151  0.17001  1.0000
  H   H25       1.0  0.53758  0.63104  0.17382  1.0000
  C   C31       1.0  0.13801  0.64734  0.32093  1.0000
  C   C32       1.0  0.16426  0.67407  0.24388  1.0000
  N   N11       1.0  0.20369  0.71983  0.25471  1.0000
  C   C33       1.0  0.22060  0.74242  0.33490  1.0000
  N   N12       1.0  0.29145  0.80975  0.26637  1.0000
  C   C34       1.0  0.33753  0.84927  0.26654  1.0000
  C   C35       1.0  0.15497  0.65459  0.15147  1.0000
  H   H26       1.0  0.12369  0.61748  0.14669  1.0000
  H   H27       1.0  0.18729  0.65406  0.12636  1.0000
  H   H28       1.0  0.14777  0.67833  0.10848  1.0000
  C   C36       1.0  0.36091  0.86841  0.17842  1.0000
  H   H29       1.0  0.33539  0.84957  0.12352  1.0000
  H   H30       1.0  0.39254  0.86336  0.16986  1.0000
  H   H31       1.0  0.37298  0.90744  0.17377  1.0000
  C   C37       1.0  0.64816  0.51175  0.32085  1.0000
  C   C38       1.0  0.67491  0.51224  0.24385  1.0000
  N   N13       1.0  0.72067  0.51855  0.25474  1.0000
  C   C39       1.0  0.74326  0.52429  0.33494  1.0000
  N   N14       1.0  0.81059  0.52070  0.26652  1.0000
  C   C40       1.0  0.85010  0.51413  0.26677  1.0000
  C   C41       1.0  0.65543  0.50194  0.15144  1.0000
  H   H32       1.0  0.61831  0.49610  0.14661  1.0000
  H   H33       1.0  0.65490  0.46907  0.12647  1.0000
  H   H34       1.0  0.67917  0.53284  0.10836  1.0000
  C   C42       1.0  0.86923  0.50982  0.17868  1.0000
  H   H35       1.0  0.85040  0.51650  0.12375  1.0000
  H   H36       1.0  0.86414  0.47313  0.17019  1.0000
  H   H37       1.0  0.90827  0.53676  0.17402  1.0000
  C   C43       1.0  0.49242  0.13732  0.32132  1.0000
  C   C44       1.0  0.49176  0.16341  0.24415  1.0000
  N   N15       1.0  0.48541  0.20283  0.25492  1.0000
  C   C45       1.0  0.47971  0.21976  0.33507  1.0000
  N   N16       1.0  0.48330  0.29063  0.26643  1.0000
  C   C46       1.0  0.48989  0.33672  0.26654  1.0000
  C   C47       1.0  0.50204  0.15418  0.15174  1.0000
  H   H38       1.0  0.50796  0.12296  0.14695  1.0000
  H   H39       1.0  0.53484  0.18654  0.12666  1.0000
  H   H40       1.0  0.47108  0.14691  0.10872  1.0000
  C   C48       1.0  0.49417  0.36009  0.17840  1.0000
  H   H41       1.0  0.48747  0.33455  0.12352  1.0000
  H   H42       1.0  0.53087  0.39169  0.16984  1.0000
  H   H43       1.0  0.46725  0.37222  0.17371  1.0000
  C   C49       1.0  0.86672  0.35590  0.32136  1.0000
  C   C50       1.0  0.84061  0.32917  0.24419  1.0000
  N   N17       1.0  0.80118  0.28340  0.25497  1.0000
  C   C51       1.0  0.78427  0.26076  0.33512  1.0000
  N   N18       1.0  0.71341  0.19349  0.26647  1.0000
  C   C52       1.0  0.66733  0.15397  0.26656  1.0000
  C   C53       1.0  0.84981  0.34868  0.15179  1.0000
  H   H44       1.0  0.88104  0.38582  0.14700  1.0000
  H   H45       1.0  0.81745  0.34914  0.12674  1.0000
  H   H46       1.0  0.85707  0.32500  0.10874  1.0000
  C   C54       1.0  0.64395  0.13490  0.17841  1.0000
  H   H47       1.0  0.66948  0.15376  0.12354  1.0000
  H   H48       1.0  0.61234  0.13999  0.16990  1.0000
  H   H49       1.0  0.63184  0.09586  0.17369  1.0000
  C   C55       1.0  0.94845  0.50987  0.35003  1.0000
  C   C56       1.0  0.89687  0.48461  0.35243  1.0000
  C   C57       1.0  0.87177  0.43345  0.34316  1.0000
  H   H50       1.0  0.96596  0.54624  0.36661  1.0000
  H   H51       1.0  0.83415  0.41451  0.34855  1.0000
  C   C58       1.0  0.13306  0.56980  0.34276  1.0000
  C   C59       1.0  0.10798  0.51865  0.35211  1.0000
  C   C60       1.0  0.05639  0.49338  0.35003  1.0000
  H   H52       1.0  0.17068  0.58877  0.34815  1.0000
  C   C61       1.0  0.49419  0.43942  0.34998  1.0000
  C   C62       1.0  0.51947  0.41311  0.35214  1.0000
  C   C63       1.0  0.57061  0.43916  0.34266  1.0000
  H   H53       1.0  0.45783  0.42055  0.36668  1.0000
  H   H54       1.0  0.58958  0.42051  0.34804  1.0000
  C   C64       1.0  0.43425  0.56412  0.34298  1.0000
  C   C65       1.0  0.48542  0.59018  0.35214  1.0000
  C   C66       1.0  0.51069  0.56387  0.34995  1.0000
  H   H55       1.0  0.41531  0.58279  0.34848  1.0000
  H   H56       1.0  0.54706  0.58275  0.36653  1.0000
  C   C67       1.0  0.56467  0.05560  0.35003  1.0000
  C   C68       1.0  0.59101  0.10719  0.35206  1.0000
  C   C69       1.0  0.56494  0.13229  0.34292  1.0000
  H   H57       1.0  0.58356  0.03811  0.36655  1.0000
  H   H58       1.0  0.58363  0.16991  0.34829  1.0000
  C   C70       1.0  0.43993  0.87097  0.34284  1.0000
  C   C71       1.0  0.41387  0.89607  0.35206  1.0000
  C   C72       1.0  0.44020  0.94766  0.34997  1.0000
  H   H59       1.0  0.42125  0.83334  0.34821  1.0000
  H   H60       1.0  0.42133  0.96515  0.36659  1.0000
  C   C73       1.0  0.28646  0.47876  0.41409  1.0000
  C   C74       1.0  0.33346  0.48385  0.40579  1.0000
  H   H61       1.0  0.35310  0.48734  0.46281  1.0000
  C   C75       1.0  0.21700  0.47942  0.34129  1.0000
  C   C76       1.0  0.13618  0.49479  0.34980  1.0000
  C   C77       1.0  0.15786  0.49018  0.42931  1.0000
  C   C78       1.0  0.19808  0.48193  0.42616  1.0000
  C   C79       1.0  0.22228  0.48014  0.50437  1.0000
  C   C80       1.0  0.26576  0.47794  0.49838  1.0000
  H   H62       1.0  0.20957  0.48244  0.56616  1.0000
  H   H63       1.0  0.28381  0.47895  0.55602  1.0000
  H   H64       1.0  0.14670  0.49658  0.48973  1.0000
  C   C81       1.0  0.52521  0.80851  0.41403  1.0000
  C   C82       1.0  0.52011  0.85042  0.40569  1.0000
  H   H65       1.0  0.51676  0.86670  0.46264  1.0000
  C   C83       1.0  0.52455  0.73838  0.34130  1.0000
  C   C84       1.0  0.50928  0.64225  0.34989  1.0000
  C   C85       1.0  0.51386  0.66852  0.42939  1.0000
  C   C86       1.0  0.52210  0.71699  0.42619  1.0000
  C   C87       1.0  0.52391  0.74301  0.50437  1.0000
  C   C88       1.0  0.52608  0.78869  0.49834  1.0000
  H   H66       1.0  0.52169  0.72806  0.56619  1.0000
  H   H67       1.0  0.52515  0.80577  0.55597  1.0000
  H   H68       1.0  0.50754  0.65098  0.48982  1.0000
  C   C89       1.0  0.19558  0.71748  0.41382  1.0000
  C   C90       1.0  0.15367  0.67049  0.40544  1.0000
  H   H69       1.0  0.13739  0.65086  0.46240  1.0000
  C   C91       1.0  0.26567  0.78700  0.34113  1.0000
  C   C92       1.0  0.36182  0.86789  0.34974  1.0000
  C   C93       1.0  0.33551  0.84620  0.42923  1.0000
  C   C94       1.0  0.28708  0.80591  0.42602  1.0000
  C   C95       1.0  0.26109  0.78165  0.50419  1.0000
  C   C96       1.0  0.21543  0.73813  0.49815  1.0000
  H   H70       1.0  0.27605  0.79437  0.56601  1.0000
  H   H71       1.0  0.19836  0.72009  0.55577  1.0000
  H   H72       1.0  0.35310  0.85730  0.48963  1.0000
  C   C97       1.0  0.71830  0.52438  0.41382  1.0000
  C   C98       1.0  0.67127  0.51922  0.40537  1.0000
  H   H73       1.0  0.65169  0.51597  0.46235  1.0000
  C   C99       1.0  0.78783  0.52377  0.34124  1.0000
  C   C100      1.0  0.86865  0.50845  0.35005  1.0000
  C   C101      1.0  0.84693  0.51306  0.42949  1.0000
  C   C102      1.0  0.80669  0.52127  0.42618  1.0000
  C   C103      1.0  0.78246  0.52310  0.50431  1.0000
  C   C104      1.0  0.73896  0.52529  0.49819  1.0000
  H   H74       1.0  0.79508  0.52073  0.56615  1.0000
  H   H75       1.0  0.72083  0.52415  0.55577  1.0000
  H   H76       1.0  0.85806  0.50667  0.48996  1.0000
  C   C105      1.0  0.47962  0.19476  0.41403  1.0000
  C   C106      1.0  0.48471  0.15285  0.40574  1.0000
  H   H77       1.0  0.48821  0.13670  0.46276  1.0000
  C   C107      1.0  0.48026  0.26487  0.34122  1.0000
  C   C108      1.0  0.49562  0.36106  0.34969  1.0000
  C   C109      1.0  0.49104  0.33479  0.42922  1.0000
  C   C110      1.0  0.48279  0.28631  0.42608  1.0000
  C   C111      1.0  0.48102  0.26034  0.50430  1.0000
  C   C112      1.0  0.47882  0.21465  0.49833  1.0000
  H   H78       1.0  0.48335  0.27536  0.56609  1.0000
  H   H79       1.0  0.47985  0.19762  0.55596  1.0000
  H   H80       1.0  0.49745  0.35235  0.48963  1.0000
  C   C113      1.0  0.80929  0.28564  0.41407  1.0000
  C   C114      1.0  0.85119  0.33266  0.40577  1.0000
  H   H81       1.0  0.86745  0.35228  0.46275  1.0000
  C   C115      1.0  0.73919  0.21619  0.34128  1.0000
  C   C116      1.0  0.64307  0.13537  0.34977  1.0000
  C   C117      1.0  0.66931  0.15701  0.42932  1.0000
  C   C118      1.0  0.71778  0.19722  0.42616  1.0000
  C   C119      1.0  0.74379  0.22142  0.50436  1.0000
  C   C120      1.0  0.78946  0.26493  0.49837  1.0000
  H   H82       1.0  0.72882  0.20867  0.56616  1.0000
  H   H83       1.0  0.80653  0.28293  0.55602  1.0000
  H   H84       1.0  0.65175  0.14577  0.48973  1.0000
