data_image0
_chemical_formula_structural       C3O2HNOHNCN2C3OC2NCOHN2C3O2HNC3O2HC3O2HCNC2O2HNCNC2O2HCNC2O2HCNC2O2HCNCNCNCNCNCNCNCNCNCNCNCNCNCNCNC3O2HCNC2O2HCNC2O2HNC2ONC3O2HNC3O2HNC3O2HNC3O2HNC3O2H
_chemical_formula_sum              "C72 O36 H18 N36"
_cell_length_a       30.0619
_cell_length_b       30.0619
_cell_length_c       14.7648
_cell_angle_alpha    90
_cell_angle_beta     90
_cell_angle_gamma    120

_space_group_name_H-M_alt    "P 1"
_space_group_IT_number       1

loop_
  _space_group_symop_operation_xyz
  'x, y, z'

loop_
  _atom_site_type_symbol
  _atom_site_label
  _atom_site_symmetry_multiplicity
  _atom_site_fract_x
  _atom_site_fract_y
  _atom_site_fract_z
  _atom_site_occupancy
  C   C1        1.0  0.03494  0.55819  0.28123  1.0000
  C   C2        1.0  0.06752  0.53694  0.29429  1.0000
  C   C3        1.0  0.05320  0.60994  0.26597  1.0000
  O   O1        1.0  0.03501  0.63099  0.31130  1.0000
  O   O2        1.0  0.06841  0.62847  0.18985  1.0000
  H   H1        1.0  0.07988  0.61555  0.14805  1.0000
  N   N1        1.0  0.04196  0.48513  0.30783  1.0000
  O   O3        1.0  0.17121  0.72253  0.23624  1.0000
  H   H2        1.0  0.15796  0.72972  0.28380  1.0000
  N   N2        1.0  0.14973  0.61739  0.31961  1.0000
  C   C4        1.0  0.12259  0.56483  0.30850  1.0000
  N   N3        1.0  0.14811  0.53834  0.32629  1.0000
  N   N4        1.0  0.23953  0.51591  0.31175  1.0000
  C   C5        1.0  0.23393  0.69605  0.36558  1.0000
  C   C6        1.0  0.24499  0.73777  0.30658  1.0000
  C   C7        1.0  0.21638  0.73290  0.23027  1.0000
  O   O4        1.0  0.22619  0.71624  0.16227  1.0000
  C   C8        1.0  0.19835  0.64279  0.35451  1.0000
  C   C9        1.0  0.19663  0.56161  0.36156  1.0000
  N   N5        1.0  0.21863  0.61279  0.37482  1.0000
  C   C10       1.0  0.23040  0.54219  0.37802  1.0000
  O   O5        1.0  0.22226  0.56754  0.57041  1.0000
  H   H3        1.0  0.19205  0.54264  0.55163  1.0000
  N   N6        1.0  0.98277  0.52643  0.28502  1.0000
  N   N7        1.0  0.49448  0.46074  0.28297  1.0000
  C   C11       1.0  0.46299  0.48133  0.27828  1.0000
  C   C12       1.0  0.48388  0.53490  0.29412  1.0000
  C   C13       1.0  0.41201  0.44689  0.26040  1.0000
  O   O6        1.0  0.38467  0.42467  0.32536  1.0000
  O   O7        1.0  0.38965  0.45169  0.19412  1.0000
  H   H4        1.0  0.40522  0.46925  0.14465  1.0000
  N   N8        1.0  0.56008  0.03757  0.28526  1.0000
  C   C14       1.0  0.53966  0.98540  0.28151  1.0000
  C   C15       1.0  0.48585  0.95285  0.29486  1.0000
  C   C16       1.0  0.57306  0.96712  0.26596  1.0000
  O   O8        1.0  0.61286  0.98567  0.30982  1.0000
  O   O9        1.0  0.57605  0.95137  0.19013  1.0000
  H   H5        1.0  0.55149  0.93970  0.14864  1.0000
  C   C17       1.0  0.32464  0.54241  0.36458  1.0000
  C   C18       1.0  0.28303  0.51166  0.30554  1.0000
  C   C19       1.0  0.28944  0.48710  0.23159  1.0000
  O   O10       1.0  0.27511  0.49361  0.15780  1.0000
  O   O11       1.0  0.28741  0.44527  0.24042  1.0000
  H   H6        1.0  0.29232  0.43327  0.29194  1.0000
  C   C20       1.0  0.47858  0.78644  0.36577  1.0000
  N   N9        1.0  0.50493  0.72775  0.31269  1.0000
  C   C21       1.0  0.50930  0.77546  0.30678  1.0000
  C   C22       1.0  0.53329  0.80441  0.23091  1.0000
  O   O12       1.0  0.50700  0.79508  0.16280  1.0000
  O   O13       1.0  0.56828  0.84946  0.23759  1.0000
  H   H7        1.0  0.58861  0.86238  0.28537  1.0000
  N   N10       1.0  0.29283  0.78097  0.31250  1.0000
  C   C23       1.0  0.70266  0.47488  0.36731  1.0000
  N   N11       1.0  0.78743  0.50024  0.31417  1.0000
  C   C24       1.0  0.74457  0.50550  0.30861  1.0000
  C   C25       1.0  0.74002  0.52991  0.23273  1.0000
  O   O14       1.0  0.72720  0.50485  0.16278  1.0000
  O   O15       1.0  0.72677  0.56264  0.23916  1.0000
  H   H8        1.0  0.73167  0.58184  0.28772  1.0000
  C   C26       1.0  0.54583  0.23184  0.36664  1.0000
  N   N12       1.0  0.52025  0.29119  0.31443  1.0000
  C   C27       1.0  0.51514  0.24307  0.30802  1.0000
  C   C28       1.0  0.49020  0.21223  0.23390  1.0000
  O   O16       1.0  0.49208  0.23311  0.16179  1.0000
  O   O17       1.0  0.45213  0.16905  0.24314  1.0000
  H   H9        1.0  0.44268  0.15142  0.29438  1.0000
  C   C29       1.0  0.78890  0.31768  0.36619  1.0000
  N   N13       1.0  0.72931  0.23296  0.31339  1.0000
  C   C30       1.0  0.77743  0.27595  0.30696  1.0000
  C   C31       1.0  0.80797  0.28197  0.23233  1.0000
  O   O18       1.0  0.78720  0.26311  0.16009  1.0000
  O   O19       1.0  0.85132  0.28735  0.24107  1.0000
  H   H10       1.0  0.86907  0.29547  0.29217  1.0000
  C   C32       1.0  0.37791  0.55981  0.35423  1.0000
  N   N14       1.0  0.40331  0.53657  0.31928  1.0000
  C   C33       1.0  0.45591  0.56195  0.30875  1.0000
  N   N15       1.0  0.48243  0.61389  0.32709  1.0000
  C   C34       1.0  0.45918  0.63911  0.36249  1.0000
  N   N16       1.0  0.40796  0.61001  0.37518  1.0000
  C   C35       1.0  0.46074  0.82189  0.35458  1.0000
  N   N17       1.0  0.48404  0.87060  0.32004  1.0000
  C   C36       1.0  0.45864  0.89779  0.30922  1.0000
  N   N18       1.0  0.40665  0.87230  0.32709  1.0000
  C   C37       1.0  0.38139  0.82373  0.36212  1.0000
  N   N19       1.0  0.41050  0.80164  0.37519  1.0000
  C   C38       1.0  0.82496  0.37082  0.35537  1.0000
  N   N20       1.0  0.87384  0.39547  0.32183  1.0000
  C   C39       1.0  0.90221  0.44804  0.31204  1.0000
  N   N21       1.0  0.87765  0.47554  0.32910  1.0000
  C   C40       1.0  0.82881  0.45295  0.36305  1.0000
  N   N22       1.0  0.80561  0.40161  0.37572  1.0000
  C   C41       1.0  0.64959  0.45808  0.35673  1.0000
  N   N23       1.0  0.62501  0.48233  0.32299  1.0000
  C   C42       1.0  0.57246  0.45818  0.31302  1.0000
  N   N24       1.0  0.54489  0.40610  0.32981  1.0000
  C   C43       1.0  0.56737  0.37981  0.36407  1.0000
  N   N25       1.0  0.61871  0.40793  0.37680  1.0000
  C   C44       1.0  0.56254  0.19546  0.35616  1.0000
  N   N26       1.0  0.53821  0.14661  0.32247  1.0000
  C   C45       1.0  0.56232  0.11816  0.31251  1.0000
  N   N27       1.0  0.61439  0.14264  0.32934  1.0000
  C   C46       1.0  0.64074  0.19140  0.36357  1.0000
  N   N28       1.0  0.61269  0.21470  0.37627  1.0000
  C   C47       1.0  0.95730  0.47456  0.29836  1.0000
  C   C48       1.0  0.98991  0.45312  0.30887  1.0000
  C   C49       1.0  0.97266  0.40223  0.33009  1.0000
  O   O20       1.0  0.96333  0.39069  0.40999  1.0000
  O   O21       1.0  0.98837  0.37699  0.28887  1.0000
  H   H11       1.0  0.99877  0.38244  0.23175  1.0000
  C   C50       1.0  0.54609  0.48688  0.29928  1.0000
  N   N29       1.0  0.53539  0.56079  0.31093  1.0000
  C   C51       1.0  0.56739  0.54075  0.31250  1.0000
  C   C52       1.0  0.61771  0.57386  0.33798  1.0000
  O   O22       1.0  0.62750  0.57358  0.41825  1.0000
  O   O23       1.0  0.64374  0.61606  0.30096  1.0000
  H   H12       1.0  0.63954  0.62278  0.24420  1.0000
  C   C53       1.0  0.53373  0.06307  0.29881  1.0000
  N   N30       1.0  0.45963  0.97843  0.30863  1.0000
  C   C54       1.0  0.47969  0.03049  0.30956  1.0000
  C   C55       1.0  0.44610  0.04779  0.33120  1.0000
  O   O24       1.0  0.44401  0.05661  0.41139  1.0000
  O   O25       1.0  0.40545  0.03234  0.28915  1.0000
  H   H13       1.0  0.40095  0.02264  0.23165  1.0000
  N   N31       1.0  0.31301  0.56477  0.43355  1.0000
  C   C56       1.0  0.26808  0.56385  0.44767  1.0000
  C   C57       1.0  0.26285  0.58640  0.52682  1.0000
  O   O26       1.0  0.30064  0.61236  0.57375  1.0000
  N   N32       1.0  0.45604  0.75232  0.43451  1.0000
  C   C58       1.0  0.45698  0.70830  0.44858  1.0000
  C   C59       1.0  0.47875  0.69232  0.37898  1.0000
  C   C60       1.0  0.43425  0.68045  0.52764  1.0000
  O   O27       1.0  0.40741  0.69169  0.57334  1.0000
  O   O28       1.0  0.45282  0.65839  0.57105  1.0000
  H   H14       1.0  0.47802  0.65346  0.55267  1.0000
  N   N33       1.0  0.26798  0.70755  0.43440  1.0000
  C   C61       1.0  0.31206  0.75244  0.44850  1.0000
  C   C62       1.0  0.32821  0.79019  0.37890  1.0000
  C   C63       1.0  0.33994  0.75745  0.52741  1.0000
  O   O29       1.0  0.32802  0.71958  0.57418  1.0000
  O   O30       1.0  0.36196  0.79801  0.57107  1.0000
  H   H15       1.0  0.36742  0.82829  0.55244  1.0000
  N   N34       1.0  0.71376  0.45194  0.43597  1.0000
  C   C64       1.0  0.75839  0.45224  0.45002  1.0000
  C   C65       1.0  0.79609  0.47353  0.38030  1.0000
  C   C66       1.0  0.76307  0.42902  0.52878  1.0000
  O   O31       1.0  0.72515  0.40347  0.57569  1.0000
  O   O32       1.0  0.80368  0.44691  0.57215  1.0000
  H   H16       1.0  0.83410  0.47141  0.55340  1.0000
  N   N35       1.0  0.56870  0.26569  0.43557  1.0000
  C   C67       1.0  0.56834  0.30995  0.45005  1.0000
  C   C68       1.0  0.54699  0.32646  0.38064  1.0000
  C   C69       1.0  0.59138  0.33760  0.52909  1.0000
  O   O33       1.0  0.61715  0.32534  0.57563  1.0000
  O   O34       1.0  0.57324  0.35994  0.57288  1.0000
  H   H17       1.0  0.54861  0.36573  0.55436  1.0000
  N   N36       1.0  0.75503  0.30661  0.43512  1.0000
  C   C70       1.0  0.71074  0.26199  0.44945  1.0000
  C   C71       1.0  0.69413  0.22419  0.37988  1.0000
  C   C72       1.0  0.68318  0.25732  0.52870  1.0000
  O   O35       1.0  0.69489  0.29554  0.57428  1.0000
  O   O36       1.0  0.66070  0.21674  0.57216  1.0000
  H   H18       1.0  0.65531  0.18644  0.55377  1.0000
