data_image0
_chemical_formula_structural       C4NC2NC2H2C4NC2NC2H2C4NC2NC2H2C2H2C3H3C2H2C2H2C2H2C4H4NC18H12NC18H12NC18H12NC18H12C2H2C2H2C2H2C2H2C2H2C2H2C4NC2NCHC4NC2NC2H2C4NC2N
_chemical_formula_sum              "C144 N16 H84"
_cell_length_a       39.0827
_cell_length_b       39.0828
_cell_length_c       14.8525
_cell_angle_alpha    90
_cell_angle_beta     90
_cell_angle_gamma    120

_space_group_name_H-M_alt    "P 1"
_space_group_IT_number       1

loop_
  _space_group_symop_operation_xyz
  'x, y, z'

loop_
  _atom_site_type_symbol
  _atom_site_label
  _atom_site_symmetry_multiplicity
  _atom_site_fract_x
  _atom_site_fract_y
  _atom_site_fract_z
  _atom_site_occupancy
  C   C1        1.0  0.25992  0.13418  0.34079  1.0000
  C   C2        1.0  0.23796  0.11303  0.26353  1.0000
  C   C3        1.0  0.19567  0.09163  0.26368  1.0000
  C   C4        1.0  0.17372  0.09039  0.34123  1.0000
  N   N1        1.0  0.17697  0.07176  0.18731  1.0000
  C   C5        1.0  0.19586  0.07146  0.11103  1.0000
  C   C6        1.0  0.23766  0.09251  0.11088  1.0000
  N   N2        1.0  0.25656  0.11189  0.18698  1.0000
  C   C7        1.0  0.17503  0.05118  0.03316  1.0000
  C   C8        1.0  0.25850  0.09322  0.03287  1.0000
  H   H1        1.0  0.14481  0.03598  0.03280  1.0000
  H   H2        1.0  0.28872  0.10850  0.03228  1.0000
  C   C9        1.0  0.87400  0.13281  0.32263  1.0000
  C   C10       1.0  0.87936  0.11506  0.24396  1.0000
  C   C11       1.0  0.90076  0.09410  0.24596  1.0000
  C   C12       1.0  0.91812  0.08998  0.32660  1.0000
  N   N3        1.0  0.90356  0.07762  0.16753  1.0000
  C   C13       1.0  0.88672  0.07870  0.08875  1.0000
  C   C14       1.0  0.86570  0.09940  0.08662  1.0000
  N   N4        1.0  0.86364  0.11687  0.16351  1.0000
  C   C15       1.0  0.88786  0.05815  0.01202  1.0000
  C   C16       1.0  0.84573  0.09952  0.00786  1.0000
  H   H3        1.0  0.90241  0.04250  0.01376  1.0000
  H   H4        1.0  0.82977  0.11376  0.00662  1.0000
  C   C17       1.0  0.87001  0.74565  0.34003  1.0000
  C   C18       1.0  0.88998  0.76778  0.26208  1.0000
  C   C19       1.0  0.91133  0.81010  0.26249  1.0000
  C   C20       1.0  0.91506  0.83221  0.34198  1.0000
  N   N5        1.0  0.92812  0.82848  0.18341  1.0000
  C   C21       1.0  0.92741  0.80966  0.10625  1.0000
  C   C22       1.0  0.90785  0.76791  0.10728  1.0000
  N   N6        1.0  0.89004  0.74910  0.18468  1.0000
  C   C23       1.0  0.94665  0.83053  0.02760  1.0000
  C   C24       1.0  0.90740  0.74710  0.02948  1.0000
  H   H5        1.0  0.96122  0.86074  0.02682  1.0000
  H   H6        1.0  0.89340  0.71691  0.02990  1.0000
  C   C25       1.0  0.57770  0.18820  0.27115  1.0000
  C   C26       1.0  0.61334  0.18768  0.27636  1.0000
  H   H7        1.0  0.63059  0.19534  0.21981  1.0000
  H   H8        1.0  0.57055  0.19472  0.20982  1.0000
  C   C27       1.0  0.53878  0.12958  0.07337  1.0000
  C   C28       1.0  0.57324  0.12664  0.07630  1.0000
  C   C29       1.0  0.59785  0.13651  0.00014  1.0000
  H   H9        1.0  0.52091  0.12222  0.12873  1.0000
  H   H10       1.0  0.58034  0.11717  0.13378  1.0000
  H   H11       1.0  0.62273  0.13411  0.00246  1.0000
  C   C30       1.0  0.81610  0.39538  0.22815  1.0000
  C   C31       1.0  0.81590  0.43126  0.22964  1.0000
  H   H12       1.0  0.81109  0.44114  0.16986  1.0000
  H   H13       1.0  0.81145  0.38155  0.16731  1.0000
  C   C32       1.0  0.87198  0.42087  0.03144  1.0000
  C   C33       1.0  0.87197  0.45691  0.03274  1.0000
  H   H14       1.0  0.88183  0.41246  0.08626  1.0000
  H   H15       1.0  0.88185  0.47460  0.08846  1.0000
  C   C34       1.0  0.60931  0.43095  0.31275  1.0000
  C   C35       1.0  0.57338  0.39486  0.31317  1.0000
  H   H16       1.0  0.56618  0.37746  0.25691  1.0000
  H   H17       1.0  0.62656  0.43814  0.25624  1.0000
  C   C36       1.0  0.59874  0.47865  0.03014  1.0000
  C   C37       1.0  0.57499  0.46628  0.10797  1.0000
  C   C38       1.0  0.53894  0.43025  0.10820  1.0000
  C   C39       1.0  0.52641  0.40639  0.03056  1.0000
  H   H18       1.0  0.62495  0.50479  0.03049  1.0000
  H   H19       1.0  0.58394  0.48348  0.16454  1.0000
  H   H20       1.0  0.52184  0.42140  0.16493  1.0000
  H   H21       1.0  0.50026  0.38019  0.03121  1.0000
  N   N7        1.0  0.00320  0.00384  0.35386  1.0000
  C   C40       1.0  0.04565  0.02555  0.35054  1.0000
  C   C41       1.0  0.98251  0.96120  0.35422  1.0000
  C   C42       1.0  0.98207  0.02518  0.34624  1.0000
  C   C43       1.0  0.99228  0.05885  0.39983  1.0000
  C   C44       1.0  0.97217  0.08031  0.39152  1.0000
  C   C45       1.0  0.93927  0.06812  0.33307  1.0000
  C   C46       1.0  0.92811  0.03302  0.28321  1.0000
  C   C47       1.0  0.94973  0.01298  0.28699  1.0000
  C   C48       1.0  0.06609  0.05003  0.27655  1.0000
  C   C49       1.0  0.10778  0.07164  0.27415  1.0000
  C   C50       1.0  0.13097  0.06899  0.34439  1.0000
  C   C51       1.0  0.11012  0.04439  0.41845  1.0000
  C   C52       1.0  0.06841  0.02333  0.42175  1.0000
  C   C53       1.0  0.99445  0.93961  0.29890  1.0000
  C   C54       1.0  0.97365  0.89791  0.29815  1.0000
  C   C55       1.0  0.93799  0.87525  0.34708  1.0000
  C   C56       1.0  0.92633  0.89733  0.40249  1.0000
  C   C57       1.0  0.94847  0.93901  0.40774  1.0000
  H   H22       1.0  0.12113  0.08987  0.22037  1.0000
  H   H23       1.0  0.05054  0.05264  0.22422  1.0000
  H   H24       1.0  0.05456  0.00585  0.47628  1.0000
  H   H25       1.0  0.12525  0.04109  0.47076  1.0000
  H   H26       1.0  0.01553  0.06880  0.44359  1.0000
  H   H27       1.0  0.98234  0.10551  0.42892  1.0000
  H   H28       1.0  0.01923  0.95426  0.25996  1.0000
  H   H29       1.0  0.98545  0.88432  0.26111  1.0000
  H   H30       1.0  0.90077  0.88327  0.43900  1.0000
  H   H31       1.0  0.93849  0.95334  0.44820  1.0000
  H   H32       1.0  0.94064  0.98821  0.24852  1.0000
  H   H33       1.0  0.90332  0.02083  0.24407  1.0000
  N   N8        1.0  0.43047  0.22110  0.35343  1.0000
  C   C58       1.0  0.45134  0.26238  0.37450  1.0000
  C   C59       1.0  0.38824  0.19935  0.34968  1.0000
  C   C60       1.0  0.45489  0.20387  0.33723  1.0000
  C   C61       1.0  0.48708  0.22240  0.27690  1.0000
  C   C62       1.0  0.51850  0.21456  0.28015  1.0000
  C   C63       1.0  0.51822  0.18561  0.33860  1.0000
  C   C64       1.0  0.48318  0.16360  0.39004  1.0000
  C   C65       1.0  0.45299  0.17344  0.39203  1.0000
  C   C66       1.0  0.45698  0.29046  0.30764  1.0000
  C   C67       1.0  0.48749  0.33009  0.31519  1.0000
  C   C68       1.0  0.51374  0.34313  0.38954  1.0000
  C   C69       1.0  0.50657  0.31529  0.45860  1.0000
  C   C70       1.0  0.47571  0.27578  0.45169  1.0000
  C   C71       1.0  0.36753  0.20133  0.27381  1.0000
  C   C72       1.0  0.32582  0.18070  0.27146  1.0000
  C   C73       1.0  0.30276  0.15623  0.34371  1.0000
  C   C74       1.0  0.32394  0.15478  0.41992  1.0000
  C   C75       1.0  0.36564  0.17615  0.42324  1.0000
  H   H34       1.0  0.49184  0.34889  0.26289  1.0000
  H   H35       1.0  0.44148  0.28148  0.24873  1.0000
  H   H36       1.0  0.47387  0.25580  0.49875  1.0000
  H   H37       1.0  0.52577  0.32262  0.51147  1.0000
  H   H38       1.0  0.49021  0.24519  0.23731  1.0000
  H   H39       1.0  0.54294  0.23253  0.24269  1.0000
  H   H40       1.0  0.38280  0.21806  0.21952  1.0000
  H   H41       1.0  0.31239  0.18429  0.21608  1.0000
  H   H42       1.0  0.30910  0.13765  0.47418  1.0000
  H   H43       1.0  0.37954  0.17470  0.48020  1.0000
  H   H44       1.0  0.43038  0.15922  0.43683  1.0000
  H   H45       1.0  0.47962  0.14080  0.42995  1.0000
  N   N9        1.0  0.78628  0.21735  0.33019  1.0000
  C   C76       1.0  0.74470  0.19765  0.34968  1.0000
  C   C77       1.0  0.80792  0.19633  0.32857  1.0000
  C   C78       1.0  0.80310  0.25878  0.30942  1.0000
  C   C79       1.0  0.78533  0.27109  0.24359  1.0000
  C   C80       1.0  0.79198  0.31003  0.24236  1.0000
  C   C81       1.0  0.81923  0.33981  0.30154  1.0000
  C   C82       1.0  0.84104  0.32830  0.35803  1.0000
  C   C83       1.0  0.83192  0.28864  0.36494  1.0000
  C   C84       1.0  0.71685  0.17564  0.28195  1.0000
  C   C85       1.0  0.67732  0.16677  0.28790  1.0000
  C   C86       1.0  0.66409  0.18075  0.36036  1.0000
  C   C87       1.0  0.69165  0.20138  0.43006  1.0000
  C   C88       1.0  0.73100  0.20920  0.42548  1.0000
  C   C89       1.0  0.79792  0.16448  0.26898  1.0000
  C   C90       1.0  0.81803  0.14290  0.26981  1.0000
  C   C91       1.0  0.85156  0.15355  0.32512  1.0000
  C   C92       1.0  0.86132  0.18554  0.38497  1.0000
  C   C93       1.0  0.83942  0.20535  0.38861  1.0000
  H   H46       1.0  0.65892  0.15238  0.23494  1.0000
  H   H47       1.0  0.72589  0.16963  0.22262  1.0000
  H   H48       1.0  0.75077  0.22728  0.47290  1.0000
  H   H49       1.0  0.68437  0.21394  0.48152  1.0000
  H   H50       1.0  0.76366  0.25063  0.20291  1.0000
  H   H51       1.0  0.77445  0.31550  0.20069  1.0000
  H   H52       1.0  0.77507  0.15582  0.22501  1.0000
  H   H53       1.0  0.80695  0.11850  0.22960  1.0000
  H   H54       1.0  0.88498  0.19524  0.42735  1.0000
  H   H55       1.0  0.84702  0.22667  0.43628  1.0000
  H   H56       1.0  0.84520  0.28174  0.41501  1.0000
  H   H57       1.0  0.86290  0.34833  0.39879  1.0000
  N   N10       1.0  0.78224  0.57507  0.34612  1.0000
  C   C94       1.0  0.79920  0.55106  0.32271  1.0000
  C   C95       1.0  0.80388  0.61733  0.34447  1.0000
  C   C96       1.0  0.74125  0.55368  0.36971  1.0000
  C   C97       1.0  0.72898  0.52882  0.44615  1.0000
  C   C98       1.0  0.68959  0.49785  0.45478  1.0000
  C   C99       1.0  0.66096  0.49090  0.38791  1.0000
  C   C100      1.0  0.67292  0.51753  0.31438  1.0000
  C   C101      1.0  0.71235  0.54835  0.30538  1.0000
  C   C102      1.0  0.82991  0.55163  0.37391  1.0000
  C   C103      1.0  0.83982  0.52168  0.36441  1.0000
  C   C104      1.0  0.81766  0.48821  0.30841  1.0000
  C   C105      1.0  0.78853  0.48942  0.25342  1.0000
  C   C106      1.0  0.78052  0.52071  0.25794  1.0000
  C   C107      1.0  0.82852  0.63922  0.41699  1.0000
  C   C108      1.0  0.85007  0.68095  0.41538  1.0000
  C   C109      1.0  0.84751  0.70282  0.34194  1.0000
  C   C110      1.0  0.82157  0.68045  0.27096  1.0000
  C   C111      1.0  0.80068  0.63873  0.27158  1.0000
  H   H58       1.0  0.86264  0.52402  0.40248  1.0000
  H   H59       1.0  0.84418  0.57291  0.42168  1.0000
  H   H60       1.0  0.75758  0.51867  0.22068  1.0000
  H   H61       1.0  0.77067  0.46610  0.21283  1.0000
  H   H62       1.0  0.74958  0.53055  0.49122  1.0000
  H   H63       1.0  0.68286  0.47840  0.50694  1.0000
  H   H64       1.0  0.83098  0.62479  0.47181  1.0000
  H   H65       1.0  0.86830  0.69530  0.46853  1.0000
  H   H66       1.0  0.81723  0.69442  0.21769  1.0000
  H   H67       1.0  0.78297  0.62399  0.21807  1.0000
  H   H68       1.0  0.72056  0.56414  0.24679  1.0000
  H   H69       1.0  0.65352  0.51321  0.26348  1.0000
  C   C112      1.0  0.19590  0.11138  0.41779  1.0000
  C   C113      1.0  0.23758  0.13264  0.41747  1.0000
  H   H70       1.0  0.25161  0.14788  0.47454  1.0000
  H   H71       1.0  0.18172  0.11217  0.47502  1.0000
  C   C114      1.0  0.19596  0.05203  0.62187  1.0000
  C   C115      1.0  0.23757  0.07300  0.62171  1.0000
  H   H72       1.0  0.18093  0.03733  0.56525  1.0000
  H   H73       1.0  0.25260  0.07349  0.56495  1.0000
  C   C116      1.0  0.91331  0.10854  0.40370  1.0000
  C   C117      1.0  0.89207  0.12894  0.40183  1.0000
  H   H74       1.0  0.88893  0.14000  0.46161  1.0000
  H   H75       1.0  0.92428  0.10630  0.46450  1.0000
  C   C118      1.0  0.86677  0.05720  0.60098  1.0000
  C   C119      1.0  0.84574  0.07778  0.59895  1.0000
  H   H76       1.0  0.86644  0.04123  0.54614  1.0000
  H   H77       1.0  0.83013  0.07665  0.54270  1.0000
  C   C120      1.0  0.89501  0.80952  0.41903  1.0000
  C   C121      1.0  0.87313  0.76785  0.41805  1.0000
  H   H78       1.0  0.85905  0.75370  0.47609  1.0000
  H   H79       1.0  0.89665  0.82320  0.47884  1.0000
  C   C122      1.0  0.94667  0.80967  0.61701  1.0000
  C   C123      1.0  0.92707  0.76808  0.61790  1.0000
  H   H80       1.0  0.96112  0.82477  0.56022  1.0000
  H   H81       1.0  0.92730  0.75310  0.56171  1.0000
  C   C124      1.0  0.62607  0.17838  0.35718  1.0000
  C   C125      1.0  0.60077  0.16911  0.43282  1.0000
  C   C126      1.0  0.56512  0.17090  0.42830  1.0000
  C   C127      1.0  0.55273  0.18082  0.34672  1.0000
  N   N11       1.0  0.54379  0.16294  0.50573  1.0000
  C   C128      1.0  0.55308  0.15199  0.58444  1.0000
  C   C129      1.0  0.58759  0.14886  0.58727  1.0000
  N   N12       1.0  0.60986  0.15777  0.51175  1.0000
  C   C130      1.0  0.52880  0.14257  0.66108  1.0000
  H   H82       1.0  0.50358  0.14436  0.65913  1.0000
  C   C131      1.0  0.82200  0.45337  0.30956  1.0000
  C   C132      1.0  0.82993  0.43774  0.38844  1.0000
  C   C133      1.0  0.83005  0.40115  0.38694  1.0000
  C   C134      1.0  0.82242  0.37854  0.30639  1.0000
  N   N13       1.0  0.83807  0.38889  0.46594  1.0000
  C   C135      1.0  0.84720  0.40924  0.54434  1.0000
  C   C136      1.0  0.84720  0.44537  0.54561  1.0000
  N   N14       1.0  0.83797  0.45734  0.46841  1.0000
  C   C137      1.0  0.85890  0.39659  0.62118  1.0000
  C   C138      1.0  0.85885  0.46888  0.62381  1.0000
  H   H83       1.0  0.85971  0.37084  0.61996  1.0000
  H   H84       1.0  0.85974  0.49549  0.62441  1.0000
  C   C139      1.0  0.54872  0.38158  0.39017  1.0000
  C   C140      1.0  0.56157  0.40649  0.46712  1.0000
  C   C141      1.0  0.59809  0.44305  0.46684  1.0000
  C   C142      1.0  0.62270  0.45578  0.38944  1.0000
  N   N15       1.0  0.60852  0.46543  0.54302  1.0000
  C   C143      1.0  0.58638  0.45482  0.61910  1.0000
  C   C144      1.0  0.55012  0.41861  0.61934  1.0000
  N   N16       1.0  0.53936  0.39631  0.54353  1.0000
