data_image0
_chemical_formula_structural       COCHC2NCH2C4NOCHC2NOCHCNC21H13C24H15C4NOCHC4NOCHC2OCH
_chemical_formula_sum              "C72 O6 H36 N6"
_cell_length_a       30.0035
_cell_length_b       30.0035
_cell_length_c       14.8411
_cell_angle_alpha    90
_cell_angle_beta     90
_cell_angle_gamma    120

_space_group_name_H-M_alt    "P 1"
_space_group_IT_number       1

loop_
  _space_group_symop_operation_xyz
  'x, y, z'

loop_
  _atom_site_type_symbol
  _atom_site_label
  _atom_site_symmetry_multiplicity
  _atom_site_fract_x
  _atom_site_fract_y
  _atom_site_fract_z
  _atom_site_occupancy
  C   C1        1.0  0.03659  0.52933  0.26726  1.0000
  O   O1        1.0  0.05688  0.54842  0.18448  1.0000
  C   C2        1.0  0.01320  0.53232  0.13468  1.0000
  H   H1        1.0  0.01408  0.54068  0.06783  1.0000
  C   C3        1.0  0.03337  0.50866  0.42376  1.0000
  C   C4        1.0  0.06424  0.53365  0.34740  1.0000
  N   N1        1.0  0.04693  0.50625  0.50831  1.0000
  C   C5        1.0  0.11940  0.56143  0.35073  1.0000
  H   H2        1.0  0.12816  0.50730  0.43004  1.0000
  H   H3        1.0  0.13043  0.62549  0.27239  1.0000
  C   C6        1.0  0.14716  0.54217  0.39819  1.0000
  C   C7        1.0  0.14846  0.60927  0.30632  1.0000
  C   C8        1.0  0.48463  0.50965  0.26626  1.0000
  C   C9        1.0  0.51178  0.48288  0.26558  1.0000
  N   N2        1.0  0.50985  0.46645  0.18150  1.0000
  O   O2        1.0  0.46615  0.51052  0.18274  1.0000
  C   C10       1.0  0.48247  0.48261  0.13449  1.0000
  H   H4        1.0  0.47434  0.47460  0.06769  1.0000
  C   C11       1.0  0.48415  0.97727  0.26681  1.0000
  C   C12       1.0  0.51124  0.03118  0.26531  1.0000
  N   N3        1.0  0.50885  0.04527  0.18113  1.0000
  O   O3        1.0  0.46519  0.95749  0.18372  1.0000
  C   C13       1.0  0.48119  0.00148  0.13487  1.0000
  H   H5        1.0  0.47298  0.00103  0.06803  1.0000
  C   C14       1.0  0.98270  0.50209  0.26467  1.0000
  N   N4        1.0  0.96913  0.50449  0.18010  1.0000
  C   C15       1.0  0.28608  0.64458  0.35645  1.0000
  C   C16       1.0  0.31438  0.61835  0.35336  1.0000
  C   C17       1.0  0.36890  0.64441  0.35018  1.0000
  C   C18       1.0  0.39507  0.69895  0.34857  1.0000
  C   C19       1.0  0.36907  0.72740  0.35328  1.0000
  C   C20       1.0  0.31464  0.69909  0.35832  1.0000
  C   C21       1.0  0.39670  0.61673  0.34839  1.0000
  C   C22       1.0  0.37789  0.56960  0.30123  1.0000
  C   C23       1.0  0.40476  0.54226  0.30094  1.0000
  C   C24       1.0  0.45225  0.56102  0.34665  1.0000
  C   C25       1.0  0.47129  0.60822  0.39342  1.0000
  C   C26       1.0  0.44401  0.63515  0.39484  1.0000
  C   C27       1.0  0.23059  0.61714  0.35602  1.0000
  C   C28       1.0  0.20135  0.56949  0.40123  1.0000
  C   C29       1.0  0.20265  0.63618  0.30824  1.0000
  C   C30       1.0  0.39676  0.78284  0.35198  1.0000
  C   C31       1.0  0.37739  0.81094  0.30571  1.0000
  C   C32       1.0  0.40431  0.86513  0.30449  1.0000
  C   C33       1.0  0.45235  0.89399  0.34843  1.0000
  C   C34       1.0  0.47192  0.86606  0.39438  1.0000
  C   C35       1.0  0.44467  0.81185  0.39651  1.0000
  H   H6        1.0  0.21924  0.55409  0.43794  1.0000
  H   H7        1.0  0.22151  0.66981  0.27264  1.0000
  H   H8        1.0  0.34345  0.79217  0.27096  1.0000
  H   H9        1.0  0.38790  0.88334  0.27169  1.0000
  H   H10       1.0  0.46022  0.79375  0.43221  1.0000
  H   H11       1.0  0.50690  0.88494  0.42590  1.0000
  H   H12       1.0  0.45910  0.66843  0.43155  1.0000
  H   H13       1.0  0.50586  0.62407  0.42628  1.0000
  H   H14       1.0  0.38867  0.50785  0.26752  1.0000
  H   H15       1.0  0.34441  0.55470  0.26520  1.0000
  H   H16       1.0  0.29464  0.57903  0.35307  1.0000
  H   H17       1.0  0.29519  0.71879  0.36556  1.0000
  H   H18       1.0  0.43419  0.71853  0.34090  1.0000
  C   C36       1.0  0.72998  0.36614  0.33198  1.0000
  C   C37       1.0  0.70169  0.39236  0.33509  1.0000
  C   C38       1.0  0.64716  0.36630  0.33826  1.0000
  C   C39       1.0  0.62099  0.31176  0.33988  1.0000
  C   C40       1.0  0.64699  0.28331  0.33516  1.0000
  C   C41       1.0  0.70143  0.31163  0.33011  1.0000
  C   C42       1.0  0.61936  0.39398  0.34007  1.0000
  C   C43       1.0  0.63816  0.44110  0.38724  1.0000
  C   C44       1.0  0.61128  0.46843  0.38754  1.0000
  C   C45       1.0  0.56381  0.44967  0.34182  1.0000
  C   C46       1.0  0.54477  0.40249  0.29502  1.0000
  C   C47       1.0  0.57205  0.37556  0.29361  1.0000
  C   C48       1.0  0.78547  0.39358  0.33240  1.0000
  C   C49       1.0  0.81471  0.44123  0.28721  1.0000
  C   C50       1.0  0.86891  0.46856  0.29024  1.0000
  C   C51       1.0  0.89667  0.44930  0.33768  1.0000
  C   C52       1.0  0.86761  0.40144  0.38207  1.0000
  C   C53       1.0  0.81342  0.37453  0.38015  1.0000
  C   C54       1.0  0.61931  0.22787  0.33645  1.0000
  C   C55       1.0  0.63869  0.19978  0.38270  1.0000
  C   C56       1.0  0.61176  0.14559  0.38394  1.0000
  C   C57       1.0  0.56373  0.11672  0.34001  1.0000
  C   C58       1.0  0.54416  0.14466  0.29404  1.0000
  C   C59       1.0  0.57140  0.19886  0.29192  1.0000
  H   H19       1.0  0.88790  0.50343  0.25841  1.0000
  H   H20       1.0  0.79683  0.45664  0.25052  1.0000
  H   H21       1.0  0.88565  0.38523  0.41598  1.0000
  H   H22       1.0  0.79456  0.34090  0.41575  1.0000
  H   H23       1.0  0.67262  0.21855  0.41749  1.0000
  H   H24       1.0  0.62816  0.12738  0.41677  1.0000
  H   H25       1.0  0.55584  0.21696  0.25625  1.0000
  H   H26       1.0  0.50916  0.12577  0.26256  1.0000
  H   H27       1.0  0.55697  0.34229  0.25688  1.0000
  H   H28       1.0  0.51021  0.38664  0.26215  1.0000
  H   H29       1.0  0.62738  0.50285  0.42095  1.0000
  H   H30       1.0  0.67164  0.45600  0.42327  1.0000
  H   H31       1.0  0.72142  0.43168  0.33538  1.0000
  H   H32       1.0  0.72088  0.29193  0.32286  1.0000
  H   H33       1.0  0.58187  0.29218  0.34755  1.0000
  C   C60       1.0  0.53617  0.47724  0.34307  1.0000
  C   C61       1.0  0.53138  0.50101  0.42223  1.0000
  C   C62       1.0  0.50426  0.52781  0.42288  1.0000
  C   C63       1.0  0.47987  0.53345  0.34539  1.0000
  N   N5        1.0  0.50623  0.54428  0.50695  1.0000
  O   O4        1.0  0.54991  0.50019  0.50572  1.0000
  C   C64       1.0  0.53361  0.52811  0.55396  1.0000
  H   H34       1.0  0.54180  0.53619  0.62073  1.0000
  C   C65       1.0  0.53610  0.06156  0.34219  1.0000
  C   C66       1.0  0.53193  0.03344  0.42163  1.0000
  C   C67       1.0  0.50486  0.97954  0.42312  1.0000
  C   C68       1.0  0.47997  0.94915  0.34624  1.0000
  N   N6        1.0  0.50720  0.96545  0.50732  1.0000
  O   O5        1.0  0.55086  0.05322  0.50474  1.0000
  C   C69       1.0  0.53485  0.00924  0.55359  1.0000
  H   H35       1.0  0.54301  0.00969  0.62045  1.0000
  C   C70       1.0  0.95183  0.47708  0.34101  1.0000
  C   C71       1.0  0.97947  0.48137  0.42114  1.0000
  O   O6        1.0  0.95919  0.46229  0.50392  1.0000
  C   C72       1.0  0.00286  0.47843  0.55373  1.0000
  H   H36       1.0  0.00199  0.47000  0.62056  1.0000
