data_image0
_chemical_formula_structural       C3NC3NC5NC5NC36H26N4C3NC3NC5NC5NC36H26N4C3NC3NC5NC5NC36H26N4C3H2CHC3H2CHC3H2CHC3H2CHC3H2CHC3H2CHC16H16C16H16C16H16C3H2CHC3H2CHC3H2CHC3H2CHC3H2CHC3H2CH
_chemical_formula_sum              "C252 N24 H162"
_cell_length_a       67.6367
_cell_length_b       67.6368
_cell_length_c       14.8985
_cell_angle_alpha    89.8354
_cell_angle_beta     90.1646
_cell_angle_gamma    120

_space_group_name_H-M_alt    "P 1"
_space_group_IT_number       1

loop_
  _space_group_symop_operation_xyz
  'x, y, z'

loop_
  _atom_site_type_symbol
  _atom_site_label
  _atom_site_symmetry_multiplicity
  _atom_site_fract_x
  _atom_site_fract_y
  _atom_site_fract_z
  _atom_site_occupancy
  C   C1        1.0  0.04708  0.50659  0.31848  1.0000
  C   C2        1.0  0.02349  0.49466  0.31952  1.0000
  C   C3        1.0  0.01585  0.51041  0.31993  1.0000
  N   N1        1.0  0.03505  0.53122  0.31935  1.0000
  C   C4        1.0  0.05443  0.52992  0.31859  1.0000
  C   C5        1.0  0.07765  0.54775  0.31809  1.0000
  C   C6        1.0  0.08492  0.57144  0.31884  1.0000
  N   N2        1.0  0.07189  0.58143  0.31937  1.0000
  C   C7        1.0  0.08466  0.60448  0.32030  1.0000
  C   C8        1.0  0.10739  0.60959  0.32037  1.0000
  C   C9        1.0  0.10755  0.58928  0.31939  1.0000
  C   C10       1.0  0.07706  0.62064  0.32092  1.0000
  C   C11       1.0  0.05375  0.61494  0.32007  1.0000
  N   N3        1.0  0.03455  0.59412  0.31940  1.0000
  C   C12       1.0  0.01518  0.59543  0.31860  1.0000
  C   C13       1.0  0.02252  0.61875  0.31857  1.0000
  C   C14       1.0  0.04611  0.63069  0.31970  1.0000
  C   C15       1.0  0.99196  0.57760  0.31802  1.0000
  C   C16       1.0  0.98468  0.55391  0.31872  1.0000
  N   N4        1.0  0.99771  0.54392  0.31915  1.0000
  C   C17       1.0  0.98494  0.52088  0.32014  1.0000
  C   C18       1.0  0.96221  0.51577  0.32039  1.0000
  C   C19       1.0  0.96205  0.53608  0.31942  1.0000
  C   C20       1.0  0.99254  0.50471  0.32072  1.0000
  C   C21       1.0  0.97535  0.48114  0.32276  1.0000
  C   C22       1.0  0.93717  0.43557  0.32723  1.0000
  C   C23       1.0  0.94683  0.44672  0.24476  1.0000
  C   C24       1.0  0.96553  0.46916  0.24240  1.0000
  C   C25       1.0  0.91725  0.41324  0.32939  1.0000
  C   C26       1.0  0.91449  0.39585  0.26917  1.0000
  C   C27       1.0  0.89468  0.37411  0.27026  1.0000
  C   C28       1.0  0.87679  0.36897  0.33148  1.0000
  C   C29       1.0  0.97456  0.58369  0.31647  1.0000
  C   C30       1.0  0.93652  0.59132  0.31379  1.0000
  C   C31       1.0  0.94601  0.58858  0.23321  1.0000
  C   C32       1.0  0.96467  0.58478  0.23437  1.0000
  C   C33       1.0  0.91680  0.59409  0.31265  1.0000
  C   C34       1.0  0.87695  0.59895  0.31190  1.0000
  C   C35       1.0  0.87882  0.58371  0.25282  1.0000
  C   C36       1.0  0.89830  0.58124  0.25346  1.0000
  C   C37       1.0  0.09424  0.64421  0.32303  1.0000
  C   C38       1.0  0.10369  0.65640  0.24268  1.0000
  C   C39       1.0  0.12225  0.67892  0.24502  1.0000
  C   C40       1.0  0.13210  0.68995  0.32744  1.0000
  C   C41       1.0  0.15182  0.71241  0.32952  1.0000
  C   C42       1.0  0.19181  0.75703  0.33171  1.0000
  C   C43       1.0  0.17366  0.75176  0.27132  1.0000
  C   C44       1.0  0.15408  0.72985  0.27018  1.0000
  C   C45       1.0  0.09506  0.54168  0.31656  1.0000
  C   C46       1.0  0.10479  0.54053  0.23441  1.0000
  C   C47       1.0  0.13340  0.53454  0.31379  1.0000
  C   C48       1.0  0.12359  0.53696  0.23321  1.0000
  C   C49       1.0  0.15332  0.53211  0.31260  1.0000
  C   C50       1.0  0.17161  0.54505  0.25277  1.0000
  C   C51       1.0  0.19131  0.54295  0.25216  1.0000
  C   C52       1.0  0.19363  0.52803  0.31193  1.0000
  H   H1        1.0  0.20418  0.55272  0.20821  1.0000
  H   H2        1.0  0.17102  0.55658  0.20989  1.0000
  H   H3        1.0  0.13014  0.53626  0.17228  1.0000
  H   H4        1.0  0.09856  0.54280  0.17492  1.0000
  H   H5        1.0  0.05705  0.49918  0.31806  1.0000
  H   H6        1.0  0.01371  0.47726  0.31970  1.0000
  H   H7        1.0  0.03494  0.54536  0.31968  1.0000
  H   H8        1.0  0.03466  0.57999  0.31967  1.0000
  H   H9        1.0  0.12200  0.58804  0.31936  1.0000
  H   H10       1.0  0.12170  0.62538  0.32089  1.0000
  H   H11       1.0  0.09757  0.64871  0.18188  1.0000
  H   H12       1.0  0.12915  0.68684  0.18529  1.0000
  H   H13       1.0  0.05589  0.64809  0.31995  1.0000
  H   H14       1.0  0.01255  0.62617  0.31811  1.0000
  H   H15       1.0  0.94790  0.49998  0.32108  1.0000
  H   H16       1.0  0.94760  0.53732  0.31959  1.0000
  H   H17       1.0  0.97069  0.58235  0.17491  1.0000
  H   H18       1.0  0.93936  0.58927  0.17231  1.0000
  H   H19       1.0  0.89857  0.56950  0.21109  1.0000
  H   H20       1.0  0.86579  0.57402  0.20930  1.0000
  H   H21       1.0  0.97147  0.47697  0.18161  1.0000
  H   H22       1.0  0.93965  0.43899  0.18507  1.0000
  H   H23       1.0  0.89357  0.36201  0.22634  1.0000
  H   H24       1.0  0.92711  0.39872  0.22451  1.0000
  H   H25       1.0  0.14124  0.72688  0.22624  1.0000
  H   H26       1.0  0.17441  0.76387  0.22812  1.0000
  N   N5        1.0  0.85754  0.34882  0.33703  1.0000
  N   N6        1.0  0.21278  0.52694  0.30686  1.0000
  N   N7        1.0  0.21086  0.77734  0.33728  1.0000
  N   N8        1.0  0.85801  0.60043  0.30673  1.0000
  C   C53       1.0  0.59250  0.63424  0.32069  1.0000
  C   C54       1.0  0.60443  0.62257  0.32166  1.0000
  C   C55       1.0  0.58868  0.59918  0.32203  1.0000
  N   N9        1.0  0.56786  0.59758  0.32151  1.0000
  C   C56       1.0  0.56917  0.61826  0.32077  1.0000
  C   C57       1.0  0.55134  0.62365  0.32026  1.0000
  C   C58       1.0  0.52765  0.60723  0.32096  1.0000
  N   N10       1.0  0.51765  0.58421  0.32150  1.0000
  C   C59       1.0  0.49461  0.57394  0.32236  1.0000
  C   C60       1.0  0.48950  0.59156  0.32238  1.0000
  C   C61       1.0  0.50981  0.61203  0.32145  1.0000
  C   C62       1.0  0.47844  0.55018  0.32295  1.0000
  C   C63       1.0  0.48414  0.53257  0.32214  1.0000
  N   N11       1.0  0.50496  0.53418  0.32150  1.0000
  C   C64       1.0  0.50365  0.51350  0.32074  1.0000
  C   C65       1.0  0.48032  0.49752  0.32070  1.0000
  C   C66       1.0  0.46839  0.50918  0.32182  1.0000
  C   C67       1.0  0.52148  0.50811  0.32017  1.0000
  C   C68       1.0  0.54517  0.52451  0.32084  1.0000
  N   N12       1.0  0.55516  0.54754  0.32127  1.0000
  C   C69       1.0  0.57820  0.55781  0.32218  1.0000
  C   C70       1.0  0.58331  0.54019  0.32236  1.0000
  C   C71       1.0  0.56300  0.51971  0.32148  1.0000
  C   C72       1.0  0.59437  0.58157  0.32273  1.0000
  C   C73       1.0  0.61794  0.58795  0.32462  1.0000
  C   C74       1.0  0.66352  0.59535  0.32870  1.0000
  C   C75       1.0  0.65233  0.59397  0.24633  1.0000
  C   C76       1.0  0.62990  0.59026  0.24415  1.0000
  C   C77       1.0  0.68585  0.59775  0.33065  1.0000
  C   C78       1.0  0.70321  0.61249  0.27038  1.0000
  C   C79       1.0  0.72496  0.61443  0.27123  1.0000
  C   C80       1.0  0.73013  0.60157  0.33227  1.0000
  C   C81       1.0  0.51538  0.48461  0.31864  1.0000
  C   C82       1.0  0.50776  0.43895  0.31599  1.0000
  C   C83       1.0  0.51048  0.45128  0.23541  1.0000
  C   C84       1.0  0.51427  0.47373  0.23655  1.0000
  C   C85       1.0  0.50499  0.41647  0.31487  1.0000
  C   C86       1.0  0.50013  0.37176  0.31413  1.0000
  C   C87       1.0  0.51536  0.38893  0.25501  1.0000
  C   C88       1.0  0.51784  0.41089  0.25569  1.0000
  C   C89       1.0  0.45487  0.54378  0.32491  1.0000
  C   C90       1.0  0.44270  0.54111  0.24447  1.0000
  C   C91       1.0  0.42019  0.53716  0.24663  1.0000
  C   C92       1.0  0.40913  0.53589  0.32895  1.0000
  C   C93       1.0  0.38666  0.53313  0.33083  1.0000
  C   C94       1.0  0.34205  0.52851  0.33248  1.0000
  C   C95       1.0  0.34734  0.51568  0.27234  1.0000
  C   C96       1.0  0.36925  0.51801  0.27148  1.0000
  C   C97       1.0  0.55741  0.64714  0.31874  1.0000
  C   C98       1.0  0.55856  0.65812  0.23659  1.0000
  C   C99       1.0  0.56456  0.69263  0.31600  1.0000
  C   C100      1.0  0.56213  0.68050  0.23541  1.0000
  C   C101      1.0  0.56698  0.71497  0.31482  1.0000
  C   C102      1.0  0.55404  0.72040  0.25499  1.0000
  C   C103      1.0  0.55613  0.74219  0.25438  1.0000
  C   C104      1.0  0.57106  0.75936  0.31415  1.0000
  H   H27       1.0  0.54637  0.74535  0.21042  1.0000
  H   H28       1.0  0.54250  0.70833  0.21211  1.0000
  H   H29       1.0  0.56284  0.68782  0.17448  1.0000
  H   H30       1.0  0.55629  0.64970  0.17711  1.0000
  H   H31       1.0  0.59991  0.65162  0.32021  1.0000
  H   H32       1.0  0.62183  0.63019  0.32176  1.0000
  H   H33       1.0  0.55372  0.58333  0.32176  1.0000
  H   H34       1.0  0.51909  0.54843  0.32176  1.0000
  H   H35       1.0  0.51105  0.62772  0.32139  1.0000
  H   H36       1.0  0.47371  0.59008  0.32283  1.0000
  H   H37       1.0  0.45041  0.54273  0.18372  1.0000
  H   H38       1.0  0.41227  0.53616  0.18683  1.0000
  H   H39       1.0  0.45099  0.50156  0.32204  1.0000
  H   H40       1.0  0.47290  0.48013  0.32028  1.0000
  H   H41       1.0  0.59910  0.54166  0.32297  1.0000
  H   H42       1.0  0.56175  0.50402  0.32158  1.0000
  H   H43       1.0  0.51670  0.48226  0.17708  1.0000
  H   H44       1.0  0.50979  0.44401  0.17451  1.0000
  H   H45       1.0  0.52956  0.42294  0.21327  1.0000
  H   H46       1.0  0.52506  0.38566  0.21150  1.0000
  H   H47       1.0  0.62207  0.58848  0.18343  1.0000
  H   H48       1.0  0.66006  0.59466  0.18657  1.0000
  H   H49       1.0  0.73704  0.62548  0.22731  1.0000
  H   H50       1.0  0.70033  0.62232  0.22590  1.0000
  H   H51       1.0  0.37223  0.50818  0.22766  1.0000
  H   H52       1.0  0.33524  0.50435  0.22912  1.0000
  N   N13       1.0  0.75028  0.60247  0.33755  1.0000
  N   N14       1.0  0.57215  0.77960  0.30907  1.0000
  N   N15       1.0  0.32172  0.52723  0.33781  1.0000
  N   N16       1.0  0.49866  0.35135  0.30897  1.0000
  C   C105      1.0  0.46484  0.05199  0.32209  1.0000
  C   C106      1.0  0.47650  0.07559  0.32319  1.0000
  C   C107      1.0  0.49989  0.08323  0.32368  1.0000
  N   N17       1.0  0.50150  0.06403  0.32313  1.0000
  C   C108      1.0  0.48082  0.04465  0.32224  1.0000
  C   C109      1.0  0.47544  0.02143  0.32168  1.0000
  C   C110      1.0  0.49185  0.01416  0.32252  1.0000
  N   N18       1.0  0.51488  0.02719  0.32314  1.0000
  C   C111      1.0  0.52516  0.01442  0.32412  1.0000
  C   C112      1.0  0.50754  0.99169  0.32415  1.0000
  C   C113      1.0  0.48706  0.99153  0.32305  1.0000
  C   C114      1.0  0.54891  0.02202  0.32474  1.0000
  C   C115      1.0  0.56652  0.04533  0.32381  1.0000
  N   N19       1.0  0.56490  0.06453  0.32313  1.0000
  C   C116      1.0  0.58558  0.08391  0.32221  1.0000
  C   C117      1.0  0.60157  0.07657  0.32211  1.0000
  C   C118      1.0  0.58991  0.05297  0.32334  1.0000
  C   C119      1.0  0.59097  0.10713  0.32159  1.0000
  C   C120      1.0  0.57456  0.11440  0.32239  1.0000
  N   N20       1.0  0.55154  0.10137  0.32291  1.0000
  C   C121      1.0  0.54126  0.11414  0.32391  1.0000
  C   C122      1.0  0.55888  0.13687  0.32409  1.0000
  C   C123      1.0  0.57936  0.13703  0.32307  1.0000
  C   C124      1.0  0.51750  0.10654  0.32451  1.0000
  C   C125      1.0  0.51112  0.12373  0.32644  1.0000
  C   C126      1.0  0.50372  0.16189  0.33067  1.0000
  C   C127      1.0  0.50508  0.15220  0.24827  1.0000
  C   C128      1.0  0.50880  0.13348  0.24601  1.0000
  C   C129      1.0  0.50131  0.18182  0.33269  1.0000
  C   C130      1.0  0.48657  0.18454  0.27248  1.0000
  C   C131      1.0  0.48463  0.20434  0.27338  1.0000
  C   C132      1.0  0.49751  0.22228  0.33438  1.0000
  C   C133      1.0  0.61446  0.12453  0.31976  1.0000
  C   C134      1.0  0.66012  0.16256  0.31646  1.0000
  C   C135      1.0  0.64772  0.15303  0.23604  1.0000
  C   C136      1.0  0.62527  0.13437  0.23751  1.0000
  C   C137      1.0  0.68260  0.18227  0.31499  1.0000
  C   C138      1.0  0.72732  0.22212  0.31353  1.0000
  C   C139      1.0  0.71008  0.22023  0.25470  1.0000
  C   C140      1.0  0.68813  0.20075  0.25570  1.0000
  C   C141      1.0  0.55532  0.00485  0.32679  1.0000
  C   C142      1.0  0.55800  0.99545  0.24638  1.0000
  C   C143      1.0  0.56195  0.97688  0.24859  1.0000
  C   C144      1.0  0.56321  0.96699  0.33095  1.0000
  C   C145      1.0  0.56596  0.94727  0.33287  1.0000
  C   C146      1.0  0.57056  0.90726  0.33461  1.0000
  C   C147      1.0  0.58340  0.92546  0.27443  1.0000
  C   C148      1.0  0.58107  0.94505  0.27352  1.0000
  C   C149      1.0  0.45195  0.00402  0.31988  1.0000
  C   C150      1.0  0.44104  0.99433  0.23757  1.0000
  C   C151      1.0  0.40647  0.96567  0.31647  1.0000
  C   C152      1.0  0.41867  0.97552  0.23606  1.0000
  C   C153      1.0  0.38413  0.94575  0.31495  1.0000
  C   C154      1.0  0.37875  0.92749  0.25503  1.0000
  C   C155      1.0  0.35696  0.90779  0.25410  1.0000
  C   C156      1.0  0.33973  0.90545  0.31357  1.0000
  H   H53       1.0  0.35384  0.89495  0.21006  1.0000
  H   H54       1.0  0.39087  0.92810  0.21235  1.0000
  H   H55       1.0  0.41140  0.96900  0.17502  1.0000
  H   H56       1.0  0.44952  0.00058  0.17821  1.0000
  H   H57       1.0  0.44746  0.04202  0.32155  1.0000
  H   H58       1.0  0.46888  0.08537  0.32332  1.0000
  H   H59       1.0  0.51575  0.06414  0.32350  1.0000
  H   H60       1.0  0.55066  0.06442  0.32350  1.0000
  H   H61       1.0  0.47138  0.97708  0.32297  1.0000
  H   H62       1.0  0.50902  0.97738  0.32463  1.0000
  H   H63       1.0  0.55636  0.00158  0.18561  1.0000
  H   H64       1.0  0.56292  0.97002  0.18881  1.0000
  H   H65       1.0  0.59754  0.04320  0.32359  1.0000
  H   H66       1.0  0.61895  0.08654  0.32160  1.0000
  H   H67       1.0  0.55741  0.15118  0.32476  1.0000
  H   H68       1.0  0.59505  0.15148  0.32315  1.0000
  H   H69       1.0  0.61669  0.12831  0.17817  1.0000
  H   H70       1.0  0.65493  0.15964  0.17504  1.0000
  H   H71       1.0  0.67603  0.20046  0.21351  1.0000
  H   H72       1.0  0.71331  0.23323  0.21114  1.0000
  H   H73       1.0  0.51057  0.12752  0.18526  1.0000
  H   H74       1.0  0.50439  0.15932  0.18853  1.0000
  H   H75       1.0  0.47357  0.20542  0.22949  1.0000
  H   H76       1.0  0.47673  0.17187  0.22800  1.0000
  H   H77       1.0  0.59091  0.95791  0.22970  1.0000
  H   H78       1.0  0.59473  0.92474  0.23123  1.0000
  N   N21       1.0  0.49661  0.24154  0.33971  1.0000
  N   N22       1.0  0.31949  0.88631  0.30816  1.0000
  N   N23       1.0  0.57183  0.88821  0.33994  1.0000
  N   N24       1.0  0.74772  0.24106  0.30803  1.0000
  C   C157      1.0  0.28487  0.52060  0.30361  1.0000
  C   C158      1.0  0.27077  0.52074  0.23343  1.0000
  C   C159      1.0  0.25033  0.52073  0.25168  1.0000
  H   H79       1.0  0.27520  0.52075  0.16776  1.0000
  H   H80       1.0  0.24058  0.52055  0.19870  1.0000
  C   C160      1.0  0.30467  0.51995  0.28340  1.0000
  H   H81       1.0  0.30589  0.51426  0.22332  1.0000
  C   C161      1.0  0.57846  0.85803  0.30576  1.0000
  C   C162      1.0  0.57834  0.84388  0.23559  1.0000
  C   C163      1.0  0.57835  0.82343  0.25386  1.0000
  H   H82       1.0  0.57833  0.84839  0.16993  1.0000
  H   H83       1.0  0.57855  0.81393  0.20088  1.0000
  C   C164      1.0  0.57911  0.87850  0.28554  1.0000
  H   H84       1.0  0.58482  0.88549  0.22549  1.0000
  C   C165      1.0  0.24106  0.81422  0.30358  1.0000
  C   C166      1.0  0.25528  0.82837  0.23363  1.0000
  C   C167      1.0  0.27571  0.84880  0.25221  1.0000
  H   H85       1.0  0.25083  0.82397  0.16790  1.0000
  H   H86       1.0  0.28526  0.85859  0.19939  1.0000
  C   C168      1.0  0.22061  0.79443  0.28305  1.0000
  H   H87       1.0  0.21366  0.79326  0.22292  1.0000
  C   C169      1.0  0.78680  0.60832  0.30313  1.0000
  C   C170      1.0  0.80064  0.60782  0.23298  1.0000
  C   C171      1.0  0.82090  0.60744  0.25126  1.0000
  H   H88       1.0  0.79613  0.60783  0.16731  1.0000
  H   H89       1.0  0.83046  0.60736  0.19830  1.0000
  C   C172      1.0  0.76718  0.60935  0.28285  1.0000
  H   H90       1.0  0.76596  0.61500  0.22252  1.0000
  C   C173      1.0  0.49077  0.27225  0.30531  1.0000
  C   C174      1.0  0.49127  0.28668  0.23519  1.0000
  C   C175      1.0  0.49166  0.30731  0.25348  1.0000
  H   H91       1.0  0.49125  0.28225  0.16951  1.0000
  H   H92       1.0  0.49173  0.31701  0.20052  1.0000
  C   C176      1.0  0.48973  0.25163  0.28502  1.0000
  H   H93       1.0  0.48408  0.24484  0.22468  1.0000
  C   C177      1.0  0.82681  0.31227  0.30311  1.0000
  C   C178      1.0  0.81232  0.29839  0.23320  1.0000
  C   C179      1.0  0.79171  0.27814  0.25181  1.0000
  H   H94       1.0  0.81668  0.30286  0.16745  1.0000
  H   H95       1.0  0.78196  0.26855  0.19901  1.0000
  C   C180      1.0  0.84741  0.33188  0.28251  1.0000
  H   H96       1.0  0.85416  0.33306  0.22211  1.0000
  C   C181      1.0  0.96619  0.47008  0.40536  1.0000
  C   C182      1.0  0.94747  0.44767  0.40738  1.0000
  C   C183      1.0  0.87954  0.38610  0.39236  1.0000
  C   C184      1.0  0.89932  0.40783  0.39109  1.0000
  C   C185      1.0  0.96551  0.58672  0.39718  1.0000
  C   C186      1.0  0.94685  0.59054  0.39569  1.0000
  C   C187      1.0  0.91492  0.60955  0.37114  1.0000
  C   C188      1.0  0.89541  0.61201  0.37072  1.0000
  C   C189      1.0  0.12217  0.67762  0.40761  1.0000
  C   C190      1.0  0.10360  0.65512  0.40562  1.0000
  C   C191      1.0  0.17002  0.71795  0.39034  1.0000
  C   C192      1.0  0.18956  0.73985  0.39167  1.0000
  C   C193      1.0  0.10441  0.53893  0.39729  1.0000
  C   C194      1.0  0.12321  0.53533  0.39576  1.0000
  C   C195      1.0  0.17539  0.51488  0.37139  1.0000
  C   C196      1.0  0.15566  0.51696  0.37178  1.0000
  H   H97       1.0  0.17617  0.50349  0.41435  1.0000
  H   H98       1.0  0.14275  0.50688  0.41498  1.0000
  H   H99       1.0  0.13000  0.53429  0.45580  1.0000
  H   H100      1.0  0.09805  0.54024  0.45784  1.0000
  H   H101      1.0  0.09729  0.64657  0.46485  1.0000
  H   H102      1.0  0.12848  0.68489  0.46883  1.0000
  H   H103      1.0  0.97201  0.58548  0.45771  1.0000
  H   H104      1.0  0.94029  0.59182  0.45575  1.0000
  H   H105      1.0  0.89495  0.62361  0.41312  1.0000
  H   H106      1.0  0.92800  0.61958  0.41385  1.0000
  H   H107      1.0  0.90020  0.41990  0.43477  1.0000
  H   H108      1.0  0.86693  0.38297  0.43759  1.0000
  H   H109      1.0  0.94131  0.44030  0.46862  1.0000
  H   H110      1.0  0.97273  0.47849  0.46462  1.0000
  H   H111      1.0  0.16948  0.70588  0.43338  1.0000
  H   H112      1.0  0.20237  0.74307  0.43627  1.0000
  C   C197      1.0  0.62902  0.58972  0.40713  1.0000
  C   C198      1.0  0.65144  0.59341  0.40896  1.0000
  C   C199      1.0  0.71302  0.58710  0.39318  1.0000
  C   C200      1.0  0.69128  0.58513  0.39210  1.0000
  C   C201      1.0  0.51238  0.47245  0.39937  1.0000
  C   C202      1.0  0.50855  0.44997  0.39789  1.0000
  C   C203      1.0  0.48953  0.39905  0.37337  1.0000
  C   C204      1.0  0.48708  0.37709  0.37296  1.0000
  C   C205      1.0  0.42143  0.53823  0.40922  1.0000
  C   C206      1.0  0.44394  0.54216  0.40741  1.0000
  C   C207      1.0  0.38109  0.54573  0.39144  1.0000
  C   C208      1.0  0.35919  0.54338  0.39251  1.0000
  C   C209      1.0  0.56016  0.65913  0.39948  1.0000
  C   C210      1.0  0.56376  0.68153  0.39796  1.0000
  C   C211      1.0  0.58420  0.75419  0.37360  1.0000
  C   C212      1.0  0.58213  0.73239  0.37401  1.0000
  H   H113      1.0  0.59559  0.76631  0.41657  1.0000
  H   H114      1.0  0.59221  0.72951  0.41720  1.0000
  H   H115      1.0  0.56479  0.68929  0.45799  1.0000
  H   H116      1.0  0.55884  0.65138  0.46002  1.0000
  H   H117      1.0  0.45247  0.54436  0.46670  1.0000
  H   H118      1.0  0.41414  0.53720  0.47038  1.0000
  H   H119      1.0  0.51360  0.48011  0.45989  1.0000
  H   H120      1.0  0.50727  0.44205  0.45795  1.0000
  H   H121      1.0  0.47548  0.36497  0.41539  1.0000
  H   H122      1.0  0.47950  0.40204  0.41608  1.0000
  H   H123      1.0  0.67924  0.57389  0.43584  1.0000
  H   H124      1.0  0.71617  0.57754  0.43825  1.0000
  H   H125      1.0  0.65883  0.59452  0.47013  1.0000
  H   H126      1.0  0.62062  0.58774  0.46645  1.0000
  H   H127      1.0  0.39315  0.55723  0.43445  1.0000
  H   H128      1.0  0.35595  0.55292  0.43693  1.0000
  C   C213      1.0  0.50936  0.13292  0.40899  1.0000
  C   C214      1.0  0.50567  0.15165  0.41089  1.0000
  C   C215      1.0  0.51199  0.21957  0.39525  1.0000
  C   C216      1.0  0.51395  0.19980  0.39416  1.0000
  C   C217      1.0  0.62670  0.13362  0.40032  1.0000
  C   C218      1.0  0.64918  0.15226  0.39851  1.0000
  C   C219      1.0  0.70008  0.18419  0.37321  1.0000
  C   C220      1.0  0.72204  0.20369  0.37244  1.0000
  C   C221      1.0  0.56086  0.97686  0.41118  1.0000
  C   C222      1.0  0.55693  0.99543  0.40931  1.0000
  C   C223      1.0  0.55336  0.92904  0.39351  1.0000
  C   C224      1.0  0.55570  0.90948  0.39462  1.0000
  C   C225      1.0  0.43988  0.99461  0.40044  1.0000
  C   C226      1.0  0.41749  0.97582  0.39860  1.0000
  C   C227      1.0  0.34484  0.92366  0.37311  1.0000
  C   C228      1.0  0.36665  0.94339  0.37384  1.0000
  H   H129      1.0  0.33268  0.92285  0.41588  1.0000
  H   H130      1.0  0.36949  0.95627  0.41712  1.0000
  H   H131      1.0  0.40967  0.96899  0.45852  1.0000
  H   H132      1.0  0.44758  0.00095  0.46110  1.0000
  H   H133      1.0  0.55473  0.00170  0.46858  1.0000
  H   H134      1.0  0.56188  0.97052  0.47235  1.0000
  H   H135      1.0  0.61910  0.12714  0.46095  1.0000
  H   H136      1.0  0.65715  0.15886  0.45845  1.0000
  H   H137      1.0  0.73420  0.20417  0.41467  1.0000
  H   H138      1.0  0.69713  0.17113  0.41597  1.0000
  H   H139      1.0  0.52520  0.19894  0.43782  1.0000
  H   H140      1.0  0.52155  0.23222  0.44031  1.0000
  H   H141      1.0  0.50458  0.15785  0.47208  1.0000
  H   H142      1.0  0.51136  0.12644  0.46828  1.0000
  H   H143      1.0  0.54185  0.92954  0.43651  1.0000
  H   H144      1.0  0.54615  0.89664  0.43905  1.0000
  C   C229      1.0  0.25717  0.52025  0.41119  1.0000
  C   C230      1.0  0.27769  0.52041  0.39295  1.0000
  C   C231      1.0  0.24309  0.52044  0.34102  1.0000
  H   H145      1.0  0.28714  0.51997  0.44590  1.0000
  H   H146      1.0  0.25256  0.51990  0.47685  1.0000
  C   C232      1.0  0.22255  0.51961  0.36114  1.0000
  H   H147      1.0  0.21552  0.51366  0.42091  1.0000
  C   C233      1.0  0.57881  0.83055  0.41337  1.0000
  C   C234      1.0  0.57865  0.85092  0.39511  1.0000
  C   C235      1.0  0.57864  0.81637  0.34320  1.0000
  H   H148      1.0  0.57908  0.86074  0.44805  1.0000
  H   H149      1.0  0.57916  0.82621  0.47902  1.0000
  C   C236      1.0  0.57948  0.79664  0.36332  1.0000
  H   H150      1.0  0.58542  0.79548  0.42312  1.0000
  C   C237      1.0  0.26843  0.84186  0.41161  1.0000
  C   C238      1.0  0.24807  0.82135  0.39304  1.0000
  C   C239      1.0  0.28268  0.85598  0.34167  1.0000
  H   H151      1.0  0.23821  0.81187  0.44583  1.0000
  H   H152      1.0  0.27271  0.84643  0.47733  1.0000
  C   C240      1.0  0.30238  0.87652  0.36210  1.0000
  H   H153      1.0  0.30347  0.88352  0.42189  1.0000
  C   C241      1.0  0.81440  0.60821  0.41075  1.0000
  C   C242      1.0  0.79407  0.60846  0.39248  1.0000
  C   C243      1.0  0.82821  0.60766  0.34061  1.0000
  H   H154      1.0  0.78481  0.60914  0.44539  1.0000
  H   H155      1.0  0.81908  0.60854  0.47640  1.0000
  C   C244      1.0  0.84859  0.60811  0.36073  1.0000
  H   H156      1.0  0.85577  0.61404  0.42033  1.0000
  C   C245      1.0  0.49087  0.29982  0.41296  1.0000
  C   C246      1.0  0.49062  0.27926  0.39467  1.0000
  C   C247      1.0  0.49143  0.31427  0.34283  1.0000
  H   H157      1.0  0.48994  0.26926  0.44758  1.0000
  H   H158      1.0  0.49054  0.30409  0.47861  1.0000
  C   C248      1.0  0.49098  0.33418  0.36297  1.0000
  H   H159      1.0  0.48504  0.33535  0.42254  1.0000
  C   C249      1.0  0.79936  0.28472  0.41118  1.0000
  C   C250      1.0  0.81989  0.30505  0.39257  1.0000
  C   C251      1.0  0.78484  0.27087  0.34127  1.0000
  H   H160      1.0  0.82994  0.31433  0.44533  1.0000
  H   H161      1.0  0.79516  0.28007  0.47690  1.0000
  C   C252      1.0  0.76496  0.25049  0.36171  1.0000
  H   H162      1.0  0.76385  0.24334  0.42131  1.0000
