data_image0
_chemical_formula_structural       C3NCH3CNHCNHCNHC3NCH3C3NCH3C3NCH3C3NCH3CNHCNHC3NCH3C3NCH3CNHCNHC3NCH3C3NCH3CNHCNHC3NCH3C3NCH3CNHCNHCNHC3NCH3CNCNCNCNCNCNCNCNCNCNCNCNCNCNCNCNCNCNCNCNCNCNCNCNCNCNCNCNCNCNCNCNCNCNCNCNCNCNCNCNCNCNCNCNCNCNCNCNCNHC3NCH3C3NCH3C3NCH3CNHCNHCNHCNHC3NCH3C3NCH3CNHCNHC3NCH3C3NCH3CNHCNHC3NCH3C3NCH3CNHCNHC3NCH3C3NCH3C3NCH3CNH
_chemical_formula_sum              "C168 N96 H96"
_cell_length_a       53.9269
_cell_length_b       27.8036
_cell_length_c       14.8628
_cell_angle_alpha    90
_cell_angle_beta     90
_cell_angle_gamma    90

_space_group_name_H-M_alt    "P 1"
_space_group_IT_number       1

loop_
  _space_group_symop_operation_xyz
  'x, y, z'

loop_
  _atom_site_type_symbol
  _atom_site_label
  _atom_site_symmetry_multiplicity
  _atom_site_fract_x
  _atom_site_fract_y
  _atom_site_fract_z
  _atom_site_occupancy
  C   C1        1.0  0.47900  0.50257  0.30790  1.0000
  C   C2        1.0  0.49268  0.45921  0.32015  1.0000
  C   C3        1.0  0.51637  0.54947  0.31689  1.0000
  N   N1        1.0  0.49141  0.54513  0.30741  1.0000
  C   C4        1.0  0.45178  0.50579  0.29612  1.0000
  H   H1        1.0  0.44609  0.48484  0.23760  1.0000
  H   H2        1.0  0.44574  0.54288  0.28560  1.0000
  H   H3        1.0  0.44241  0.49224  0.35602  1.0000
  C   C5        1.0  0.99043  0.96513  0.35587  1.0000
  N   N2        1.0  0.97947  0.00889  0.35704  1.0000
  H   H4        1.0  0.97894  0.93660  0.34551  1.0000
  C   C6        1.0  0.38014  0.36041  0.30871  1.0000
  N   N3        1.0  0.40443  0.37383  0.30754  1.0000
  H   H5        1.0  0.36753  0.38344  0.28081  1.0000
  C   C7        1.0  0.62958  0.64448  0.30995  1.0000
  N   N4        1.0  0.60528  0.63119  0.30833  1.0000
  H   H6        1.0  0.64218  0.62161  0.28147  1.0000
  C   C8        1.0  0.11736  0.78643  0.30404  1.0000
  C   C9        1.0  0.13666  0.81520  0.34158  1.0000
  C   C10       1.0  0.08659  0.84510  0.34468  1.0000
  N   N5        1.0  0.09357  0.80245  0.30816  1.0000
  C   C11       1.0  0.12115  0.74062  0.25497  1.0000
  H   H7        1.0  0.13511  0.74542  0.20253  1.0000
  H   H8        1.0  0.10406  0.72837  0.22268  1.0000
  H   H9        1.0  0.12711  0.71254  0.30097  1.0000
  C   C12       1.0  0.89132  0.21822  0.30165  1.0000
  C   C13       1.0  0.87206  0.18957  0.33968  1.0000
  C   C14       1.0  0.92214  0.15986  0.34335  1.0000
  N   N6        1.0  0.91513  0.20232  0.30613  1.0000
  C   C15       1.0  0.88750  0.26378  0.25183  1.0000
  H   H10       1.0  0.87352  0.25871  0.19956  1.0000
  H   H11       1.0  0.90456  0.27591  0.21924  1.0000
  H   H12       1.0  0.88154  0.29210  0.29739  1.0000
  C   C16       1.0  0.53205  0.28812  0.31561  1.0000
  C   C17       1.0  0.50688  0.28842  0.34623  1.0000
  C   C18       1.0  0.53615  0.20500  0.35273  1.0000
  N   N7        1.0  0.54543  0.24647  0.31891  1.0000
  C   C19       1.0  0.54491  0.32971  0.27470  1.0000
  H   H13       1.0  0.53425  0.34361  0.21801  1.0000
  H   H14       1.0  0.56332  0.32000  0.24995  1.0000
  H   H15       1.0  0.54726  0.35776  0.32514  1.0000
  C   C20       1.0  0.47729  0.71763  0.31758  1.0000
  C   C21       1.0  0.50310  0.71862  0.34035  1.0000
  C   C22       1.0  0.47377  0.80208  0.34393  1.0000
  N   N8        1.0  0.46387  0.75929  0.31935  1.0000
  C   C23       1.0  0.46356  0.67442  0.28719  1.0000
  H   H16       1.0  0.47226  0.65954  0.22704  1.0000
  H   H17       1.0  0.44430  0.68279  0.27063  1.0000
  H   H18       1.0  0.46342  0.64741  0.34041  1.0000
  C   C24       1.0  0.01122  0.74468  0.30264  1.0000
  N   N9        1.0  0.99683  0.70520  0.30205  1.0000
  H   H19       1.0  0.02887  0.74111  0.27841  1.0000
  C   C25       1.0  0.99672  0.26357  0.31644  1.0000
  N   N10       1.0  0.01124  0.30285  0.31657  1.0000
  H   H20       1.0  0.97863  0.26824  0.29786  1.0000
  C   C26       1.0  0.32720  0.15458  0.27022  1.0000
  C   C27       1.0  0.31172  0.18702  0.31874  1.0000
  C   C28       1.0  0.30335  0.08633  0.32042  1.0000
  N   N11       1.0  0.32245  0.10665  0.27448  1.0000
  C   C29       1.0  0.34789  0.16901  0.21035  1.0000
  H   H21       1.0  0.34157  0.19646  0.16308  1.0000
  H   H22       1.0  0.35483  0.13855  0.17125  1.0000
  H   H23       1.0  0.36329  0.18306  0.24947  1.0000
  C   C30       1.0  0.68207  0.85029  0.27182  1.0000
  C   C31       1.0  0.69771  0.81798  0.31997  1.0000
  C   C32       1.0  0.70573  0.91871  0.32217  1.0000
  N   N12       1.0  0.68665  0.89828  0.27636  1.0000
  C   C33       1.0  0.66136  0.83571  0.21219  1.0000
  H   H24       1.0  0.66769  0.80838  0.16474  1.0000
  H   H25       1.0  0.65429  0.86614  0.17330  1.0000
  H   H26       1.0  0.64603  0.82146  0.25148  1.0000
  C   C34       1.0  0.21810  0.66564  0.32219  1.0000
  N   N13       1.0  0.22152  0.61691  0.32136  1.0000
  H   H27       1.0  0.23012  0.68636  0.28580  1.0000
  C   C35       1.0  0.79094  0.33952  0.32113  1.0000
  N   N14       1.0  0.78769  0.38827  0.32000  1.0000
  H   H28       1.0  0.77878  0.31888  0.28517  1.0000
  C   C36       1.0  0.27208  0.43804  0.34042  1.0000
  C   C37       1.0  0.24649  0.42480  0.33938  1.0000
  C   C38       1.0  0.28499  0.35509  0.33536  1.0000
  N   N15       1.0  0.28990  0.40305  0.33863  1.0000
  C   C39       1.0  0.28116  0.48822  0.34398  1.0000
  H   H29       1.0  0.27444  0.50815  0.28562  1.0000
  H   H30       1.0  0.30140  0.48982  0.34350  1.0000
  H   H31       1.0  0.27470  0.50559  0.40547  1.0000
  C   C40       1.0  0.73765  0.56711  0.33950  1.0000
  C   C41       1.0  0.76324  0.58034  0.33823  1.0000
  C   C42       1.0  0.72476  0.65006  0.33541  1.0000
  N   N16       1.0  0.71984  0.60210  0.33829  1.0000
  C   C43       1.0  0.72853  0.51693  0.34263  1.0000
  H   H32       1.0  0.73521  0.49715  0.28403  1.0000
  H   H33       1.0  0.70829  0.51538  0.34230  1.0000
  H   H34       1.0  0.73501  0.49938  0.40391  1.0000
  C   C44       1.0  0.26706  0.87434  0.35024  1.0000
  N   N17       1.0  0.24837  0.84186  0.35190  1.0000
  H   H35       1.0  0.28453  0.86049  0.35197  1.0000
  C   C45       1.0  0.74166  0.13079  0.35108  1.0000
  N   N18       1.0  0.76035  0.16330  0.35213  1.0000
  H   H36       1.0  0.72418  0.14462  0.35287  1.0000
  C   C46       1.0  0.15032  0.39473  0.34748  1.0000
  C   C47       1.0  0.15690  0.44368  0.36530  1.0000
  C   C48       1.0  0.10726  0.41175  0.37016  1.0000
  N   N19       1.0  0.12599  0.38105  0.35006  1.0000
  C   C49       1.0  0.16817  0.35645  0.32348  1.0000
  H   H37       1.0  0.17843  0.36656  0.26311  1.0000
  H   H38       1.0  0.15887  0.32228  0.31000  1.0000
  H   H39       1.0  0.18099  0.35078  0.37918  1.0000
  C   C50       1.0  0.85948  0.60985  0.34279  1.0000
  C   C51       1.0  0.85293  0.56081  0.35979  1.0000
  C   C52       1.0  0.90263  0.59254  0.36278  1.0000
  N   N20       1.0  0.88383  0.62342  0.34455  1.0000
  C   C53       1.0  0.84159  0.64841  0.32091  1.0000
  H   H40       1.0  0.83108  0.63887  0.26078  1.0000
  H   H41       1.0  0.85087  0.68265  0.30796  1.0000
  H   H42       1.0  0.82899  0.65366  0.37744  1.0000
  C   C54       1.0  0.37240  0.97439  0.29778  1.0000
  N   N21       1.0  0.39591  0.95807  0.29685  1.0000
  H   H43       1.0  0.36995  0.01000  0.28330  1.0000
  C   C55       1.0  0.63613  0.02987  0.30572  1.0000
  N   N22       1.0  0.61259  0.04613  0.30547  1.0000
  H   H44       1.0  0.63856  0.99417  0.29204  1.0000
  C   C56       1.0  0.99756  0.45842  0.36825  1.0000
  N   N23       1.0  0.98033  0.49364  0.36679  1.0000
  H   H45       1.0  0.99109  0.42388  0.36892  1.0000
  C   C57       1.0  0.47934  0.01881  0.31793  1.0000
  C   C58       1.0  0.48587  0.96914  0.31768  1.0000
  C   C59       1.0  0.52223  0.04056  0.32011  1.0000
  N   N24       1.0  0.49779  0.05189  0.31967  1.0000
  C   C60       1.0  0.45383  0.03861  0.31803  1.0000
  H   H46       1.0  0.44402  0.02714  0.25753  1.0000
  H   H47       1.0  0.45384  0.07792  0.31897  1.0000
  H   H48       1.0  0.44384  0.02628  0.37754  1.0000
  C   C61       1.0  0.44819  0.35675  0.33644  1.0000
  N   N25       1.0  0.45717  0.40231  0.32738  1.0000
  C   C62       1.0  0.48204  0.41198  0.32517  1.0000
  N   N26       1.0  0.49758  0.37361  0.33147  1.0000
  C   C63       1.0  0.48990  0.32760  0.33974  1.0000
  N   N27       1.0  0.46497  0.32051  0.34271  1.0000
  C   C64       1.0  0.56153  0.64856  0.33626  1.0000
  N   N28       1.0  0.55240  0.60310  0.32644  1.0000
  C   C65       1.0  0.52743  0.59520  0.32154  1.0000
  N   N29       1.0  0.51194  0.63344  0.32650  1.0000
  C   C66       1.0  0.51997  0.67912  0.33575  1.0000
  N   N30       1.0  0.54496  0.68533  0.34088  1.0000
  C   C67       1.0  0.06104  0.85677  0.34871  1.0000
  N   N31       1.0  0.05205  0.90233  0.35778  1.0000
  C   C68       1.0  0.02718  0.91198  0.35999  1.0000
  N   N32       1.0  0.01164  0.87361  0.35372  1.0000
  C   C69       1.0  0.01934  0.82760  0.34544  1.0000
  N   N33       1.0  0.04427  0.82053  0.34248  1.0000
  C   C70       1.0  0.94770  0.14858  0.34880  1.0000
  N   N34       1.0  0.95683  0.10311  0.35868  1.0000
  C   C71       1.0  0.98180  0.09520  0.36356  1.0000
  N   N35       1.0  0.99729  0.13344  0.35850  1.0000
  C   C72       1.0  0.98927  0.17911  0.34921  1.0000
  N   N36       1.0  0.96428  0.18534  0.34409  1.0000
  C   C73       1.0  0.31677  0.23761  0.32590  1.0000
  N   N37       1.0  0.29865  0.27181  0.32848  1.0000
  C   C74       1.0  0.30396  0.31981  0.33442  1.0000
  N   N38       1.0  0.32822  0.33323  0.33923  1.0000
  C   C75       1.0  0.34708  0.30067  0.33932  1.0000
  N   N39       1.0  0.34059  0.25353  0.33198  1.0000
  C   C76       1.0  0.69280  0.76736  0.32706  1.0000
  N   N40       1.0  0.71099  0.73329  0.32915  1.0000
  C   C77       1.0  0.70575  0.68526  0.33503  1.0000
  N   N41       1.0  0.68153  0.67169  0.34028  1.0000
  C   C78       1.0  0.66263  0.70415  0.34094  1.0000
  N   N42       1.0  0.66902  0.75132  0.33360  1.0000
  C   C79       1.0  0.19245  0.73760  0.35923  1.0000
  N   N43       1.0  0.21058  0.77181  0.35664  1.0000
  C   C80       1.0  0.20526  0.81980  0.35071  1.0000
  N   N44       1.0  0.18101  0.83323  0.34592  1.0000
  C   C81       1.0  0.16215  0.80067  0.34586  1.0000
  N   N45       1.0  0.16863  0.75352  0.35318  1.0000
  C   C82       1.0  0.81642  0.26737  0.35803  1.0000
  N   N46       1.0  0.79824  0.23329  0.35595  1.0000
  C   C83       1.0  0.80348  0.18526  0.35009  1.0000
  N   N47       1.0  0.82771  0.17169  0.34484  1.0000
  C   C84       1.0  0.84660  0.20415  0.34417  1.0000
  N   N48       1.0  0.84020  0.25132  0.35149  1.0000
  C   C85       1.0  0.04789  0.34633  0.34890  1.0000
  N   N49       1.0  0.07286  0.35365  0.35602  1.0000
  C   C86       1.0  0.08193  0.39923  0.36696  1.0000
  N   N50       1.0  0.06552  0.43627  0.37107  1.0000
  C   C87       1.0  0.04073  0.43060  0.36504  1.0000
  N   N51       1.0  0.03279  0.38509  0.35371  1.0000
  C   C88       1.0  0.96133  0.66010  0.34223  1.0000
  N   N52       1.0  0.93645  0.65146  0.34870  1.0000
  C   C89       1.0  0.92791  0.60544  0.35982  1.0000
  N   N53       1.0  0.94465  0.56892  0.36533  1.0000
  C   C90       1.0  0.96930  0.57693  0.36061  1.0000
  N   N54       1.0  0.97703  0.62240  0.34882  1.0000
  C   C91       1.0  0.46137  0.84639  0.33574  1.0000
  N   N55       1.0  0.43639  0.85370  0.32884  1.0000
  C   C92       1.0  0.42731  0.89930  0.31825  1.0000
  N   N56       1.0  0.44370  0.93636  0.31425  1.0000
  C   C93       1.0  0.46850  0.93070  0.32016  1.0000
  N   N57       1.0  0.47646  0.88517  0.33115  1.0000
  C   C94       1.0  0.54793  0.16019  0.34325  1.0000
  N   N58       1.0  0.57281  0.15151  0.33677  1.0000
  C   C95       1.0  0.58133  0.10549  0.32557  1.0000
  N   N59       1.0  0.56457  0.06900  0.32003  1.0000
  C   C96       1.0  0.53993  0.07704  0.32480  1.0000
  N   N60       1.0  0.53221  0.12252  0.33666  1.0000
  C   C97       1.0  0.20662  0.53525  0.35872  1.0000
  N   N61       1.0  0.22712  0.50678  0.34849  1.0000
  C   C98       1.0  0.22564  0.45746  0.34513  1.0000
  N   N62       1.0  0.20240  0.43823  0.35120  1.0000
  C   C99       1.0  0.18130  0.46419  0.36033  1.0000
  N   N63       1.0  0.18443  0.51253  0.36431  1.0000
  C   C100      1.0  0.80295  0.46975  0.35635  1.0000
  N   N64       1.0  0.78249  0.49835  0.34693  1.0000
  C   C101      1.0  0.78407  0.54764  0.34315  1.0000
  N   N65       1.0  0.80738  0.56668  0.34787  1.0000
  C   C102      1.0  0.82846  0.54053  0.35613  1.0000
  N   N66       1.0  0.82522  0.49223  0.36068  1.0000
  C   C103      1.0  0.30261  0.03524  0.32638  1.0000
  N   N67       1.0  0.28211  0.00678  0.33659  1.0000
  C   C104      1.0  0.28359  0.95745  0.33986  1.0000
  N   N68       1.0  0.30683  0.93822  0.33381  1.0000
  C   C105      1.0  0.32793  0.96418  0.32471  1.0000
  N   N69       1.0  0.32480  0.01252  0.32077  1.0000
  C   C106      1.0  0.70628  0.96974  0.32874  1.0000
  N   N70       1.0  0.72674  0.99835  0.33819  1.0000
  C   C107      1.0  0.72516  0.04763  0.34207  1.0000
  N   N71       1.0  0.70185  0.06666  0.33739  1.0000
  C   C108      1.0  0.68077  0.04052  0.32912  1.0000
  N   N72       1.0  0.68401  0.99222  0.32447  1.0000
  C   C109      1.0  0.51879  0.46513  0.32950  1.0000
  N   N73       1.0  0.52975  0.50889  0.32825  1.0000
  H   H49       1.0  0.53028  0.43660  0.33991  1.0000
  C   C110      1.0  0.03023  0.00257  0.37718  1.0000
  C   C111      1.0  0.01654  0.95921  0.36506  1.0000
  C   C112      1.0  0.99286  0.04947  0.36823  1.0000
  N   N74       1.0  0.01782  0.04513  0.37765  1.0000
  C   C113      1.0  0.05745  0.00580  0.38886  1.0000
  H   H50       1.0  0.06316  0.98488  0.44740  1.0000
  H   H51       1.0  0.06350  0.04290  0.39931  1.0000
  H   H52       1.0  0.06680  0.99223  0.32895  1.0000
  C   C114      1.0  0.39186  0.28640  0.38106  1.0000
  C   C115      1.0  0.37257  0.31519  0.34357  1.0000
  C   C116      1.0  0.42264  0.34507  0.34048  1.0000
  N   N75       1.0  0.41566  0.30242  0.37697  1.0000
  C   C117      1.0  0.38808  0.24063  0.43024  1.0000
  H   H53       1.0  0.37412  0.24548  0.48270  1.0000
  H   H54       1.0  0.40516  0.22837  0.46252  1.0000
  H   H55       1.0  0.38210  0.21252  0.38432  1.0000
  C   C118      1.0  0.61790  0.71822  0.38343  1.0000
  C   C119      1.0  0.63717  0.68956  0.34544  1.0000
  C   C120      1.0  0.58709  0.65985  0.34171  1.0000
  N   N76       1.0  0.59410  0.70231  0.37892  1.0000
  C   C121      1.0  0.62172  0.76380  0.43319  1.0000
  H   H56       1.0  0.63570  0.75875  0.48548  1.0000
  H   H57       1.0  0.60466  0.77594  0.46576  1.0000
  H   H58       1.0  0.62768  0.79210  0.38760  1.0000
  C   C122      1.0  0.12909  0.86043  0.37644  1.0000
  N   N77       1.0  0.10480  0.87385  0.37763  1.0000
  H   H59       1.0  0.14171  0.88344  0.40438  1.0000
  C   C123      1.0  0.87965  0.14451  0.37525  1.0000
  N   N78       1.0  0.90395  0.13121  0.37681  1.0000
  H   H60       1.0  0.86706  0.12162  0.40366  1.0000
  C   C124      1.0  0.49809  0.24482  0.38319  1.0000
  N   N79       1.0  0.51250  0.20535  0.38386  1.0000
  H   H61       1.0  0.48045  0.24124  0.40753  1.0000
  C   C125      1.0  0.51256  0.76366  0.36791  1.0000
  N   N80       1.0  0.49805  0.80295  0.36770  1.0000
  H   H62       1.0  0.53066  0.76833  0.38641  1.0000
  C   C126      1.0  0.97716  0.78811  0.36926  1.0000
  C   C127      1.0  0.00237  0.78838  0.33909  1.0000
  C   C128      1.0  0.97316  0.70488  0.33296  1.0000
  N   N81       1.0  0.96380  0.74642  0.36615  1.0000
  C   C129      1.0  0.96422  0.82979  0.40955  1.0000
  H   H63       1.0  0.97480  0.84384  0.46634  1.0000
  H   H64       1.0  0.94578  0.82012  0.43402  1.0000
  H   H65       1.0  0.96194  0.85771  0.35881  1.0000
  C   C130      1.0  0.03194  0.21762  0.36751  1.0000
  C   C131      1.0  0.00615  0.21858  0.34446  1.0000
  C   C132      1.0  0.03551  0.30201  0.34053  1.0000
  N   N82       1.0  0.04536  0.25926  0.36561  1.0000
  C   C133      1.0  0.04562  0.17447  0.39845  1.0000
  H   H66       1.0  0.03685  0.15971  0.45857  1.0000
  H   H67       1.0  0.06487  0.18286  0.41523  1.0000
  H   H68       1.0  0.04582  0.14734  0.34543  1.0000
  C   C134      1.0  0.29112  0.16564  0.36290  1.0000
  N   N83       1.0  0.28770  0.11691  0.36372  1.0000
  H   H69       1.0  0.27907  0.18636  0.39916  1.0000
  C   C135      1.0  0.71830  0.83951  0.36392  1.0000
  N   N84       1.0  0.72153  0.88827  0.36510  1.0000
  H   H70       1.0  0.73041  0.81888  0.40009  1.0000
  C   C136      1.0  0.18205  0.65458  0.41504  1.0000
  C   C137      1.0  0.19751  0.68702  0.36639  1.0000
  C   C138      1.0  0.20589  0.58633  0.36479  1.0000
  N   N85       1.0  0.18680  0.60665  0.41076  1.0000
  C   C139      1.0  0.16136  0.66902  0.47486  1.0000
  H   H71       1.0  0.16766  0.69650  0.52208  1.0000
  H   H72       1.0  0.15442  0.63857  0.51401  1.0000
  H   H73       1.0  0.14595  0.68303  0.43570  1.0000
  C   C140      1.0  0.82718  0.35030  0.41319  1.0000
  C   C141      1.0  0.81153  0.31799  0.36510  1.0000
  C   C142      1.0  0.80351  0.41870  0.36283  1.0000
  N   N86       1.0  0.82260  0.39828  0.40864  1.0000
  C   C143      1.0  0.84789  0.33572  0.47283  1.0000
  H   H74       1.0  0.84155  0.30840  0.52030  1.0000
  H   H75       1.0  0.85496  0.36615  0.51170  1.0000
  H   H76       1.0  0.86321  0.32145  0.43354  1.0000
  C   C144      1.0  0.24217  0.37435  0.33477  1.0000
  N   N87       1.0  0.26086  0.34186  0.33315  1.0000
  H   H77       1.0  0.22469  0.36050  0.33300  1.0000
  C   C145      1.0  0.76757  0.63080  0.33409  1.0000
  N   N88       1.0  0.74888  0.66330  0.33302  1.0000
  H   H78       1.0  0.78505  0.64463  0.33228  1.0000
  C   C146      1.0  0.23715  0.93803  0.34468  1.0000
  C   C147      1.0  0.26274  0.92480  0.34564  1.0000
  C   C148      1.0  0.22424  0.85508  0.34974  1.0000
  N   N89       1.0  0.21933  0.90304  0.34651  1.0000
  C   C149      1.0  0.22806  0.98821  0.34115  1.0000
  H   H79       1.0  0.23480  0.00814  0.39949  1.0000
  H   H80       1.0  0.20782  0.98981  0.34166  1.0000
  H   H81       1.0  0.23452  0.00558  0.27964  1.0000
  C   C150      1.0  0.77158  0.06710  0.34567  1.0000
  C   C151      1.0  0.74599  0.08033  0.34699  1.0000
  C   C152      1.0  0.78447  0.15005  0.34973  1.0000
  N   N90       1.0  0.78939  0.10210  0.34686  1.0000
  C   C153      1.0  0.78070  0.01693  0.34255  1.0000
  H   H82       1.0  0.77403  0.99715  0.40115  1.0000
  H   H83       1.0  0.80095  0.01538  0.34289  1.0000
  H   H84       1.0  0.77422  0.99937  0.28128  1.0000
  C   C154      1.0  0.13683  0.47435  0.38749  1.0000
  N   N91       1.0  0.11333  0.45801  0.38847  1.0000
  H   H85       1.0  0.13929  0.50994  0.40210  1.0000
  C   C155      1.0  0.87309  0.52989  0.37974  1.0000
  N   N92       1.0  0.89663  0.54613  0.38000  1.0000
  H   H86       1.0  0.87066  0.49419  0.39343  1.0000
  C   C156      1.0  0.35891  0.89472  0.33745  1.0000
  C   C157      1.0  0.35232  0.94368  0.31972  1.0000
  C   C158      1.0  0.40198  0.91179  0.31501  1.0000
  N   N93       1.0  0.38325  0.88106  0.33492  1.0000
  C   C159      1.0  0.34106  0.85641  0.36120  1.0000
  H   H87       1.0  0.33078  0.86643  0.42159  1.0000
  H   H88       1.0  0.35035  0.82222  0.37455  1.0000
  H   H89       1.0  0.32824  0.85082  0.30543  1.0000
  C   C160      1.0  0.64976  0.10985  0.34244  1.0000
  C   C161      1.0  0.65629  0.06080  0.32554  1.0000
  C   C162      1.0  0.60661  0.09255  0.32263  1.0000
  N   N94       1.0  0.62541  0.12344  0.34072  1.0000
  C   C163      1.0  0.66766  0.14842  0.36416  1.0000
  H   H90       1.0  0.67818  0.13893  0.42430  1.0000
  H   H91       1.0  0.65838  0.18268  0.37704  1.0000
  H   H92       1.0  0.68025  0.15362  0.30760  1.0000
  C   C164      1.0  0.02988  0.51870  0.36745  1.0000
  C   C165      1.0  0.02335  0.46903  0.36763  1.0000
  C   C166      1.0  0.98699  0.54044  0.36527  1.0000
  N   N95       1.0  0.01143  0.55177  0.36575  1.0000
  C   C167      1.0  0.05539  0.53852  0.36737  1.0000
  H   H93       1.0  0.06520  0.52702  0.42786  1.0000
  H   H94       1.0  0.05538  0.57782  0.36648  1.0000
  H   H95       1.0  0.06538  0.52621  0.30785  1.0000
  C   C168      1.0  0.51167  0.95854  0.31703  1.0000
  N   N96       1.0  0.52890  0.99376  0.31852  1.0000
  H   H96       1.0  0.51814  0.92401  0.31628  1.0000
