data_image0
_chemical_formula_structural       C2NC3NHCH3C2NC3NHCH3C2NC3NHCH3C24H15C24H15C2HC5H3C2HC5H3C2HC5H3
_chemical_formula_sum              "C87 N6 H54"
_cell_length_a       37.3213
_cell_length_b       37.3212
_cell_length_c       14.9457
_cell_angle_alpha    90
_cell_angle_beta     90
_cell_angle_gamma    120

_space_group_name_H-M_alt    "P 1"
_space_group_IT_number       1

loop_
  _space_group_symop_operation_xyz
  'x, y, z'

loop_
  _atom_site_type_symbol
  _atom_site_label
  _atom_site_symmetry_multiplicity
  _atom_site_fract_x
  _atom_site_fract_y
  _atom_site_fract_z
  _atom_site_occupancy
  C   C1        1.0  0.44827  0.55627  0.33393  1.0000
  C   C2        1.0  0.46007  0.54447  0.25372  1.0000
  N   N1        1.0  0.48108  0.52347  0.25965  1.0000
  C   C3        1.0  0.49184  0.51270  0.33772  1.0000
  C   C4        1.0  0.51370  0.49084  0.33830  1.0000
  C   C5        1.0  0.54566  0.45889  0.25752  1.0000
  N   N2        1.0  0.52467  0.47987  0.26059  1.0000
  H   H1        1.0  0.55284  0.45171  0.19656  1.0000
  C   C6        1.0  0.45140  0.55314  0.16201  1.0000
  H   H2        1.0  0.43454  0.57000  0.16104  1.0000
  H   H3        1.0  0.43298  0.52400  0.12637  1.0000
  H   H4        1.0  0.48054  0.57156  0.12637  1.0000
  C   C7        1.0  0.44827  0.89290  0.33393  1.0000
  C   C8        1.0  0.46007  0.91651  0.25372  1.0000
  N   N3        1.0  0.48108  0.95852  0.25965  1.0000
  C   C9        1.0  0.49184  0.98004  0.33772  1.0000
  C   C10       1.0  0.51370  0.02377  0.33830  1.0000
  C   C11       1.0  0.54566  0.08768  0.25753  1.0000
  N   N4        1.0  0.52467  0.04571  0.26059  1.0000
  H   H5        1.0  0.55284  0.10204  0.19656  1.0000
  C   C12       1.0  0.45140  0.89917  0.16201  1.0000
  H   H6        1.0  0.43454  0.86546  0.16103  1.0000
  H   H7        1.0  0.48054  0.90989  0.12637  1.0000
  H   H8        1.0  0.43298  0.90989  0.12637  1.0000
  C   C13       1.0  0.11164  0.55627  0.33393  1.0000
  C   C14       1.0  0.08803  0.54447  0.25372  1.0000
  N   N5        1.0  0.04602  0.52347  0.25965  1.0000
  C   C15       1.0  0.02450  0.51270  0.33772  1.0000
  C   C16       1.0  0.98077  0.49084  0.33830  1.0000
  C   C17       1.0  0.91686  0.45889  0.25752  1.0000
  N   N6        1.0  0.95884  0.47987  0.26059  1.0000
  H   H9        1.0  0.90251  0.45171  0.19656  1.0000
  C   C18       1.0  0.10537  0.55314  0.16201  1.0000
  H   H10       1.0  0.13909  0.57000  0.16104  1.0000
  H   H11       1.0  0.09466  0.57156  0.12637  1.0000
  H   H12       1.0  0.09466  0.52400  0.12637  1.0000
  C   C19       1.0  0.29087  0.64589  0.33703  1.0000
  C   C20       1.0  0.31473  0.62582  0.33709  1.0000
  C   C21       1.0  0.35865  0.64589  0.33703  1.0000
  C   C22       1.0  0.37872  0.68981  0.33708  1.0000
  C   C23       1.0  0.35865  0.71367  0.33703  1.0000
  C   C24       1.0  0.31473  0.68981  0.33708  1.0000
  C   C25       1.0  0.38144  0.62310  0.33660  1.0000
  C   C26       1.0  0.36128  0.57892  0.33628  1.0000
  C   C27       1.0  0.38288  0.55695  0.33543  1.0000
  C   C28       1.0  0.42636  0.57818  0.33474  1.0000
  C   C29       1.0  0.44759  0.62167  0.33543  1.0000
  C   C30       1.0  0.42562  0.64326  0.33628  1.0000
  C   C31       1.0  0.24529  0.62310  0.33660  1.0000
  C   C32       1.0  0.22127  0.57893  0.33628  1.0000
  C   C33       1.0  0.17771  0.55695  0.33544  1.0000
  C   C34       1.0  0.15545  0.57818  0.33474  1.0000
  C   C35       1.0  0.17771  0.62167  0.33544  1.0000
  C   C36       1.0  0.22127  0.64326  0.33628  1.0000
  C   C37       1.0  0.38144  0.75925  0.33660  1.0000
  C   C38       1.0  0.36128  0.78327  0.33628  1.0000
  C   C39       1.0  0.38288  0.82683  0.33544  1.0000
  C   C40       1.0  0.42636  0.84909  0.33474  1.0000
  C   C41       1.0  0.44759  0.82683  0.33543  1.0000
  C   C42       1.0  0.42562  0.78327  0.33628  1.0000
  H   H13       1.0  0.16233  0.52526  0.33512  1.0000
  H   H14       1.0  0.23449  0.56084  0.33657  1.0000
  H   H15       1.0  0.16233  0.63798  0.33513  1.0000
  H   H16       1.0  0.23449  0.67456  0.33658  1.0000
  H   H17       1.0  0.32999  0.77005  0.33658  1.0000
  H   H18       1.0  0.36656  0.84221  0.33513  1.0000
  H   H19       1.0  0.44370  0.77005  0.33657  1.0000
  H   H20       1.0  0.47928  0.84221  0.33513  1.0000
  H   H21       1.0  0.44370  0.67456  0.33658  1.0000
  H   H22       1.0  0.47928  0.63798  0.33513  1.0000
  H   H23       1.0  0.36656  0.52526  0.33513  1.0000
  H   H24       1.0  0.32998  0.56084  0.33657  1.0000
  H   H25       1.0  0.29923  0.59482  0.33710  1.0000
  H   H26       1.0  0.29923  0.70531  0.33708  1.0000
  H   H27       1.0  0.40972  0.70531  0.33709  1.0000
  C   C43       1.0  0.71458  0.35774  0.33636  1.0000
  C   C44       1.0  0.69072  0.37781  0.33638  1.0000
  C   C45       1.0  0.64680  0.35774  0.33636  1.0000
  C   C46       1.0  0.62673  0.31382  0.33638  1.0000
  C   C47       1.0  0.64680  0.28996  0.33636  1.0000
  C   C48       1.0  0.69072  0.31382  0.33638  1.0000
  C   C49       1.0  0.62401  0.38054  0.33621  1.0000
  C   C50       1.0  0.64416  0.42471  0.33618  1.0000
  C   C51       1.0  0.62257  0.44668  0.33614  1.0000
  C   C52       1.0  0.57908  0.42546  0.33594  1.0000
  C   C53       1.0  0.55786  0.38198  0.33614  1.0000
  C   C54       1.0  0.57983  0.36038  0.33618  1.0000
  C   C55       1.0  0.76016  0.38054  0.33621  1.0000
  C   C56       1.0  0.78418  0.42471  0.33617  1.0000
  C   C57       1.0  0.82775  0.44668  0.33613  1.0000
  C   C58       1.0  0.85001  0.42546  0.33594  1.0000
  C   C59       1.0  0.82775  0.38198  0.33614  1.0000
  C   C60       1.0  0.78418  0.36038  0.33618  1.0000
  C   C61       1.0  0.62401  0.24438  0.33620  1.0000
  C   C62       1.0  0.64416  0.22036  0.33617  1.0000
  C   C63       1.0  0.62257  0.17679  0.33614  1.0000
  C   C64       1.0  0.57908  0.15453  0.33594  1.0000
  C   C65       1.0  0.55786  0.17679  0.33613  1.0000
  C   C66       1.0  0.57983  0.22036  0.33617  1.0000
  H   H28       1.0  0.84312  0.47838  0.33650  1.0000
  H   H29       1.0  0.77096  0.44279  0.33640  1.0000
  H   H30       1.0  0.84312  0.36566  0.33649  1.0000
  H   H31       1.0  0.77096  0.32908  0.33638  1.0000
  H   H32       1.0  0.67546  0.23358  0.33638  1.0000
  H   H33       1.0  0.63889  0.16142  0.33649  1.0000
  H   H34       1.0  0.56175  0.23358  0.33639  1.0000
  H   H35       1.0  0.52617  0.16142  0.33649  1.0000
  H   H36       1.0  0.56175  0.32908  0.33638  1.0000
  H   H37       1.0  0.52617  0.36566  0.33649  1.0000
  H   H38       1.0  0.63889  0.47838  0.33649  1.0000
  H   H39       1.0  0.67546  0.44279  0.33638  1.0000
  H   H40       1.0  0.70622  0.40881  0.33632  1.0000
  H   H41       1.0  0.70622  0.29832  0.33632  1.0000
  H   H42       1.0  0.59573  0.29832  0.33632  1.0000
  C   C67       1.0  0.48071  0.52383  0.41961  1.0000
  C   C68       1.0  0.45888  0.54566  0.41659  1.0000
  H   H43       1.0  0.45065  0.55389  0.47524  1.0000
  C   C69       1.0  0.55722  0.44732  0.33759  1.0000
  C   C70       1.0  0.54641  0.45813  0.41966  1.0000
  C   C71       1.0  0.52456  0.47998  0.42106  1.0000
  C   C72       1.0  0.51336  0.49117  0.50215  1.0000
  C   C73       1.0  0.49161  0.51292  0.50143  1.0000
  H   H44       1.0  0.52094  0.48360  0.56228  1.0000
  H   H45       1.0  0.48383  0.52071  0.56106  1.0000
  H   H46       1.0  0.55451  0.45003  0.47861  1.0000
  C   C74       1.0  0.48071  0.95778  0.41961  1.0000
  C   C75       1.0  0.45888  0.91414  0.41659  1.0000
  H   H47       1.0  0.45065  0.89768  0.47524  1.0000
  C   C76       1.0  0.55722  0.11081  0.33759  1.0000
  C   C77       1.0  0.54642  0.08919  0.41966  1.0000
  C   C78       1.0  0.52456  0.04549  0.42106  1.0000
  C   C79       1.0  0.51337  0.02310  0.50215  1.0000
  C   C80       1.0  0.49162  0.97960  0.50143  1.0000
  H   H48       1.0  0.52094  0.03825  0.56228  1.0000
  H   H49       1.0  0.48383  0.96403  0.56106  1.0000
  H   H50       1.0  0.55451  0.10538  0.47862  1.0000
  C   C81       1.0  0.04676  0.52383  0.41961  1.0000
  C   C82       1.0  0.09040  0.54566  0.41659  1.0000
  H   H51       1.0  0.10686  0.55389  0.47524  1.0000
  C   C83       1.0  0.89373  0.44732  0.33758  1.0000
  C   C84       1.0  0.91535  0.45813  0.41965  1.0000
  C   C85       1.0  0.95905  0.47998  0.42106  1.0000
  C   C86       1.0  0.98144  0.49117  0.50215  1.0000
  C   C87       1.0  0.02494  0.51293  0.50143  1.0000
  H   H52       1.0  0.96629  0.48360  0.56228  1.0000
  H   H53       1.0  0.04052  0.52071  0.56106  1.0000
  H   H54       1.0  0.89916  0.45003  0.47861  1.0000
