data_image0
_chemical_formula_structural       CNHC3NC3H5C3NC3H5C3NC3H5CNHCNHCNHCNHC3NC3H5C3NC3H5CNHC3NC3H5C3NC3H5C3NC3H5CNHCNHCNHCNHC3NC3H5C3NC3H5CNHCNHC3NC3H5C3NC3H5CNHCNHC3NC3H5C3NC3H5CNHCNHC3NC3H5C3NC3H5CNHCNHC3NC3H5C3NC3H5CNCNCNCNCNCNCNCNCNCNCNCNCNCNCNCNCNCNCNCNCNCNCNCNCNCNCNCNCNCNCNCNCNCNCNCNCNCNCNCNCNCNCNCNCNCNCNCNCNCNCNCNCNCNCNCNCNCNCNCNCNCNCNCNCNCNCNCNCNCNCNCNC3NC3H5CNHCNHCNHC3NC3H5C3NC3H5C3NC3H5C3NC3H5CNHCNHC3NC3H5CNHCNHCNHC3NC3H5C3NC3H5C3NC3H5C3NC3H5CNHCNHC3NC3H5C3NC3H5CNHCNHC3NC3H5C3NC3H5CNHCNHC3NC3H5C3NC3H5CNHCNHC3NC3H5C3NC3H5CNHCNH
_chemical_formula_sum              "C324 N144 H216"
_cell_length_a       41.9346
_cell_length_b       53.3195
_cell_length_c       14.8507
_cell_angle_alpha    90
_cell_angle_beta     90
_cell_angle_gamma    90

_space_group_name_H-M_alt    "P 1"
_space_group_IT_number       1

loop_
  _space_group_symop_operation_xyz
  'x, y, z'

loop_
  _atom_site_type_symbol
  _atom_site_label
  _atom_site_symmetry_multiplicity
  _atom_site_fract_x
  _atom_site_fract_y
  _atom_site_fract_z
  _atom_site_occupancy
  C   C1        1.0  0.49195  0.98178  0.32216  1.0000
  N   N1        1.0  0.47376  0.00287  0.32158  1.0000
  H   H1        1.0  0.48254  0.96602  0.29340  1.0000
  C   C2        1.0  0.97676  0.50479  0.28913  1.0000
  C   C3        1.0  0.98687  0.48169  0.32791  1.0000
  C   C4        1.0  0.02569  0.52495  0.33116  1.0000
  N   N2        1.0  0.99613  0.52525  0.29378  1.0000
  C   C5        1.0  0.94653  0.50824  0.23907  1.0000
  C   C6        1.0  0.94746  0.52060  0.14530  1.0000
  C   C7        1.0  0.94164  0.49238  0.15334  1.0000
  H   H2        1.0  0.92477  0.51158  0.27760  1.0000
  H   H3        1.0  0.91725  0.48634  0.13956  1.0000
  H   H4        1.0  0.96147  0.48063  0.13102  1.0000
  H   H5        1.0  0.97074  0.52571  0.11787  1.0000
  H   H6        1.0  0.92658  0.53161  0.12640  1.0000
  C   C8        1.0  0.33593  0.09001  0.28208  1.0000
  C   C9        1.0  0.31471  0.07326  0.32705  1.0000
  C   C10       1.0  0.38167  0.06786  0.33685  1.0000
  N   N3        1.0  0.36791  0.08697  0.29086  1.0000
  C   C11       1.0  0.32608  0.11131  0.22433  1.0000
  C   C12       1.0  0.33940  0.11218  0.12762  1.0000
  C   C13       1.0  0.30414  0.10626  0.14312  1.0000
  H   H7        1.0  0.32364  0.12976  0.25547  1.0000
  H   H8        1.0  0.28755  0.12128  0.12587  1.0000
  H   H9        1.0  0.29728  0.08681  0.13042  1.0000
  H   H10       1.0  0.35360  0.09626  0.10437  1.0000
  H   H11       1.0  0.34410  0.13075  0.09978  1.0000
  C   C14       1.0  0.67260  0.91681  0.29170  1.0000
  C   C15       1.0  0.69357  0.93301  0.33999  1.0000
  C   C16       1.0  0.62661  0.93858  0.34689  1.0000
  N   N4        1.0  0.64060  0.91992  0.29913  1.0000
  C   C17       1.0  0.68277  0.89614  0.23149  1.0000
  C   C18       1.0  0.67003  0.89631  0.13411  1.0000
  C   C19       1.0  0.70518  0.90210  0.15210  1.0000
  H   H12       1.0  0.68515  0.87739  0.26019  1.0000
  H   H13       1.0  0.72191  0.88730  0.13352  1.0000
  H   H14       1.0  0.71205  0.92168  0.14237  1.0000
  H   H15       1.0  0.65592  0.91245  0.11245  1.0000
  H   H16       1.0  0.66555  0.87804  0.10350  1.0000
  C   C20       1.0  0.18059  0.55272  0.31571  1.0000
  N   N5        1.0  0.14816  0.55068  0.31147  1.0000
  H   H17       1.0  0.19402  0.53982  0.28181  1.0000
  C   C21       1.0  0.83144  0.45316  0.30094  1.0000
  N   N6        1.0  0.86389  0.45529  0.29812  1.0000
  H   H18       1.0  0.81817  0.46564  0.26460  1.0000
  C   C22       1.0  0.51859  0.14433  0.31974  1.0000
  N   N7        1.0  0.50555  0.12093  0.31718  1.0000
  H   H19       1.0  0.53849  0.14766  0.28188  1.0000
  C   C23       1.0  0.49064  0.86145  0.31550  1.0000
  N   N8        1.0  0.50319  0.88500  0.31324  1.0000
  H   H20       1.0  0.47069  0.85795  0.27800  1.0000
  C   C24       1.0  0.03396  0.65709  0.26836  1.0000
  C   C25       1.0  0.00639  0.66399  0.31871  1.0000
  C   C26       1.0  0.03203  0.61524  0.32574  1.0000
  N   N9        1.0  0.04591  0.63349  0.27571  1.0000
  C   C27       1.0  0.05087  0.67383  0.20468  1.0000
  C   C28       1.0  0.05498  0.66455  0.10705  1.0000
  C   C29       1.0  0.03189  0.68602  0.12731  1.0000
  H   H21       1.0  0.07105  0.68471  0.22980  1.0000
  H   H22       1.0  0.03988  0.70459  0.10627  1.0000
  H   H23       1.0  0.00664  0.68122  0.12147  1.0000
  H   H24       1.0  0.04346  0.64694  0.08813  1.0000
  H   H25       1.0  0.07684  0.67016  0.07267  1.0000
  C   C30       1.0  0.97659  0.34899  0.27314  1.0000
  C   C31       1.0  0.00410  0.34189  0.32326  1.0000
  C   C32       1.0  0.97939  0.39087  0.32986  1.0000
  N   N10       1.0  0.96515  0.37272  0.28019  1.0000
  C   C33       1.0  0.95925  0.33240  0.20981  1.0000
  C   C34       1.0  0.95468  0.34170  0.11239  1.0000
  C   C35       1.0  0.97793  0.32027  0.13173  1.0000
  H   H26       1.0  0.93933  0.32137  0.23571  1.0000
  H   H27       1.0  0.96991  0.30170  0.11084  1.0000
  H   H28       1.0  0.00313  0.32514  0.12495  1.0000
  H   H29       1.0  0.96602  0.35936  0.09320  1.0000
  H   H30       1.0  0.93266  0.33606  0.07885  1.0000
  C   C36       1.0  0.52906  0.48707  0.32415  1.0000
  N   N11       1.0  0.49808  0.47961  0.32207  1.0000
  H   H31       1.0  0.54575  0.47520  0.29774  1.0000
  C   C37       1.0  0.99788  0.02557  0.29356  1.0000
  C   C38       1.0  0.97226  0.01095  0.32891  1.0000
  C   C39       1.0  0.03624  0.99431  0.33476  1.0000
  N   N12       1.0  0.02841  0.01696  0.29939  1.0000
  C   C40       1.0  0.99389  0.04992  0.24695  1.0000
  C   C41       1.0  0.00933  0.05331  0.15355  1.0000
  C   C42       1.0  0.97313  0.05058  0.16131  1.0000
  H   H32       1.0  0.99291  0.06692  0.28780  1.0000
  H   H33       1.0  0.95956  0.06776  0.15008  1.0000
  H   H34       1.0  0.96358  0.03277  0.13683  1.0000
  H   H35       1.0  0.02132  0.03717  0.12348  1.0000
  H   H36       1.0  0.01762  0.07216  0.13703  1.0000
  C   C43       1.0  0.36650  0.39200  0.28224  1.0000
  C   C44       1.0  0.38829  0.37452  0.32095  1.0000
  C   C45       1.0  0.39878  0.42675  0.32823  1.0000
  N   N13       1.0  0.37227  0.41711  0.28881  1.0000
  C   C46       1.0  0.33776  0.38481  0.23038  1.0000
  C   C47       1.0  0.33255  0.39642  0.13648  1.0000
  C   C48       1.0  0.34269  0.36896  0.14463  1.0000
  H   H37       1.0  0.31598  0.38048  0.26750  1.0000
  H   H38       1.0  0.32410  0.35527  0.12950  1.0000
  H   H39       1.0  0.36719  0.36509  0.12376  1.0000
  H   H40       1.0  0.35098  0.40895  0.11037  1.0000
  H   H41       1.0  0.30783  0.39930  0.11607  1.0000
  C   C49       1.0  0.64449  0.61420  0.28888  1.0000
  C   C50       1.0  0.62257  0.63145  0.32832  1.0000
  C   C51       1.0  0.61281  0.57914  0.33516  1.0000
  N   N14       1.0  0.63903  0.58905  0.29512  1.0000
  C   C52       1.0  0.67300  0.62167  0.23654  1.0000
  C   C53       1.0  0.67816  0.61019  0.14240  1.0000
  C   C54       1.0  0.66768  0.63756  0.15109  1.0000
  H   H42       1.0  0.69482  0.62613  0.27330  1.0000
  H   H43       1.0  0.68606  0.65141  0.13579  1.0000
  H   H44       1.0  0.64309  0.64124  0.13070  1.0000
  H   H45       1.0  0.65983  0.59753  0.11648  1.0000
  H   H46       1.0  0.70287  0.60752  0.12153  1.0000
  C   C55       1.0  0.09399  0.88517  0.32713  1.0000
  N   N15       1.0  0.08961  0.91035  0.32475  1.0000
  H   H47       1.0  0.07691  0.87419  0.29789  1.0000
  C   C56       1.0  0.91497  0.12055  0.31912  1.0000
  N   N16       1.0  0.91902  0.09532  0.31701  1.0000
  H   H48       1.0  0.93210  0.13139  0.28942  1.0000
  C   C57       1.0  0.32923  0.50699  0.31317  1.0000
  N   N17       1.0  0.30500  0.52404  0.31232  1.0000
  H   H49       1.0  0.32481  0.48974  0.28601  1.0000
  C   C58       1.0  0.68191  0.49865  0.29920  1.0000
  N   N18       1.0  0.70618  0.48166  0.29671  1.0000
  H   H50       1.0  0.68550  0.51558  0.26856  1.0000
  C   C59       1.0  0.14753  0.03759  0.30170  1.0000
  C   C60       1.0  0.15021  0.01300  0.33883  1.0000
  C   C61       1.0  0.20144  0.04778  0.34291  1.0000
  N   N19       1.0  0.17264  0.05371  0.30690  1.0000
  C   C62       1.0  0.11925  0.04724  0.25294  1.0000
  C   C63       1.0  0.12372  0.06003  0.16070  1.0000
  C   C64       1.0  0.10971  0.03359  0.16542  1.0000
  H   H51       1.0  0.09910  0.05409  0.29246  1.0000
  H   H52       1.0  0.08420  0.03234  0.15161  1.0000
  H   H53       1.0  0.12547  0.01876  0.14109  1.0000
  H   H54       1.0  0.14786  0.06100  0.13316  1.0000
  H   H55       1.0  0.10666  0.07473  0.14381  1.0000
  C   C65       1.0  0.85944  0.96901  0.30398  1.0000
  C   C66       1.0  0.85780  0.99300  0.34610  1.0000
  C   C67       1.0  0.80666  0.95836  0.35373  1.0000
  N   N20       1.0  0.83444  0.95286  0.31113  1.0000
  C   C68       1.0  0.88628  0.96025  0.24720  1.0000
  C   C69       1.0  0.87900  0.94964  0.15285  1.0000
  C   C70       1.0  0.89420  0.97558  0.16200  1.0000
  H   H56       1.0  0.90698  0.95201  0.28053  1.0000
  H   H57       1.0  0.91937  0.97660  0.14358  1.0000
  H   H58       1.0  0.87851  0.99125  0.14519  1.0000
  H   H59       1.0  0.85423  0.94982  0.13000  1.0000
  H   H60       1.0  0.89498  0.93500  0.12841  1.0000
  C   C71       1.0  0.24885  0.17693  0.30770  1.0000
  N   N21       1.0  0.25418  0.15187  0.30737  1.0000
  H   H61       1.0  0.26582  0.18815  0.27910  1.0000
  C   C72       1.0  0.76031  0.82919  0.31701  1.0000
  N   N22       1.0  0.75447  0.85418  0.31808  1.0000
  H   H62       1.0  0.74327  0.81786  0.28934  1.0000
  C   C73       1.0  0.31103  0.66934  0.30385  1.0000
  C   C74       1.0  0.28951  0.68712  0.34201  1.0000
  C   C75       1.0  0.27713  0.63512  0.34569  1.0000
  N   N23       1.0  0.30424  0.64433  0.30822  1.0000
  C   C76       1.0  0.34038  0.67624  0.25423  1.0000
  C   C77       1.0  0.34668  0.66467  0.16082  1.0000
  C   C78       1.0  0.33622  0.69207  0.16810  1.0000
  H   H63       1.0  0.36167  0.68089  0.29313  1.0000
  H   H64       1.0  0.35485  0.70583  0.15433  1.0000
  H   H65       1.0  0.31194  0.69579  0.14501  1.0000
  H   H66       1.0  0.32864  0.65202  0.13332  1.0000
  H   H67       1.0  0.37163  0.66191  0.14257  1.0000
  C   C79       1.0  0.69938  0.33715  0.29823  1.0000
  C   C80       1.0  0.72092  0.31920  0.33531  1.0000
  C   C81       1.0  0.73440  0.37109  0.33583  1.0000
  N   N24       1.0  0.70672  0.36208  0.30103  1.0000
  C   C82       1.0  0.66940  0.33047  0.25129  1.0000
  C   C83       1.0  0.66220  0.34201  0.15832  1.0000
  C   C84       1.0  0.67245  0.31455  0.16502  1.0000
  H   H68       1.0  0.64852  0.32596  0.29210  1.0000
  H   H69       1.0  0.65353  0.30090  0.15304  1.0000
  H   H70       1.0  0.69643  0.31065  0.13985  1.0000
  H   H71       1.0  0.68005  0.35452  0.12912  1.0000
  H   H72       1.0  0.63709  0.34492  0.14227  1.0000
  C   C85       1.0  0.26632  0.29301  0.28476  1.0000
  N   N25       1.0  0.29357  0.30690  0.28379  1.0000
  H   H73       1.0  0.24819  0.29808  0.24250  1.0000
  C   C86       1.0  0.74408  0.71297  0.29321  1.0000
  N   N26       1.0  0.71683  0.69908  0.29220  1.0000
  H   H74       1.0  0.76240  0.70764  0.25206  1.0000
  C   C87       1.0  0.21981  0.76577  0.29119  1.0000
  C   C88       1.0  0.24609  0.77107  0.34844  1.0000
  C   C89       1.0  0.19095  0.80062  0.35128  1.0000
  N   N27       1.0  0.19340  0.78027  0.29687  1.0000
  C   C90       1.0  0.21889  0.74544  0.22322  1.0000
  C   C91       1.0  0.21013  0.75237  0.12557  1.0000
  C   C92       1.0  0.24453  0.74537  0.14884  1.0000
  H   H75       1.0  0.21083  0.72690  0.24450  1.0000
  H   H76       1.0  0.25225  0.72696  0.12526  1.0000
  H   H77       1.0  0.26140  0.76098  0.14750  1.0000
  H   H78       1.0  0.20647  0.77218  0.10987  1.0000
  H   H79       1.0  0.19711  0.73822  0.08729  1.0000
  C   C93       1.0  0.79040  0.24080  0.28563  1.0000
  C   C94       1.0  0.76385  0.23521  0.34156  1.0000
  C   C95       1.0  0.81899  0.20565  0.34441  1.0000
  N   N28       1.0  0.81679  0.22627  0.29130  1.0000
  C   C96       1.0  0.79171  0.26148  0.21909  1.0000
  C   C97       1.0  0.80087  0.25501  0.12132  1.0000
  C   C98       1.0  0.76642  0.26207  0.14378  1.0000
  H   H80       1.0  0.79988  0.27986  0.24184  1.0000
  H   H81       1.0  0.75895  0.28064  0.12121  1.0000
  H   H82       1.0  0.74943  0.24656  0.14087  1.0000
  H   H83       1.0  0.80443  0.23527  0.10441  1.0000
  H   H84       1.0  0.81417  0.26929  0.08444  1.0000
  C   C99       1.0  0.44699  0.24702  0.31696  1.0000
  N   N29       1.0  0.42475  0.26529  0.31102  1.0000
  H   H85       1.0  0.44160  0.22986  0.29034  1.0000
  C   C100      1.0  0.56290  0.75862  0.31611  1.0000
  N   N30       1.0  0.58520  0.74036  0.31201  1.0000
  H   H86       1.0  0.56829  0.77563  0.28823  1.0000
  C   C101      1.0  0.02845  0.77656  0.29537  1.0000
  C   C102      1.0  0.03307  0.75191  0.33019  1.0000
  C   C103      1.0  0.08016  0.78899  0.34548  1.0000
  N   N31       1.0  0.05185  0.79410  0.30523  1.0000
  C   C104      1.0  0.99997  0.78439  0.24349  1.0000
  C   C105      1.0  0.00536  0.79588  0.14948  1.0000
  C   C106      1.0  0.99092  0.76965  0.15792  1.0000
  H   H87       1.0  0.98008  0.79273  0.28008  1.0000
  H   H88       1.0  0.96548  0.76837  0.14316  1.0000
  H   H89       1.0  0.00666  0.75436  0.13736  1.0000
  H   H90       1.0  0.02967  0.79623  0.12307  1.0000
  H   H91       1.0  0.98860  0.81043  0.12859  1.0000
  C   C107      1.0  0.98180  0.22947  0.29447  1.0000
  C   C108      1.0  0.97720  0.25391  0.33113  1.0000
  C   C109      1.0  0.92991  0.21686  0.34256  1.0000
  N   N32       1.0  0.95830  0.21193  0.30244  1.0000
  C   C110      1.0  0.01034  0.22192  0.24234  1.0000
  C   C111      1.0  0.00531  0.21068  0.14777  1.0000
  C   C112      1.0  0.01913  0.23708  0.15750  1.0000
  H   H92       1.0  0.03052  0.21396  0.27884  1.0000
  H   H93       1.0  0.04455  0.23876  0.14286  1.0000
  H   H94       1.0  0.00306  0.25221  0.13739  1.0000
  H   H95       1.0  0.98102  0.21006  0.12128  1.0000
  H   H96       1.0  0.02241  0.19643  0.12647  1.0000
  C   C113      1.0  0.11213  0.29111  0.31157  1.0000
  N   N33       1.0  0.14228  0.28186  0.30754  1.0000
  H   H97       1.0  0.10756  0.30777  0.28007  1.0000
  C   C114      1.0  0.89781  0.71500  0.31274  1.0000
  N   N34       1.0  0.86769  0.72438  0.30997  1.0000
  H   H98       1.0  0.90208  0.69827  0.28138  1.0000
  C   C115      1.0  0.41347  0.75435  0.29170  1.0000
  C   C116      1.0  0.42267  0.77730  0.33352  1.0000
  C   C117      1.0  0.36001  0.75921  0.34368  1.0000
  N   N35       1.0  0.38300  0.74614  0.30010  1.0000
  C   C118      1.0  0.43462  0.73819  0.23674  1.0000
  C   C119      1.0  0.42352  0.73190  0.14039  1.0000
  C   C120      1.0  0.45193  0.74944  0.15463  1.0000
  H   H99       1.0  0.44664  0.72258  0.26993  1.0000
  H   H100      1.0  0.47524  0.74144  0.13919  1.0000
  H   H101      1.0  0.44739  0.76916  0.13929  1.0000
  H   H102      1.0  0.40209  0.74115  0.11503  1.0000
  H   H103      1.0  0.42969  0.71331  0.11502  1.0000
  C   C121      1.0  0.59603  0.25181  0.29193  1.0000
  C   C122      1.0  0.58715  0.22875  0.33374  1.0000
  C   C123      1.0  0.64983  0.24714  0.34143  1.0000
  N   N36       1.0  0.62649  0.26015  0.29914  1.0000
  C   C124      1.0  0.57455  0.26803  0.23819  1.0000
  C   C125      1.0  0.58518  0.27442  0.14148  1.0000
  C   C126      1.0  0.55675  0.25697  0.15660  1.0000
  H   H104      1.0  0.56293  0.28371  0.27204  1.0000
  H   H105      1.0  0.53339  0.26507  0.14241  1.0000
  H   H106      1.0  0.56107  0.23724  0.14082  1.0000
  H   H107      1.0  0.60641  0.26512  0.11500  1.0000
  H   H108      1.0  0.57898  0.29307  0.11670  1.0000
  C   C127      1.0  0.41533  0.06761  0.34520  1.0000
  N   N37       1.0  0.43309  0.04619  0.34737  1.0000
  C   C128      1.0  0.46561  0.04701  0.35321  1.0000
  N   N38       1.0  0.48022  0.06983  0.35681  1.0000
  C   C129      1.0  0.46326  0.09153  0.35528  1.0000
  N   N39       1.0  0.43098  0.08995  0.34953  1.0000
  C   C130      1.0  0.59288  0.93881  0.35250  1.0000
  N   N40       1.0  0.57488  0.96007  0.35532  1.0000
  C   C131      1.0  0.54224  0.95937  0.35629  1.0000
  N   N41       1.0  0.52791  0.93638  0.35423  1.0000
  C   C132      1.0  0.54503  0.91475  0.35295  1.0000
  N   N42       1.0  0.57731  0.91647  0.35204  1.0000
  C   C133      1.0  0.09473  0.56760  0.34159  1.0000
  N   N43       1.0  0.07698  0.54618  0.33941  1.0000
  C   C134      1.0  0.04446  0.54700  0.33357  1.0000
  N   N44       1.0  0.02985  0.56982  0.32998  1.0000
  C   C135      1.0  0.04681  0.59152  0.33151  1.0000
  N   N45       1.0  0.07908  0.58994  0.33727  1.0000
  C   C136      1.0  0.91718  0.43881  0.33435  1.0000
  N   N46       1.0  0.93518  0.46006  0.33147  1.0000
  C   C137      1.0  0.96783  0.45936  0.33048  1.0000
  N   N47       1.0  0.98215  0.43636  0.33255  1.0000
  C   C138      1.0  0.96503  0.41474  0.33383  1.0000
  N   N48       1.0  0.93274  0.41646  0.33479  1.0000
  C   C139      1.0  0.40437  0.45285  0.33331  1.0000
  N   N49       1.0  0.38020  0.46996  0.33527  1.0000
  C   C140      1.0  0.38561  0.49512  0.34458  1.0000
  N   N50       1.0  0.41676  0.50251  0.35003  1.0000
  C   C141      1.0  0.44170  0.48617  0.34734  1.0000
  N   N51       1.0  0.43483  0.46139  0.33950  1.0000
  C   C142      1.0  0.60754  0.55297  0.33865  1.0000
  N   N52       1.0  0.63177  0.53597  0.33489  1.0000
  C   C143      1.0  0.62643  0.51075  0.34042  1.0000
  N   N53       1.0  0.59542  0.50316  0.34771  1.0000
  C   C144      1.0  0.57027  0.51933  0.35215  1.0000
  N   N54       1.0  0.57731  0.54416  0.34744  1.0000
  C   C145      1.0  0.10569  0.95286  0.35345  1.0000
  N   N55       1.0  0.12986  0.96997  0.35151  1.0000
  C   C146      1.0  0.12445  0.99512  0.34223  1.0000
  N   N56       1.0  0.09330  0.00252  0.33679  1.0000
  C   C147      1.0  0.06836  0.98617  0.33946  1.0000
  N   N57       1.0  0.07523  0.96139  0.34727  1.0000
  C   C148      1.0  0.90251  0.05297  0.34814  1.0000
  N   N58       1.0  0.87829  0.03596  0.35187  1.0000
  C   C149      1.0  0.88362  0.01075  0.34634  1.0000
  N   N59       1.0  0.91464  0.00315  0.33908  1.0000
  C   C150      1.0  0.93979  0.01933  0.33469  1.0000
  N   N60       1.0  0.93274  0.04416  0.33938  1.0000
  C   C151      1.0  0.28108  0.07787  0.33407  1.0000
  N   N61       1.0  0.25789  0.05986  0.33962  1.0000
  C   C152      1.0  0.22617  0.06599  0.34399  1.0000
  N   N62       1.0  0.21804  0.09080  0.34440  1.0000
  C   C153      1.0  0.24035  0.10925  0.34103  1.0000
  N   N63       1.0  0.27127  0.10214  0.33572  1.0000
  C   C154      1.0  0.72713  0.92825  0.34733  1.0000
  N   N64       1.0  0.75028  0.94629  0.35270  1.0000
  C   C155      1.0  0.78198  0.94016  0.35604  1.0000
  N   N65       1.0  0.79019  0.91538  0.35526  1.0000
  C   C156      1.0  0.76794  0.89690  0.35208  1.0000
  N   N66       1.0  0.73695  0.90396  0.34777  1.0000
  C   C157      1.0  0.22899  0.57788  0.35273  1.0000
  N   N67       1.0  0.25218  0.55986  0.34722  1.0000
  C   C158      1.0  0.28390  0.56599  0.34293  1.0000
  N   N68       1.0  0.29204  0.59079  0.34250  1.0000
  C   C159      1.0  0.26973  0.60925  0.34584  1.0000
  N   N69       1.0  0.23880  0.60215  0.35109  1.0000
  C   C160      1.0  0.78293  0.42827  0.33951  1.0000
  N   N70       1.0  0.75978  0.44631  0.33408  1.0000
  C   C161      1.0  0.72808  0.44017  0.33067  1.0000
  N   N71       1.0  0.71988  0.41539  0.33145  1.0000
  C   C162      1.0  0.74214  0.39691  0.33469  1.0000
  N   N72       1.0  0.77313  0.40397  0.33905  1.0000
  C   C163      1.0  0.34892  0.31253  0.32988  1.0000
  N   N73       1.0  0.35360  0.33770  0.32367  1.0000
  C   C164      1.0  0.38354  0.34790  0.32391  1.0000
  N   N74       1.0  0.40891  0.33187  0.33141  1.0000
  C   C165      1.0  0.40493  0.30658  0.33588  1.0000
  N   N75       1.0  0.37484  0.29756  0.33563  1.0000
  C   C166      1.0  0.66129  0.69365  0.33668  1.0000
  N   N76       1.0  0.65682  0.66845  0.33124  1.0000
  C   C167      1.0  0.62698  0.65809  0.33105  1.0000
  N   N77       1.0  0.60143  0.67400  0.33714  1.0000
  C   C168      1.0  0.60520  0.69933  0.34074  1.0000
  N   N78       1.0  0.63522  0.70851  0.34101  1.0000
  C   C169      1.0  0.16112  0.81253  0.35664  1.0000
  N   N79       1.0  0.15645  0.83770  0.36296  1.0000
  C   C170      1.0  0.12651  0.84791  0.36279  1.0000
  N   N80       1.0  0.10114  0.83188  0.35532  1.0000
  C   C171      1.0  0.10510  0.80659  0.35083  1.0000
  N   N81       1.0  0.13520  0.79756  0.35101  1.0000
  C   C172      1.0  0.84875  0.19364  0.34986  1.0000
  N   N82       1.0  0.85322  0.16844  0.35542  1.0000
  C   C173      1.0  0.88307  0.15809  0.35570  1.0000
  N   N83       1.0  0.90862  0.17400  0.34960  1.0000
  C   C174      1.0  0.90484  0.19933  0.34596  1.0000
  N   N84       1.0  0.87481  0.20850  0.34560  1.0000
  C   C175      1.0  0.23687  0.25519  0.33393  1.0000
  N   N85       1.0  0.20682  0.26468  0.33358  1.0000
  C   C176      1.0  0.18104  0.24929  0.33801  1.0000
  N   N86       1.0  0.18581  0.22406  0.34273  1.0000
  C   C177      1.0  0.21543  0.21367  0.34179  1.0000
  N   N87       1.0  0.24047  0.22985  0.33764  1.0000
  C   C178      1.0  0.77332  0.75109  0.34044  1.0000
  N   N88       1.0  0.80341  0.74169  0.33856  1.0000
  C   C179      1.0  0.82919  0.75710  0.34196  1.0000
  N   N89       1.0  0.82435  0.78234  0.34721  1.0000
  C   C180      1.0  0.79467  0.79267  0.34759  1.0000
  N   N90       1.0  0.76971  0.77642  0.34436  1.0000
  C   C181      1.0  0.27317  0.75519  0.35277  1.0000
  N   N91       1.0  0.30323  0.76468  0.35312  1.0000
  C   C182      1.0  0.32901  0.74930  0.34873  1.0000
  N   N92       1.0  0.32425  0.72407  0.34403  1.0000
  C   C183      1.0  0.29463  0.71368  0.34498  1.0000
  N   N93       1.0  0.26959  0.72985  0.34910  1.0000
  C   C184      1.0  0.73675  0.25110  0.34628  1.0000
  N   N94       1.0  0.70665  0.24170  0.34820  1.0000
  C   C185      1.0  0.68088  0.25712  0.34485  1.0000
  N   N95       1.0  0.68572  0.28235  0.33958  1.0000
  C   C186      1.0  0.71540  0.29268  0.33916  1.0000
  N   N96       1.0  0.74036  0.27643  0.34236  1.0000
  C   C187      1.0  0.01477  0.31653  0.32976  1.0000
  N   N97       1.0  0.04604  0.30988  0.33945  1.0000
  C   C188      1.0  0.05510  0.28533  0.34620  1.0000
  N   N98       1.0  0.03198  0.26757  0.34107  1.0000
  C   C189      1.0  0.00069  0.27313  0.33205  1.0000
  N   N99       1.0  0.99278  0.29777  0.32792  1.0000
  C   C190      1.0  0.99546  0.68931  0.32585  1.0000
  N   N100      1.0  0.96421  0.69597  0.33667  1.0000
  C   C191      1.0  0.95515  0.72052  0.34468  1.0000
  N   N101      1.0  0.97832  0.73825  0.33978  1.0000
  C   C192      1.0  0.00957  0.73270  0.32984  1.0000
  N   N102      1.0  0.01744  0.70808  0.32452  1.0000
  C   C193      1.0  0.49528  0.81654  0.35701  1.0000
  N   N103      1.0  0.46402  0.80989  0.34736  1.0000
  C   C194      1.0  0.45495  0.78534  0.34065  1.0000
  N   N104      1.0  0.47807  0.76758  0.34576  1.0000
  C   C195      1.0  0.50936  0.77314  0.35473  1.0000
  N   N105      1.0  0.51727  0.79778  0.35886  1.0000
  C   C196      1.0  0.51461  0.18932  0.36094  1.0000
  N   N106      1.0  0.54586  0.19599  0.35019  1.0000
  C   C197      1.0  0.55492  0.22054  0.34217  1.0000
  N   N107      1.0  0.53174  0.23826  0.34701  1.0000
  C   C198      1.0  0.50049  0.23271  0.35691  1.0000
  N   N108      1.0  0.49262  0.20808  0.36225  1.0000
  C   C199      1.0  0.53331  0.00480  0.39767  1.0000
  C   C200      1.0  0.52320  0.98170  0.35885  1.0000
  C   C201      1.0  0.48438  0.02497  0.35561  1.0000
  N   N109      1.0  0.51394  0.02526  0.39301  1.0000
  C   C202      1.0  0.56353  0.00824  0.44773  1.0000
  C   C203      1.0  0.56261  0.02061  0.54151  1.0000
  C   C204      1.0  0.56842  0.99238  0.53346  1.0000
  H   H109      1.0  0.58529  0.01158  0.40921  1.0000
  H   H110      1.0  0.59280  0.98634  0.54724  1.0000
  H   H111      1.0  0.54859  0.98063  0.55577  1.0000
  H   H112      1.0  0.53931  0.02572  0.56894  1.0000
  H   H113      1.0  0.58349  0.03161  0.56043  1.0000
  C   C205      1.0  0.01812  0.48176  0.36458  1.0000
  N   N110      1.0  0.03631  0.50286  0.36517  1.0000
  H   H114      1.0  0.02753  0.46600  0.39333  1.0000
  C   C206      1.0  0.32948  0.05274  0.37118  1.0000
  N   N111      1.0  0.36191  0.05069  0.37538  1.0000
  H   H115      1.0  0.31606  0.03983  0.40508  1.0000
  C   C207      1.0  0.67862  0.95315  0.38589  1.0000
  N   N112      1.0  0.64617  0.95530  0.38864  1.0000
  H   H116      1.0  0.69191  0.96566  0.42204  1.0000
  C   C208      1.0  0.17413  0.59002  0.40463  1.0000
  C   C209      1.0  0.19536  0.57327  0.35969  1.0000
  C   C210      1.0  0.12840  0.56786  0.34992  1.0000
  N   N113      1.0  0.14215  0.58698  0.39585  1.0000
  C   C211      1.0  0.18397  0.61134  0.46233  1.0000
  C   C212      1.0  0.17064  0.61223  0.55902  1.0000
  C   C213      1.0  0.20591  0.60631  0.54358  1.0000
  H   H117      1.0  0.18643  0.62978  0.43112  1.0000
  H   H118      1.0  0.22249  0.62133  0.56079  1.0000
  H   H119      1.0  0.21276  0.58687  0.55635  1.0000
  H   H120      1.0  0.15644  0.59633  0.58230  1.0000
  H   H121      1.0  0.16594  0.63082  0.58678  1.0000
  C   C214      1.0  0.83745  0.41685  0.39525  1.0000
  C   C215      1.0  0.81649  0.43304  0.34694  1.0000
  C   C216      1.0  0.88345  0.43858  0.33995  1.0000
  N   N114      1.0  0.86945  0.41994  0.38781  1.0000
  C   C217      1.0  0.82727  0.39620  0.45553  1.0000
  C   C218      1.0  0.83999  0.39640  0.55293  1.0000
  C   C219      1.0  0.80484  0.40217  0.53486  1.0000
  H   H122      1.0  0.82492  0.37743  0.42690  1.0000
  H   H123      1.0  0.78812  0.38737  0.55348  1.0000
  H   H124      1.0  0.79796  0.42175  0.54449  1.0000
  H   H125      1.0  0.85409  0.41255  0.57453  1.0000
  H   H126      1.0  0.84448  0.37815  0.58362  1.0000
  C   C220      1.0  0.47613  0.15709  0.41850  1.0000
  C   C221      1.0  0.50370  0.16399  0.36819  1.0000
  C   C222      1.0  0.47803  0.11525  0.36107  1.0000
  N   N115      1.0  0.46417  0.13350  0.41113  1.0000
  C   C223      1.0  0.45920  0.17385  0.48215  1.0000
  C   C224      1.0  0.45509  0.16457  0.57978  1.0000
  C   C225      1.0  0.47817  0.18605  0.55951  1.0000
  H   H127      1.0  0.43901  0.18471  0.45699  1.0000
  H   H128      1.0  0.47016  0.20462  0.58051  1.0000
  H   H129      1.0  0.50342  0.18126  0.56536  1.0000
  H   H130      1.0  0.46663  0.14697  0.59874  1.0000
  H   H131      1.0  0.43322  0.17018  0.61414  1.0000
  C   C226      1.0  0.53346  0.84900  0.41368  1.0000
  C   C227      1.0  0.50596  0.84190  0.36352  1.0000
  C   C228      1.0  0.53066  0.89088  0.35696  1.0000
  N   N116      1.0  0.54489  0.87273  0.40664  1.0000
  C   C229      1.0  0.55080  0.83241  0.47697  1.0000
  C   C230      1.0  0.55538  0.84170  0.57441  1.0000
  C   C231      1.0  0.53212  0.82027  0.55505  1.0000
  H   H132      1.0  0.57072  0.82138  0.45104  1.0000
  H   H133      1.0  0.54015  0.80170  0.57591  1.0000
  H   H134      1.0  0.50693  0.82514  0.56185  1.0000
  H   H135      1.0  0.54404  0.85935  0.59362  1.0000
  H   H136      1.0  0.57740  0.83606  0.60792  1.0000
  C   C232      1.0  0.99150  0.64433  0.36716  1.0000
  N   N117      1.0  0.00451  0.62092  0.36963  1.0000
  H   H137      1.0  0.97156  0.64765  0.40484  1.0000
  C   C233      1.0  0.01939  0.36143  0.37138  1.0000
  N   N118      1.0  0.00686  0.38499  0.37358  1.0000
  H   H138      1.0  0.03938  0.35794  0.40872  1.0000
  C   C234      1.0  0.51218  0.52557  0.39322  1.0000
  C   C235      1.0  0.53780  0.51095  0.35791  1.0000
  C   C236      1.0  0.47382  0.49430  0.35204  1.0000
  N   N119      1.0  0.48164  0.51695  0.38739  1.0000
  C   C237      1.0  0.51616  0.54992  0.43986  1.0000
  C   C238      1.0  0.50072  0.55330  0.53327  1.0000
  C   C239      1.0  0.53692  0.55057  0.52551  1.0000
  H   H139      1.0  0.51713  0.56693  0.39905  1.0000
  H   H140      1.0  0.55048  0.56776  0.53677  1.0000
  H   H141      1.0  0.54647  0.53277  0.54996  1.0000
  H   H142      1.0  0.48873  0.53715  0.56332  1.0000
  H   H143      1.0  0.49243  0.57214  0.54981  1.0000
  C   C240      1.0  0.98100  0.98707  0.36264  1.0000
  N   N120      1.0  0.01198  0.97961  0.36473  1.0000
  H   H144      1.0  0.96431  0.97521  0.38910  1.0000
  C   C241      1.0  0.41605  0.38516  0.35967  1.0000
  N   N121      1.0  0.42044  0.41034  0.36203  1.0000
  H   H145      1.0  0.43314  0.37418  0.38885  1.0000
  C   C242      1.0  0.59509  0.62055  0.36769  1.0000
  N   N122      1.0  0.59104  0.59532  0.36980  1.0000
  H   H146      1.0  0.57796  0.63139  0.39743  1.0000
  C   C243      1.0  0.14356  0.89201  0.40448  1.0000
  C   C244      1.0  0.12176  0.87452  0.36578  1.0000
  C   C245      1.0  0.11128  0.92676  0.35853  1.0000
  N   N123      1.0  0.13779  0.91711  0.39794  1.0000
  C   C246      1.0  0.17230  0.88480  0.45631  1.0000
  C   C247      1.0  0.17753  0.89640  0.55022  1.0000
  C   C248      1.0  0.16738  0.86895  0.54204  1.0000
  H   H147      1.0  0.19408  0.88048  0.41917  1.0000
  H   H148      1.0  0.18598  0.85525  0.55714  1.0000
  H   H149      1.0  0.14289  0.86508  0.56293  1.0000
  H   H150      1.0  0.15910  0.90893  0.57636  1.0000
  H   H151      1.0  0.20225  0.89929  0.57061  1.0000
  C   C249      1.0  0.86555  0.11419  0.39783  1.0000
  C   C250      1.0  0.88748  0.13145  0.35844  1.0000
  C   C251      1.0  0.89724  0.07913  0.35161  1.0000
  N   N124      1.0  0.87101  0.08904  0.39162  1.0000
  C   C252      1.0  0.83704  0.12166  0.45018  1.0000
  C   C253      1.0  0.83189  0.11019  0.54433  1.0000
  C   C254      1.0  0.84236  0.13756  0.53563  1.0000
  H   H152      1.0  0.81522  0.12613  0.41342  1.0000
  H   H153      1.0  0.82398  0.15141  0.55092  1.0000
  H   H154      1.0  0.86695  0.14125  0.55601  1.0000
  H   H155      1.0  0.85021  0.09753  0.57024  1.0000
  H   H156      1.0  0.80718  0.10752  0.56520  1.0000
  C   C255      1.0  0.36253  0.53757  0.38520  1.0000
  C   C256      1.0  0.35985  0.51299  0.34801  1.0000
  C   C257      1.0  0.30863  0.54777  0.34398  1.0000
  N   N125      1.0  0.33743  0.55370  0.38001  1.0000
  C   C258      1.0  0.39081  0.54722  0.43396  1.0000
  C   C259      1.0  0.38634  0.56000  0.52622  1.0000
  C   C260      1.0  0.40036  0.53356  0.52145  1.0000
  H   H157      1.0  0.41096  0.55407  0.39445  1.0000
  H   H158      1.0  0.42586  0.53230  0.53526  1.0000
  H   H159      1.0  0.38459  0.51872  0.54577  1.0000
  H   H160      1.0  0.36221  0.56097  0.55376  1.0000
  H   H161      1.0  0.40341  0.57470  0.54313  1.0000
  C   C261      1.0  0.65060  0.46900  0.38264  1.0000
  C   C262      1.0  0.65225  0.49300  0.34063  1.0000
  C   C263      1.0  0.70340  0.45836  0.33296  1.0000
  N   N126      1.0  0.67561  0.45285  0.37551  1.0000
  C   C264      1.0  0.62378  0.46024  0.43947  1.0000
  C   C265      1.0  0.63107  0.44961  0.53379  1.0000
  C   C266      1.0  0.61589  0.47556  0.52471  1.0000
  H   H162      1.0  0.60306  0.45201  0.40616  1.0000
  H   H163      1.0  0.59073  0.47658  0.54318  1.0000
  H   H164      1.0  0.63160  0.49121  0.54153  1.0000
  H   H165      1.0  0.65585  0.44978  0.55659  1.0000
  H   H166      1.0  0.61509  0.43497  0.55824  1.0000
  C   C267      1.0  0.18083  0.00699  0.37363  1.0000
  N   N127      1.0  0.20507  0.02404  0.37452  1.0000
  H   H167      1.0  0.18525  0.98973  0.40076  1.0000
  C   C268      1.0  0.82815  0.99865  0.38757  1.0000
  N   N128      1.0  0.80388  0.98165  0.39005  1.0000
  H   H168      1.0  0.82457  0.01556  0.41828  1.0000
  C   C269      1.0  0.19904  0.16934  0.38298  1.0000
  C   C270      1.0  0.22056  0.18712  0.34478  1.0000
  C   C271      1.0  0.23296  0.13512  0.34118  1.0000
  N   N129      1.0  0.20583  0.14433  0.37864  1.0000
  C   C272      1.0  0.16970  0.17624  0.43261  1.0000
  C   C273      1.0  0.16341  0.16468  0.52604  1.0000
  C   C274      1.0  0.17386  0.19208  0.51872  1.0000
  H   H169      1.0  0.14841  0.18088  0.39371  1.0000
  H   H170      1.0  0.15523  0.20584  0.53249  1.0000
  H   H171      1.0  0.19814  0.19580  0.54179  1.0000
  H   H172      1.0  0.18145  0.15203  0.55354  1.0000
  H   H173      1.0  0.13846  0.16191  0.54431  1.0000
  C   C275      1.0  0.81069  0.83713  0.38858  1.0000
  C   C276      1.0  0.78916  0.81919  0.35143  1.0000
  C   C277      1.0  0.77569  0.87108  0.35090  1.0000
  N   N130      1.0  0.80335  0.86207  0.38575  1.0000
  C   C278      1.0  0.84067  0.83046  0.43551  1.0000
  C   C279      1.0  0.84787  0.84199  0.52848  1.0000
  C   C280      1.0  0.83761  0.81453  0.52177  1.0000
  H   H174      1.0  0.86155  0.82595  0.39470  1.0000
  H   H175      1.0  0.85653  0.80088  0.53375  1.0000
  H   H176      1.0  0.81363  0.81063  0.54694  1.0000
  H   H177      1.0  0.83001  0.85450  0.55768  1.0000
  H   H178      1.0  0.87298  0.84490  0.54453  1.0000
  C   C281      1.0  0.26121  0.67693  0.37906  1.0000
  N   N131      1.0  0.25589  0.65187  0.37944  1.0000
  H   H179      1.0  0.24424  0.68815  0.40767  1.0000
  C   C282      1.0  0.74977  0.32919  0.36971  1.0000
  N   N132      1.0  0.75562  0.35418  0.36864  1.0000
  H   H180      1.0  0.76681  0.31786  0.39736  1.0000
  C   C283      1.0  0.29022  0.26580  0.39556  1.0000
  C   C284      1.0  0.26395  0.27108  0.33823  1.0000
  C   C285      1.0  0.31909  0.30063  0.33536  1.0000
  N   N133      1.0  0.31663  0.28030  0.38986  1.0000
  C   C286      1.0  0.29112  0.24549  0.46362  1.0000
  C   C287      1.0  0.29986  0.25246  0.56127  1.0000
  C   C288      1.0  0.26546  0.24544  0.53796  1.0000
  H   H181      1.0  0.29920  0.22694  0.44245  1.0000
  H   H182      1.0  0.25774  0.22705  0.56160  1.0000
  H   H183      1.0  0.24859  0.26106  0.53918  1.0000
  H   H184      1.0  0.30351  0.27228  0.57687  1.0000
  H   H185      1.0  0.31287  0.23833  0.59964  1.0000
  C   C289      1.0  0.71963  0.74083  0.40093  1.0000
  C   C290      1.0  0.74620  0.73521  0.34512  1.0000
  C   C291      1.0  0.69105  0.70567  0.34215  1.0000
  N   N134      1.0  0.69323  0.72631  0.39521  1.0000
  C   C292      1.0  0.71830  0.76152  0.46742  1.0000
  C   C293      1.0  0.70909  0.75507  0.56517  1.0000
  C   C294      1.0  0.74355  0.76211  0.54282  1.0000
  H   H186      1.0  0.71014  0.77990  0.44460  1.0000
  H   H187      1.0  0.75102  0.78068  0.56537  1.0000
  H   H188      1.0  0.76053  0.74659  0.54583  1.0000
  H   H189      1.0  0.70551  0.73533  0.58211  1.0000
  H   H190      1.0  0.69578  0.76936  0.60197  1.0000
  C   C295      1.0  0.24374  0.79303  0.40179  1.0000
  N   N135      1.0  0.21648  0.80693  0.40274  1.0000
  H   H191      1.0  0.26187  0.79812  0.44397  1.0000
  C   C296      1.0  0.76599  0.21298  0.39354  1.0000
  N   N136      1.0  0.79323  0.19909  0.39452  1.0000
  H   H192      1.0  0.74769  0.20769  0.43484  1.0000
  C   C297      1.0  0.48160  0.27656  0.39135  1.0000
  C   C298      1.0  0.47699  0.25191  0.35652  1.0000
  C   C299      1.0  0.42987  0.28898  0.34131  1.0000
  N   N137      1.0  0.45818  0.29410  0.38151  1.0000
  C   C300      1.0  0.51007  0.28440  0.44321  1.0000
  C   C301      1.0  0.50468  0.29590  0.53722  1.0000
  C   C302      1.0  0.51914  0.26967  0.52878  1.0000
  H   H193      1.0  0.52995  0.29275  0.40661  1.0000
  H   H194      1.0  0.54458  0.26840  0.54353  1.0000
  H   H195      1.0  0.50341  0.25437  0.54936  1.0000
  H   H196      1.0  0.48038  0.29624  0.56365  1.0000
  H   H197      1.0  0.52143  0.31045  0.55809  1.0000
  C   C303      1.0  0.52826  0.72949  0.39239  1.0000
  C   C304      1.0  0.53285  0.75392  0.35568  1.0000
  C   C305      1.0  0.58012  0.71686  0.34415  1.0000
  N   N138      1.0  0.55175  0.71194  0.38435  1.0000
  C   C306      1.0  0.49972  0.72193  0.44451  1.0000
  C   C307      1.0  0.50475  0.71070  0.53908  1.0000
  C   C308      1.0  0.49092  0.73711  0.52934  1.0000
  H   H198      1.0  0.47954  0.71398  0.40802  1.0000
  H   H199      1.0  0.46552  0.73879  0.54399  1.0000
  H   H200      1.0  0.50700  0.75223  0.54944  1.0000
  H   H201      1.0  0.52904  0.71008  0.56556  1.0000
  H   H202      1.0  0.48766  0.69646  0.56039  1.0000
  C   C309      1.0  0.06306  0.74703  0.36977  1.0000
  N   N139      1.0  0.08529  0.76531  0.37575  1.0000
  H   H203      1.0  0.06846  0.72987  0.39645  1.0000
  C   C310      1.0  0.94714  0.25862  0.37061  1.0000
  N   N140      1.0  0.92483  0.24036  0.37468  1.0000
  H   H204      1.0  0.94174  0.27563  0.39846  1.0000
  C   C311      1.0  0.09659  0.25434  0.39510  1.0000
  C   C312      1.0  0.08738  0.27729  0.35328  1.0000
  C   C313      1.0  0.15004  0.25919  0.34306  1.0000
  N   N141      1.0  0.12705  0.24612  0.38666  1.0000
  C   C314      1.0  0.07543  0.23817  0.45007  1.0000
  C   C315      1.0  0.08655  0.23189  0.54642  1.0000
  C   C316      1.0  0.05813  0.24942  0.53219  1.0000
  H   H205      1.0  0.06342  0.22256  0.41689  1.0000
  H   H206      1.0  0.03482  0.24142  0.54765  1.0000
  H   H207      1.0  0.06267  0.26914  0.54752  1.0000
  H   H208      1.0  0.10798  0.24115  0.57176  1.0000
  H   H209      1.0  0.08038  0.21330  0.57179  1.0000
  C   C317      1.0  0.91403  0.75180  0.39488  1.0000
  C   C318      1.0  0.92291  0.72873  0.35314  1.0000
  C   C319      1.0  0.86023  0.74713  0.34538  1.0000
  N   N142      1.0  0.88357  0.76014  0.38767  1.0000
  C   C320      1.0  0.93551  0.76802  0.44863  1.0000
  C   C321      1.0  0.92487  0.77441  0.54534  1.0000
  C   C322      1.0  0.95331  0.75695  0.53024  1.0000
  H   H210      1.0  0.94714  0.78370  0.41480  1.0000
  H   H211      1.0  0.97666  0.76505  0.54445  1.0000
  H   H212      1.0  0.94898  0.73723  0.54602  1.0000
  H   H213      1.0  0.90364  0.76511  0.57181  1.0000
  H   H214      1.0  0.93108  0.79306  0.57013  1.0000
  C   C323      1.0  0.39792  0.79113  0.37522  1.0000
  N   N143      1.0  0.36776  0.78187  0.37921  1.0000
  H   H215      1.0  0.40248  0.80778  0.40672  1.0000
  C   C324      1.0  0.61226  0.21501  0.37408  1.0000
  N   N144      1.0  0.64238  0.22439  0.37686  1.0000
  H   H216      1.0  0.60798  0.19829  0.40550  1.0000
