data_image0
_chemical_formula_structural       CNCHCNCHCNCHCNCHNC3H3NC3H3CNCHCNCHNC3H3NC3H3CNCHCNCHCNCHCNCHNC3H3NC3H3NC3H3NC3H3C6H3C6H3C6H3C6H3C6H3C6H3C6H3C6H3C6H3C6H3C6H3C6H3NC3H3NC3H3NC3H3NC3H3CNCHCNCHNC3H3NC3H3CNCHCNCHNC3H3NC3H3NC3H3NC3H3CNCHCNCHCNCHCNCHCNCHCNCHCNCHCNCHNC3H3NC3H3CNCHCNCHNC3H3NC3H3CNCHCNCHCNCHCNCHNC3H3NC3H3NC3H3NC3H3C6H3C6H3C6H3C6H3C6H3C6H3C6H3C6H3C6H3C6H3C6H3C6H3NC3H3NC3H3NC3H3NC3H3CNCHCNCHNC3H3NC3H3CNCHCNCHNC3H3NC3H3NC3H3NC3H3CNCHCNCHCNCHCNCH
_chemical_formula_sum              "C324 N72 H216"
_cell_length_a       42.6134
_cell_length_b       55.2468
_cell_length_c       14.8798
_cell_angle_alpha    90
_cell_angle_beta     90
_cell_angle_gamma    90

_space_group_name_H-M_alt    "P 1"
_space_group_IT_number       1

loop_
  _space_group_symop_operation_xyz
  'x, y, z'

loop_
  _atom_site_type_symbol
  _atom_site_label
  _atom_site_symmetry_multiplicity
  _atom_site_fract_x
  _atom_site_fract_y
  _atom_site_fract_z
  _atom_site_occupancy
  C   C1        1.0  0.22120  0.17003  0.38052  1.0000
  N   N1        1.0  0.27110  0.15290  0.34123  1.0000
  C   C2        1.0  0.23910  0.15101  0.34254  1.0000
  H   H1        1.0  0.22872  0.13769  0.30547  1.0000
  C   C3        1.0  0.28535  0.83823  0.38185  1.0000
  N   N2        1.0  0.23556  0.85534  0.34125  1.0000
  C   C4        1.0  0.26754  0.85727  0.34357  1.0000
  H   H2        1.0  0.27798  0.87069  0.30717  1.0000
  C   C5        1.0  0.47075  0.67044  0.37560  1.0000
  N   N3        1.0  0.02080  0.65321  0.33801  1.0000
  C   C6        1.0  0.48879  0.65124  0.33933  1.0000
  H   H3        1.0  0.47856  0.63765  0.30340  1.0000
  C   C7        1.0  0.03581  0.33785  0.37820  1.0000
  N   N4        1.0  0.48580  0.35491  0.33923  1.0000
  C   C8        1.0  0.01778  0.35694  0.34115  1.0000
  H   H4        1.0  0.02809  0.37056  0.30548  1.0000
  N   N5        1.0  0.05892  0.13103  0.27971  1.0000
  C   C9        1.0  0.08122  0.14835  0.27348  1.0000
  C   C10       1.0  0.11071  0.14368  0.31504  1.0000
  C   C11       1.0  0.07286  0.16889  0.21400  1.0000
  H   H5        1.0  0.06208  0.16212  0.15235  1.0000
  H   H6        1.0  0.09334  0.17941  0.19395  1.0000
  H   H7        1.0  0.05606  0.18069  0.24787  1.0000
  N   N6        1.0  0.44744  0.87765  0.28249  1.0000
  C   C12       1.0  0.42514  0.86034  0.27608  1.0000
  C   C13       1.0  0.39581  0.86488  0.31867  1.0000
  C   C14       1.0  0.43335  0.83994  0.21576  1.0000
  H   H8        1.0  0.44392  0.84687  0.15405  1.0000
  H   H9        1.0  0.41283  0.82944  0.19593  1.0000
  H   H10       1.0  0.45029  0.82810  0.24885  1.0000
  C   C15       1.0  0.44758  0.10876  0.33974  1.0000
  N   N7        1.0  0.39342  0.12025  0.32619  1.0000
  C   C16       1.0  0.41591  0.10256  0.32291  1.0000
  H   H11       1.0  0.40996  0.08578  0.29991  1.0000
  C   C17       1.0  0.05904  0.89931  0.33853  1.0000
  N   N8        1.0  0.11317  0.88780  0.32400  1.0000
  C   C18       1.0  0.09068  0.90550  0.32103  1.0000
  H   H12       1.0  0.09660  0.92227  0.29785  1.0000
  N   N9        1.0  0.30837  0.63086  0.27700  1.0000
  C   C19       1.0  0.33073  0.64810  0.26971  1.0000
  C   C20       1.0  0.36036  0.64348  0.31062  1.0000
  C   C21       1.0  0.32230  0.66853  0.20974  1.0000
  H   H13       1.0  0.31146  0.66162  0.14837  1.0000
  H   H14       1.0  0.34274  0.67902  0.18924  1.0000
  H   H15       1.0  0.30553  0.68038  0.24343  1.0000
  N   N10       1.0  0.19784  0.37783  0.27909  1.0000
  C   C22       1.0  0.17545  0.36062  0.27156  1.0000
  C   C23       1.0  0.14603  0.36508  0.31389  1.0000
  C   C24       1.0  0.18370  0.34032  0.21083  1.0000
  H   H16       1.0  0.19428  0.34736  0.14931  1.0000
  H   H17       1.0  0.16321  0.32983  0.19069  1.0000
  H   H18       1.0  0.20063  0.32843  0.24369  1.0000
  C   C25       1.0  0.19725  0.60841  0.34326  1.0000
  N   N11       1.0  0.14315  0.61997  0.32986  1.0000
  C   C26       1.0  0.16562  0.60229  0.32537  1.0000
  H   H19       1.0  0.15979  0.58580  0.29939  1.0000
  C   C27       1.0  0.30935  0.39950  0.34039  1.0000
  N   N12       1.0  0.36349  0.38794  0.32679  1.0000
  C   C28       1.0  0.34098  0.40561  0.32247  1.0000
  H   H20       1.0  0.34686  0.42224  0.29785  1.0000
  C   C29       1.0  0.12179  0.27895  0.37469  1.0000
  N   N13       1.0  0.15066  0.24476  0.32153  1.0000
  C   C30       1.0  0.14466  0.26883  0.31719  1.0000
  H   H21       1.0  0.15601  0.27897  0.26989  1.0000
  C   C31       1.0  0.38483  0.72943  0.37378  1.0000
  N   N14       1.0  0.35590  0.76375  0.32214  1.0000
  C   C32       1.0  0.36187  0.73969  0.31694  1.0000
  H   H22       1.0  0.35045  0.72967  0.26943  1.0000
  N   N15       1.0  0.39320  0.26450  0.24663  1.0000
  C   C33       1.0  0.38593  0.24049  0.24061  1.0000
  C   C34       1.0  0.36981  0.22963  0.31387  1.0000
  C   C35       1.0  0.39356  0.22761  0.15631  1.0000
  H   H23       1.0  0.40361  0.23991  0.10659  1.0000
  H   H24       1.0  0.37228  0.21970  0.12784  1.0000
  H   H25       1.0  0.41054  0.21329  0.16907  1.0000
  N   N16       1.0  0.11219  0.74356  0.24879  1.0000
  C   C36       1.0  0.11925  0.76759  0.24190  1.0000
  C   C37       1.0  0.13699  0.77837  0.31225  1.0000
  C   C38       1.0  0.10974  0.78047  0.15914  1.0000
  H   H26       1.0  0.09924  0.76805  0.11059  1.0000
  H   H27       1.0  0.13022  0.78882  0.12782  1.0000
  H   H28       1.0  0.09251  0.79441  0.17456  1.0000
  N   N17       1.0  0.02000  0.99057  0.27053  1.0000
  C   C39       1.0  0.02207  0.01511  0.26295  1.0000
  C   C40       1.0  0.00484  0.02961  0.32492  1.0000
  C   C41       1.0  0.04006  0.02476  0.18571  1.0000
  H   H29       1.0  0.04731  0.01026  0.14035  1.0000
  H   H30       1.0  0.06116  0.03396  0.20878  1.0000
  H   H31       1.0  0.52559  0.03742  0.14754  1.0000
  N   N18       1.0  0.26959  0.49056  0.26826  1.0000
  C   C42       1.0  0.27144  0.51511  0.26051  1.0000
  C   C43       1.0  0.25464  0.52953  0.32366  1.0000
  C   C44       1.0  0.28878  0.52486  0.18224  1.0000
  H   H32       1.0  0.29587  0.51039  0.13652  1.0000
  H   H33       1.0  0.30993  0.53421  0.20405  1.0000
  H   H34       1.0  0.27389  0.53741  0.14487  1.0000
  C   C45       1.0  0.14530  0.20448  0.37494  1.0000
  C   C46       1.0  0.17702  0.19816  0.38525  1.0000
  C   C47       1.0  0.18833  0.17419  0.37255  1.0000
  C   C48       1.0  0.16593  0.15628  0.34783  1.0000
  C   C49       1.0  0.13355  0.16175  0.33545  1.0000
  C   C50       1.0  0.12408  0.18605  0.35140  1.0000
  H   H35       1.0  0.17335  0.13888  0.33812  1.0000
  H   H36       1.0  0.10096  0.19065  0.34839  1.0000
  H   H37       1.0  0.19232  0.21195  0.39936  1.0000
  C   C51       1.0  0.36134  0.80391  0.37673  1.0000
  C   C52       1.0  0.32960  0.81018  0.38701  1.0000
  C   C53       1.0  0.31826  0.83416  0.37472  1.0000
  C   C54       1.0  0.34064  0.85214  0.35082  1.0000
  C   C55       1.0  0.37303  0.84674  0.33854  1.0000
  C   C56       1.0  0.38254  0.82241  0.35376  1.0000
  H   H38       1.0  0.33320  0.86955  0.34140  1.0000
  H   H39       1.0  0.40568  0.81785  0.35053  1.0000
  H   H40       1.0  0.31430  0.79635  0.40057  1.0000
  C   C57       1.0  0.36069  0.20491  0.32031  1.0000
  C   C58       1.0  0.32946  0.19904  0.34104  1.0000
  C   C59       1.0  0.31954  0.17502  0.35908  1.0000
  C   C60       1.0  0.34216  0.15623  0.35121  1.0000
  C   C61       1.0  0.37466  0.16163  0.34135  1.0000
  C   C62       1.0  0.38279  0.18601  0.32118  1.0000
  H   H41       1.0  0.33557  0.13892  0.36675  1.0000
  H   H42       1.0  0.40553  0.19037  0.30699  1.0000
  H   H43       1.0  0.31331  0.21276  0.33916  1.0000
  C   C63       1.0  0.14604  0.80316  0.31836  1.0000
  C   C64       1.0  0.17728  0.80913  0.33877  1.0000
  C   C65       1.0  0.18712  0.83313  0.35731  1.0000
  C   C66       1.0  0.16447  0.85190  0.34949  1.0000
  C   C67       1.0  0.13199  0.84646  0.33938  1.0000
  C   C68       1.0  0.12391  0.82205  0.31947  1.0000
  H   H44       1.0  0.17106  0.86921  0.36509  1.0000
  H   H45       1.0  0.10116  0.81767  0.30594  1.0000
  H   H46       1.0  0.19350  0.79546  0.33681  1.0000
  C   C69       1.0  0.39452  0.70467  0.36782  1.0000
  C   C70       1.0  0.42616  0.69828  0.38077  1.0000
  C   C71       1.0  0.43779  0.67438  0.36781  1.0000
  C   C72       1.0  0.41561  0.65635  0.34273  1.0000
  C   C73       1.0  0.38320  0.66162  0.33013  1.0000
  C   C74       1.0  0.37357  0.68591  0.34532  1.0000
  H   H47       1.0  0.42317  0.63898  0.33326  1.0000
  H   H48       1.0  0.35025  0.69006  0.34621  1.0000
  H   H49       1.0  0.44148  0.71210  0.39388  1.0000
  C   C75       1.0  0.11208  0.30373  0.36968  1.0000
  C   C76       1.0  0.08045  0.31007  0.38313  1.0000
  C   C77       1.0  0.06877  0.33397  0.37069  1.0000
  C   C78       1.0  0.09090  0.35207  0.34605  1.0000
  C   C79       1.0  0.12329  0.34686  0.33314  1.0000
  C   C80       1.0  0.13298  0.32255  0.34742  1.0000
  H   H50       1.0  0.08330  0.36945  0.33703  1.0000
  H   H51       1.0  0.15632  0.31842  0.34777  1.0000
  H   H52       1.0  0.06516  0.29621  0.39597  1.0000
  C   C81       1.0  0.11169  0.70463  0.32347  1.0000
  C   C82       1.0  0.07989  0.69912  0.33656  1.0000
  C   C83       1.0  0.06941  0.67529  0.35580  1.0000
  C   C84       1.0  0.09192  0.65628  0.35293  1.0000
  C   C85       1.0  0.12466  0.66131  0.34740  1.0000
  C   C86       1.0  0.13352  0.68564  0.32941  1.0000
  H   H53       1.0  0.08480  0.63904  0.36776  1.0000
  H   H54       1.0  0.15644  0.68980  0.31646  1.0000
  H   H55       1.0  0.06407  0.71302  0.33229  1.0000
  C   C87       1.0  0.39529  0.30328  0.32213  1.0000
  C   C88       1.0  0.42697  0.30882  0.33711  1.0000
  C   C89       1.0  0.43728  0.33271  0.35593  1.0000
  C   C90       1.0  0.41475  0.35168  0.35134  1.0000
  C   C91       1.0  0.38206  0.34659  0.34427  1.0000
  C   C92       1.0  0.37338  0.32223  0.32615  1.0000
  H   H56       1.0  0.42173  0.36896  0.36610  1.0000
  H   H57       1.0  0.35053  0.31799  0.31242  1.0000
  H   H58       1.0  0.44281  0.29490  0.33414  1.0000
  C   C93       1.0  0.03403  0.09431  0.32317  1.0000
  C   C94       1.0  0.50458  0.10617  0.32479  1.0000
  C   C95       1.0  0.47516  0.09427  0.33112  1.0000
  C   C96       1.0  0.47593  0.06863  0.32746  1.0000
  C   C97       1.0  0.00472  0.05554  0.32648  1.0000
  C   C98       1.0  0.03334  0.06877  0.32982  1.0000
  H   H59       1.0  0.45524  0.05926  0.32911  1.0000
  H   H60       1.0  0.05412  0.05958  0.33225  1.0000
  H   H61       1.0  0.50463  0.12466  0.32308  1.0000
  C   C99       1.0  0.47254  0.91416  0.32746  1.0000
  C   C100      1.0  0.00192  0.90216  0.32723  1.0000
  C   C101      1.0  0.03148  0.91389  0.33149  1.0000
  C   C102      1.0  0.03087  0.93952  0.32823  1.0000
  C   C103      1.0  0.50221  0.95269  0.33310  1.0000
  C   C104      1.0  0.47341  0.93968  0.33609  1.0000
  H   H62       1.0  0.05164  0.94880  0.33000  1.0000
  H   H63       1.0  0.45273  0.94908  0.33567  1.0000
  H   H64       1.0  0.00175  0.88367  0.32500  1.0000
  C   C105      1.0  0.28363  0.59424  0.32205  1.0000
  C   C106      1.0  0.25418  0.60607  0.32549  1.0000
  C   C107      1.0  0.22485  0.59407  0.33260  1.0000
  C   C108      1.0  0.22564  0.56845  0.32771  1.0000
  C   C109      1.0  0.25446  0.55544  0.32542  1.0000
  C   C110      1.0  0.28306  0.56868  0.32797  1.0000
  H   H65       1.0  0.20498  0.55904  0.33023  1.0000
  H   H66       1.0  0.30386  0.55951  0.32918  1.0000
  H   H67       1.0  0.25416  0.62458  0.32454  1.0000
  C   C111      1.0  0.22288  0.41419  0.32585  1.0000
  C   C112      1.0  0.25227  0.40219  0.32677  1.0000
  C   C113      1.0  0.28177  0.41399  0.33190  1.0000
  C   C114      1.0  0.28116  0.43960  0.32815  1.0000
  C   C115      1.0  0.25245  0.45272  0.33211  1.0000
  C   C116      1.0  0.22366  0.43970  0.33435  1.0000
  H   H68       1.0  0.30190  0.44891  0.33040  1.0000
  H   H69       1.0  0.20297  0.44909  0.33338  1.0000
  H   H70       1.0  0.25214  0.38369  0.32474  1.0000
  N   N19       1.0  0.23822  0.18666  0.42675  1.0000
  C   C117      1.0  0.26975  0.18793  0.43306  1.0000
  C   C118      1.0  0.28758  0.17108  0.38186  1.0000
  C   C119      1.0  0.28186  0.20616  0.49739  1.0000
  H   H71       1.0  0.26985  0.20418  0.56178  1.0000
  H   H72       1.0  0.27742  0.22435  0.47168  1.0000
  H   H73       1.0  0.30691  0.20408  0.51014  1.0000
  N   N20       1.0  0.26821  0.82153  0.42732  1.0000
  C   C120      1.0  0.23667  0.82021  0.43263  1.0000
  C   C121      1.0  0.21900  0.83706  0.38103  1.0000
  C   C122      1.0  0.22435  0.80188  0.49626  1.0000
  H   H74       1.0  0.23613  0.80379  0.56104  1.0000
  H   H75       1.0  0.22892  0.78373  0.47034  1.0000
  H   H76       1.0  0.19926  0.80392  0.50830  1.0000
  N   N21       1.0  0.48774  0.68742  0.42011  1.0000
  C   C123      1.0  0.01927  0.68889  0.42615  1.0000
  C   C124      1.0  0.03721  0.67173  0.37679  1.0000
  C   C125      1.0  0.03117  0.70756  0.48909  1.0000
  H   H77       1.0  0.01890  0.70606  0.55327  1.0000
  H   H78       1.0  0.02690  0.72555  0.46144  1.0000
  H   H79       1.0  0.05615  0.70552  0.50298  1.0000
  N   N22       1.0  0.01880  0.32086  0.42263  1.0000
  C   C126      1.0  0.48726  0.31933  0.42798  1.0000
  C   C127      1.0  0.46938  0.33639  0.37794  1.0000
  C   C128      1.0  0.47525  0.30077  0.49119  1.0000
  H   H80       1.0  0.48733  0.30244  0.55561  1.0000
  H   H81       1.0  0.47968  0.28273  0.46419  1.0000
  H   H82       1.0  0.45022  0.30277  0.50440  1.0000
  C   C129      1.0  0.06171  0.10872  0.31719  1.0000
  N   N23       1.0  0.11485  0.12055  0.34599  1.0000
  C   C130      1.0  0.09253  0.10277  0.34465  1.0000
  H   H83       1.0  0.09749  0.08646  0.37353  1.0000
  C   C131      1.0  0.44479  0.89984  0.32111  1.0000
  N   N24       1.0  0.39176  0.88791  0.35078  1.0000
  C   C132      1.0  0.41407  0.90570  0.34966  1.0000
  H   H84       1.0  0.40930  0.92189  0.37969  1.0000
  N   N25       1.0  0.45149  0.13161  0.37144  1.0000
  C   C133      1.0  0.42963  0.14909  0.38096  1.0000
  C   C134      1.0  0.39865  0.14381  0.35081  1.0000
  C   C135      1.0  0.44036  0.17028  0.43400  1.0000
  H   H85       1.0  0.45471  0.16430  0.49065  1.0000
  H   H86       1.0  0.42085  0.18052  0.46224  1.0000
  H   H87       1.0  0.45458  0.18213  0.39176  1.0000
  N   N26       1.0  0.05518  0.87646  0.37016  1.0000
  C   C136      1.0  0.07703  0.85895  0.37921  1.0000
  C   C137      1.0  0.10798  0.86425  0.34886  1.0000
  C   C138      1.0  0.06640  0.83780  0.43262  1.0000
  H   H88       1.0  0.05206  0.84380  0.48925  1.0000
  H   H89       1.0  0.08596  0.82763  0.46091  1.0000
  H   H90       1.0  0.05220  0.82588  0.39061  1.0000
  C   C139      1.0  0.31130  0.60862  0.31497  1.0000
  N   N27       1.0  0.36457  0.62040  0.34196  1.0000
  C   C140      1.0  0.34221  0.60264  0.34147  1.0000
  H   H91       1.0  0.34716  0.58639  0.37078  1.0000
  C   C141      1.0  0.19513  0.39991  0.31850  1.0000
  N   N28       1.0  0.14198  0.38802  0.34683  1.0000
  C   C142      1.0  0.16437  0.40576  0.34672  1.0000
  H   H92       1.0  0.15953  0.42189  0.37709  1.0000
  N   N29       1.0  0.20113  0.63090  0.37828  1.0000
  C   C143      1.0  0.17916  0.64821  0.38986  1.0000
  C   C144      1.0  0.14832  0.64326  0.35779  1.0000
  C   C145      1.0  0.18963  0.66893  0.44579  1.0000
  H   H93       1.0  0.20323  0.66239  0.50308  1.0000
  H   H94       1.0  0.17000  0.67919  0.47318  1.0000
  H   H95       1.0  0.20452  0.68091  0.40600  1.0000
  N   N30       1.0  0.30547  0.37691  0.37441  1.0000
  C   C146      1.0  0.32738  0.35951  0.38510  1.0000
  C   C147      1.0  0.35829  0.36458  0.35382  1.0000
  C   C148      1.0  0.31688  0.33877  0.44092  1.0000
  H   H96       1.0  0.30300  0.34525  0.49778  1.0000
  H   H97       1.0  0.33650  0.32864  0.46900  1.0000
  H   H98       1.0  0.30226  0.32669  0.40077  1.0000
  N   N31       1.0  0.10746  0.26333  0.43245  1.0000
  C   C149      1.0  0.11342  0.23914  0.43843  1.0000
  C   C150      1.0  0.13612  0.22924  0.37907  1.0000
  C   C151      1.0  0.09703  0.22507  0.50873  1.0000
  H   H99       1.0  0.08266  0.23681  0.55109  1.0000
  H   H100      1.0  0.11414  0.21595  0.55154  1.0000
  H   H101      1.0  0.08167  0.21162  0.47826  1.0000
  N   N32       1.0  0.39929  0.74492  0.43181  1.0000
  C   C152      1.0  0.39335  0.76909  0.43866  1.0000
  C   C153      1.0  0.37054  0.77914  0.37998  1.0000
  C   C154      1.0  0.40987  0.78298  0.50919  1.0000
  H   H102      1.0  0.42429  0.77113  0.55100  1.0000
  H   H103      1.0  0.39285  0.79202  0.55249  1.0000
  H   H104      1.0  0.42522  0.79648  0.47894  1.0000
  C   C155      1.0  0.38548  0.27882  0.31760  1.0000
  N   N33       1.0  0.36219  0.24412  0.38463  1.0000
  C   C156      1.0  0.36911  0.26800  0.38937  1.0000
  H   H105      1.0  0.36312  0.27757  0.44562  1.0000
  C   C157      1.0  0.12153  0.72909  0.31770  1.0000
  N   N34       1.0  0.14624  0.76371  0.38092  1.0000
  C   C158      1.0  0.13961  0.73979  0.38626  1.0000
  H   H106      1.0  0.14684  0.73017  0.44118  1.0000
  C   C159      1.0  0.00250  0.97856  0.33259  1.0000
  N   N35       1.0  0.98672  0.01757  0.38580  1.0000
  C   C160      1.0  0.98464  0.99305  0.39164  1.0000
  H   H107      1.0  0.97078  0.98551  0.44015  1.0000
  C   C161      1.0  0.25266  0.47854  0.33153  1.0000
  N   N36       1.0  0.23708  0.51747  0.38577  1.0000
  C   C162      1.0  0.23518  0.49296  0.39175  1.0000
  H   H108      1.0  0.22172  0.48535  0.44107  1.0000
  C   C163      1.0  0.72120  0.17003  0.38052  1.0000
  N   N37       1.0  0.77110  0.15290  0.34123  1.0000
  C   C164      1.0  0.73910  0.15101  0.34254  1.0000
  H   H109      1.0  0.72872  0.13769  0.30547  1.0000
  C   C165      1.0  0.78535  0.83823  0.38185  1.0000
  N   N38       1.0  0.73556  0.85534  0.34125  1.0000
  C   C166      1.0  0.76754  0.85727  0.34357  1.0000
  H   H110      1.0  0.77798  0.87069  0.30717  1.0000
  C   C167      1.0  0.97075  0.67044  0.37560  1.0000
  N   N39       1.0  0.52080  0.65321  0.33801  1.0000
  C   C168      1.0  0.98879  0.65124  0.33933  1.0000
  H   H111      1.0  0.97856  0.63765  0.30340  1.0000
  C   C169      1.0  0.53581  0.33785  0.37820  1.0000
  N   N40       1.0  0.98580  0.35491  0.33923  1.0000
  C   C170      1.0  0.51778  0.35694  0.34115  1.0000
  H   H112      1.0  0.52809  0.37056  0.30547  1.0000
  N   N41       1.0  0.55892  0.13103  0.27971  1.0000
  C   C171      1.0  0.58122  0.14835  0.27348  1.0000
  C   C172      1.0  0.61071  0.14368  0.31504  1.0000
  C   C173      1.0  0.57286  0.16889  0.21400  1.0000
  H   H113      1.0  0.56208  0.16212  0.15235  1.0000
  H   H114      1.0  0.59334  0.17941  0.19395  1.0000
  H   H115      1.0  0.55606  0.18068  0.24787  1.0000
  N   N42       1.0  0.94744  0.87765  0.28249  1.0000
  C   C174      1.0  0.92514  0.86034  0.27608  1.0000
  C   C175      1.0  0.89581  0.86488  0.31867  1.0000
  C   C176      1.0  0.93335  0.83994  0.21576  1.0000
  H   H116      1.0  0.94392  0.84687  0.15405  1.0000
  H   H117      1.0  0.91283  0.82944  0.19593  1.0000
  H   H118      1.0  0.95029  0.82810  0.24885  1.0000
  C   C177      1.0  0.94758  0.10876  0.33974  1.0000
  N   N43       1.0  0.89342  0.12025  0.32619  1.0000
  C   C178      1.0  0.91591  0.10256  0.32291  1.0000
  H   H119      1.0  0.90996  0.08578  0.29991  1.0000
  C   C179      1.0  0.55904  0.89931  0.33853  1.0000
  N   N44       1.0  0.61317  0.88780  0.32400  1.0000
  C   C180      1.0  0.59068  0.90550  0.32103  1.0000
  H   H120      1.0  0.59660  0.92227  0.29785  1.0000
  N   N45       1.0  0.80837  0.63086  0.27700  1.0000
  C   C181      1.0  0.83073  0.64811  0.26971  1.0000
  C   C182      1.0  0.86036  0.64348  0.31062  1.0000
  C   C183      1.0  0.82230  0.66853  0.20975  1.0000
  H   H121      1.0  0.81146  0.66162  0.14837  1.0000
  H   H122      1.0  0.84275  0.67902  0.18924  1.0000
  H   H123      1.0  0.80553  0.68038  0.24343  1.0000
  N   N46       1.0  0.69783  0.37783  0.27909  1.0000
  C   C184      1.0  0.67545  0.36062  0.27156  1.0000
  C   C185      1.0  0.64603  0.36508  0.31389  1.0000
  C   C186      1.0  0.68370  0.34032  0.21083  1.0000
  H   H124      1.0  0.69428  0.34736  0.14931  1.0000
  H   H125      1.0  0.66321  0.32983  0.19069  1.0000
  H   H126      1.0  0.70063  0.32843  0.24369  1.0000
  C   C187      1.0  0.69725  0.60841  0.34326  1.0000
  N   N47       1.0  0.64315  0.61997  0.32986  1.0000
  C   C188      1.0  0.66562  0.60229  0.32537  1.0000
  H   H127      1.0  0.65979  0.58580  0.29939  1.0000
  C   C189      1.0  0.80935  0.39950  0.34039  1.0000
  N   N48       1.0  0.86349  0.38794  0.32679  1.0000
  C   C190      1.0  0.84098  0.40561  0.32247  1.0000
  H   H128      1.0  0.84686  0.42224  0.29785  1.0000
  C   C191      1.0  0.62179  0.27895  0.37469  1.0000
  N   N49       1.0  0.65066  0.24476  0.32153  1.0000
  C   C192      1.0  0.64466  0.26883  0.31719  1.0000
  H   H129      1.0  0.65601  0.27897  0.26989  1.0000
  C   C193      1.0  0.88484  0.72943  0.37378  1.0000
  N   N50       1.0  0.85590  0.76375  0.32214  1.0000
  C   C194      1.0  0.86187  0.73969  0.31694  1.0000
  H   H130      1.0  0.85045  0.72967  0.26943  1.0000
  N   N51       1.0  0.89320  0.26450  0.24663  1.0000
  C   C195      1.0  0.88593  0.24049  0.24061  1.0000
  C   C196      1.0  0.86981  0.22963  0.31387  1.0000
  C   C197      1.0  0.89356  0.22761  0.15631  1.0000
  H   H131      1.0  0.90361  0.23991  0.10659  1.0000
  H   H132      1.0  0.87228  0.21970  0.12784  1.0000
  H   H133      1.0  0.91055  0.21329  0.16907  1.0000
  N   N52       1.0  0.61219  0.74356  0.24879  1.0000
  C   C198      1.0  0.61925  0.76759  0.24190  1.0000
  C   C199      1.0  0.63699  0.77837  0.31225  1.0000
  C   C200      1.0  0.60974  0.78047  0.15914  1.0000
  H   H134      1.0  0.59923  0.76805  0.11059  1.0000
  H   H135      1.0  0.63022  0.78882  0.12782  1.0000
  H   H136      1.0  0.59251  0.79441  0.17456  1.0000
  N   N53       1.0  0.52000  0.99057  0.27053  1.0000
  C   C201      1.0  0.52206  0.01511  0.26295  1.0000
  C   C202      1.0  0.50484  0.02961  0.32492  1.0000
  C   C203      1.0  0.54006  0.02476  0.18571  1.0000
  H   H137      1.0  0.54731  0.01026  0.14035  1.0000
  H   H138      1.0  0.56116  0.03396  0.20878  1.0000
  H   H139      1.0  0.02559  0.03742  0.14754  1.0000
  N   N54       1.0  0.76959  0.49056  0.26826  1.0000
  C   C204      1.0  0.77144  0.51511  0.26051  1.0000
  C   C205      1.0  0.75464  0.52953  0.32366  1.0000
  C   C206      1.0  0.78878  0.52486  0.18224  1.0000
  H   H140      1.0  0.79587  0.51039  0.13652  1.0000
  H   H141      1.0  0.80993  0.53421  0.20405  1.0000
  H   H142      1.0  0.77389  0.53741  0.14487  1.0000
  C   C207      1.0  0.64530  0.20448  0.37494  1.0000
  C   C208      1.0  0.67702  0.19816  0.38525  1.0000
  C   C209      1.0  0.68833  0.17419  0.37255  1.0000
  C   C210      1.0  0.66593  0.15628  0.34783  1.0000
  C   C211      1.0  0.63355  0.16175  0.33545  1.0000
  C   C212      1.0  0.62408  0.18605  0.35140  1.0000
  H   H143      1.0  0.67335  0.13888  0.33812  1.0000
  H   H144      1.0  0.60096  0.19065  0.34839  1.0000
  H   H145      1.0  0.69232  0.21195  0.39936  1.0000
  C   C213      1.0  0.86134  0.80391  0.37673  1.0000
  C   C214      1.0  0.82960  0.81018  0.38701  1.0000
  C   C215      1.0  0.81825  0.83416  0.37472  1.0000
  C   C216      1.0  0.84064  0.85214  0.35082  1.0000
  C   C217      1.0  0.87303  0.84674  0.33854  1.0000
  C   C218      1.0  0.88254  0.82241  0.35376  1.0000
  H   H146      1.0  0.83320  0.86955  0.34140  1.0000
  H   H147      1.0  0.90568  0.81785  0.35053  1.0000
  H   H148      1.0  0.81430  0.79635  0.40057  1.0000
  C   C219      1.0  0.86069  0.20491  0.32031  1.0000
  C   C220      1.0  0.82946  0.19904  0.34104  1.0000
  C   C221      1.0  0.81954  0.17502  0.35908  1.0000
  C   C222      1.0  0.84216  0.15623  0.35121  1.0000
  C   C223      1.0  0.87466  0.16163  0.34135  1.0000
  C   C224      1.0  0.88279  0.18601  0.32118  1.0000
  H   H149      1.0  0.83556  0.13892  0.36675  1.0000
  H   H150      1.0  0.90552  0.19037  0.30699  1.0000
  H   H151      1.0  0.81331  0.21276  0.33916  1.0000
  C   C225      1.0  0.64604  0.80316  0.31836  1.0000
  C   C226      1.0  0.67728  0.80913  0.33877  1.0000
  C   C227      1.0  0.68712  0.83313  0.35731  1.0000
  C   C228      1.0  0.66447  0.85190  0.34949  1.0000
  C   C229      1.0  0.63199  0.84646  0.33938  1.0000
  C   C230      1.0  0.62391  0.82205  0.31947  1.0000
  H   H152      1.0  0.67106  0.86921  0.36509  1.0000
  H   H153      1.0  0.60116  0.81767  0.30594  1.0000
  H   H154      1.0  0.69351  0.79546  0.33681  1.0000
  C   C231      1.0  0.89452  0.70467  0.36782  1.0000
  C   C232      1.0  0.92616  0.69828  0.38077  1.0000
  C   C233      1.0  0.93779  0.67438  0.36781  1.0000
  C   C234      1.0  0.91561  0.65635  0.34273  1.0000
  C   C235      1.0  0.88320  0.66162  0.33013  1.0000
  C   C236      1.0  0.87358  0.68591  0.34532  1.0000
  H   H155      1.0  0.92317  0.63898  0.33326  1.0000
  H   H156      1.0  0.85025  0.69006  0.34621  1.0000
  H   H157      1.0  0.94148  0.71210  0.39388  1.0000
  C   C237      1.0  0.61208  0.30373  0.36968  1.0000
  C   C238      1.0  0.58045  0.31007  0.38313  1.0000
  C   C239      1.0  0.56877  0.33397  0.37069  1.0000
  C   C240      1.0  0.59090  0.35207  0.34605  1.0000
  C   C241      1.0  0.62329  0.34686  0.33314  1.0000
  C   C242      1.0  0.63298  0.32255  0.34742  1.0000
  H   H158      1.0  0.58330  0.36945  0.33703  1.0000
  H   H159      1.0  0.65632  0.31842  0.34778  1.0000
  H   H160      1.0  0.56516  0.29621  0.39597  1.0000
  C   C243      1.0  0.61169  0.70463  0.32347  1.0000
  C   C244      1.0  0.57989  0.69912  0.33656  1.0000
  C   C245      1.0  0.56941  0.67529  0.35580  1.0000
  C   C246      1.0  0.59192  0.65628  0.35293  1.0000
  C   C247      1.0  0.62466  0.66131  0.34740  1.0000
  C   C248      1.0  0.63352  0.68564  0.32941  1.0000
  H   H161      1.0  0.58480  0.63904  0.36776  1.0000
  H   H162      1.0  0.65644  0.68980  0.31646  1.0000
  H   H163      1.0  0.56407  0.71302  0.33229  1.0000
  C   C249      1.0  0.89529  0.30328  0.32213  1.0000
  C   C250      1.0  0.92697  0.30882  0.33711  1.0000
  C   C251      1.0  0.93729  0.33271  0.35593  1.0000
  C   C252      1.0  0.91475  0.35168  0.35134  1.0000
  C   C253      1.0  0.88206  0.34659  0.34427  1.0000
  C   C254      1.0  0.87338  0.32223  0.32615  1.0000
  H   H164      1.0  0.92173  0.36896  0.36610  1.0000
  H   H165      1.0  0.85053  0.31799  0.31242  1.0000
  H   H166      1.0  0.94281  0.29490  0.33414  1.0000
  C   C255      1.0  0.53403  0.09431  0.32317  1.0000
  C   C256      1.0  0.00458  0.10617  0.32479  1.0000
  C   C257      1.0  0.97516  0.09427  0.33112  1.0000
  C   C258      1.0  0.97593  0.06863  0.32746  1.0000
  C   C259      1.0  0.50472  0.05554  0.32648  1.0000
  C   C260      1.0  0.53334  0.06877  0.32982  1.0000
  H   H167      1.0  0.95524  0.05926  0.32911  1.0000
  H   H168      1.0  0.55412  0.05958  0.33225  1.0000
  H   H169      1.0  0.00463  0.12466  0.32308  1.0000
  C   C261      1.0  0.97254  0.91416  0.32746  1.0000
  C   C262      1.0  0.50192  0.90216  0.32723  1.0000
  C   C263      1.0  0.53148  0.91389  0.33149  1.0000
  C   C264      1.0  0.53087  0.93952  0.32823  1.0000
  C   C265      1.0  0.00221  0.95269  0.33310  1.0000
  C   C266      1.0  0.97341  0.93968  0.33609  1.0000
  H   H170      1.0  0.55163  0.94880  0.33000  1.0000
  H   H171      1.0  0.95273  0.94908  0.33567  1.0000
  H   H172      1.0  0.50175  0.88367  0.32500  1.0000
  C   C267      1.0  0.78363  0.59424  0.32205  1.0000
  C   C268      1.0  0.75418  0.60607  0.32549  1.0000
  C   C269      1.0  0.72485  0.59407  0.33260  1.0000
  C   C270      1.0  0.72564  0.56845  0.32771  1.0000
  C   C271      1.0  0.75446  0.55544  0.32542  1.0000
  C   C272      1.0  0.78306  0.56868  0.32797  1.0000
  H   H173      1.0  0.70498  0.55904  0.33023  1.0000
  H   H174      1.0  0.80387  0.55951  0.32918  1.0000
  H   H175      1.0  0.75416  0.62458  0.32454  1.0000
  C   C273      1.0  0.72288  0.41419  0.32586  1.0000
  C   C274      1.0  0.75226  0.40219  0.32677  1.0000
  C   C275      1.0  0.78177  0.41399  0.33190  1.0000
  C   C276      1.0  0.78116  0.43960  0.32815  1.0000
  C   C277      1.0  0.75245  0.45272  0.33211  1.0000
  C   C278      1.0  0.72366  0.43970  0.33435  1.0000
  H   H176      1.0  0.80190  0.44891  0.33040  1.0000
  H   H177      1.0  0.70297  0.44909  0.33338  1.0000
  H   H178      1.0  0.75214  0.38369  0.32474  1.0000
  N   N55       1.0  0.73822  0.18666  0.42675  1.0000
  C   C279      1.0  0.76975  0.18793  0.43306  1.0000
  C   C280      1.0  0.78758  0.17108  0.38186  1.0000
  C   C281      1.0  0.78186  0.20616  0.49739  1.0000
  H   H179      1.0  0.76985  0.20418  0.56178  1.0000
  H   H180      1.0  0.77742  0.22435  0.47168  1.0000
  H   H181      1.0  0.80691  0.20408  0.51014  1.0000
  N   N56       1.0  0.76821  0.82153  0.42732  1.0000
  C   C282      1.0  0.73667  0.82021  0.43263  1.0000
  C   C283      1.0  0.71900  0.83706  0.38103  1.0000
  C   C284      1.0  0.72435  0.80188  0.49626  1.0000
  H   H182      1.0  0.73613  0.80379  0.56104  1.0000
  H   H183      1.0  0.72892  0.78373  0.47034  1.0000
  H   H184      1.0  0.69926  0.80392  0.50830  1.0000
  N   N57       1.0  0.98774  0.68742  0.42011  1.0000
  C   C285      1.0  0.51926  0.68889  0.42615  1.0000
  C   C286      1.0  0.53721  0.67173  0.37679  1.0000
  C   C287      1.0  0.53117  0.70756  0.48909  1.0000
  H   H185      1.0  0.51890  0.70606  0.55327  1.0000
  H   H186      1.0  0.52690  0.72555  0.46144  1.0000
  H   H187      1.0  0.55615  0.70552  0.50298  1.0000
  N   N58       1.0  0.51880  0.32086  0.42263  1.0000
  C   C288      1.0  0.98726  0.31933  0.42798  1.0000
  C   C289      1.0  0.96938  0.33638  0.37794  1.0000
  C   C290      1.0  0.97525  0.30077  0.49119  1.0000
  H   H188      1.0  0.98733  0.30244  0.55561  1.0000
  H   H189      1.0  0.97968  0.28273  0.46418  1.0000
  H   H190      1.0  0.95022  0.30277  0.50440  1.0000
  C   C291      1.0  0.56171  0.10872  0.31719  1.0000
  N   N59       1.0  0.61485  0.12055  0.34599  1.0000
  C   C292      1.0  0.59253  0.10277  0.34465  1.0000
  H   H191      1.0  0.59749  0.08646  0.37353  1.0000
  C   C293      1.0  0.94479  0.89984  0.32111  1.0000
  N   N60       1.0  0.89176  0.88791  0.35078  1.0000
  C   C294      1.0  0.91407  0.90570  0.34966  1.0000
  H   H192      1.0  0.90930  0.92189  0.37969  1.0000
  N   N61       1.0  0.95149  0.13161  0.37144  1.0000
  C   C295      1.0  0.92963  0.14909  0.38096  1.0000
  C   C296      1.0  0.89865  0.14381  0.35081  1.0000
  C   C297      1.0  0.94036  0.17028  0.43400  1.0000
  H   H193      1.0  0.95471  0.16430  0.49065  1.0000
  H   H194      1.0  0.92085  0.18052  0.46224  1.0000
  H   H195      1.0  0.95458  0.18213  0.39176  1.0000
  N   N62       1.0  0.55518  0.87646  0.37016  1.0000
  C   C298      1.0  0.57703  0.85895  0.37921  1.0000
  C   C299      1.0  0.60798  0.86425  0.34886  1.0000
  C   C300      1.0  0.56640  0.83780  0.43262  1.0000
  H   H196      1.0  0.55206  0.84380  0.48925  1.0000
  H   H197      1.0  0.58596  0.82763  0.46091  1.0000
  H   H198      1.0  0.55220  0.82588  0.39061  1.0000
  C   C301      1.0  0.81130  0.60862  0.31497  1.0000
  N   N63       1.0  0.86457  0.62040  0.34196  1.0000
  C   C302      1.0  0.84221  0.60264  0.34147  1.0000
  H   H199      1.0  0.84716  0.58639  0.37078  1.0000
  C   C303      1.0  0.69513  0.39991  0.31850  1.0000
  N   N64       1.0  0.64198  0.38802  0.34683  1.0000
  C   C304      1.0  0.66437  0.40576  0.34672  1.0000
  H   H200      1.0  0.65953  0.42189  0.37709  1.0000
  N   N65       1.0  0.70113  0.63090  0.37828  1.0000
  C   C305      1.0  0.67916  0.64821  0.38986  1.0000
  C   C306      1.0  0.64831  0.64326  0.35779  1.0000
  C   C307      1.0  0.68963  0.66893  0.44579  1.0000
  H   H201      1.0  0.70323  0.66239  0.50308  1.0000
  H   H202      1.0  0.67000  0.67919  0.47318  1.0000
  H   H203      1.0  0.70452  0.68091  0.40600  1.0000
  N   N66       1.0  0.80547  0.37691  0.37442  1.0000
  C   C308      1.0  0.82738  0.35951  0.38510  1.0000
  C   C309      1.0  0.85829  0.36458  0.35382  1.0000
  C   C310      1.0  0.81688  0.33877  0.44093  1.0000
  H   H204      1.0  0.80300  0.34525  0.49778  1.0000
  H   H205      1.0  0.83650  0.32864  0.46900  1.0000
  H   H206      1.0  0.80226  0.32669  0.40078  1.0000
  N   N67       1.0  0.60745  0.26333  0.43245  1.0000
  C   C311      1.0  0.61342  0.23914  0.43843  1.0000
  C   C312      1.0  0.63611  0.22924  0.37907  1.0000
  C   C313      1.0  0.59703  0.22507  0.50873  1.0000
  H   H207      1.0  0.58266  0.23681  0.55109  1.0000
  H   H208      1.0  0.61414  0.21595  0.55154  1.0000
  H   H209      1.0  0.58167  0.21162  0.47826  1.0000
  N   N68       1.0  0.89929  0.74492  0.43181  1.0000
  C   C314      1.0  0.89335  0.76909  0.43866  1.0000
  C   C315      1.0  0.87054  0.77914  0.37998  1.0000
  C   C316      1.0  0.90987  0.78298  0.50919  1.0000
  H   H210      1.0  0.92429  0.77113  0.55100  1.0000
  H   H211      1.0  0.89285  0.79202  0.55249  1.0000
  H   H212      1.0  0.92522  0.79648  0.47894  1.0000
  C   C317      1.0  0.88549  0.27882  0.31760  1.0000
  N   N69       1.0  0.86219  0.24412  0.38463  1.0000
  C   C318      1.0  0.86911  0.26800  0.38937  1.0000
  H   H213      1.0  0.86312  0.27757  0.44562  1.0000
  C   C319      1.0  0.62153  0.72909  0.31770  1.0000
  N   N70       1.0  0.64624  0.76371  0.38092  1.0000
  C   C320      1.0  0.63960  0.73979  0.38626  1.0000
  H   H214      1.0  0.64684  0.73017  0.44118  1.0000
  C   C321      1.0  0.50250  0.97856  0.33259  1.0000
  N   N71       1.0  0.48672  0.01757  0.38580  1.0000
  C   C322      1.0  0.48464  0.99305  0.39164  1.0000
  H   H215      1.0  0.47078  0.98551  0.44015  1.0000
  C   C323      1.0  0.75266  0.47854  0.33153  1.0000
  N   N72       1.0  0.73708  0.51747  0.38577  1.0000
  C   C324      1.0  0.73518  0.49296  0.39175  1.0000
  H   H216      1.0  0.72172  0.48535  0.44107  1.0000
