data_image0
_chemical_formula_structural       C4OC4OH4N2C4OC4OH4N2C4OC4OH4N2C2NC2HNHCHC2NC2HNHCHC2NC2HNHCHC2NC2HNHCHC2NC2HNHCHC2NC2HNHCHC2HC2HN2C2HC2HN2C2HC2HN2C2HC6H3CHC2HC6H3CHC2HC6H3CHC2HC6H3CHC2HC6H3CHC2HC6H3CH
_chemical_formula_sum              "C120 O6 H66 N24"
_cell_length_a       38.7201
_cell_length_b       38.7201
_cell_length_c       14.9677
_cell_angle_alpha    90
_cell_angle_beta     90
_cell_angle_gamma    120

_space_group_name_H-M_alt    "P 1"
_space_group_IT_number       1

loop_
  _space_group_symop_operation_xyz
  'x, y, z'

loop_
  _atom_site_type_symbol
  _atom_site_label
  _atom_site_symmetry_multiplicity
  _atom_site_fract_x
  _atom_site_fract_y
  _atom_site_fract_z
  _atom_site_occupancy
  C   C1        1.0  0.97972  0.48980  0.34213  1.0000
  C   C2        1.0  0.89400  0.44682  0.34887  1.0000
  C   C3        1.0  0.91484  0.42590  0.33857  1.0000
  C   C4        1.0  0.95691  0.44749  0.33282  1.0000
  O   O1        1.0  0.85331  0.42636  0.35452  1.0000
  C   C5        1.0  0.02334  0.51156  0.34229  1.0000
  C   C6        1.0  0.04617  0.55386  0.33293  1.0000
  C   C7        1.0  0.08823  0.57545  0.33895  1.0000
  C   C8        1.0  0.10905  0.55453  0.34970  1.0000
  O   O2        1.0  0.14973  0.57499  0.35579  1.0000
  H   H1        1.0  0.84335  0.42279  0.29281  1.0000
  H   H2        1.0  0.15981  0.57852  0.29421  1.0000
  H   H3        1.0  0.97059  0.43122  0.32260  1.0000
  H   H4        1.0  0.03252  0.57014  0.32243  1.0000
  N   N1        1.0  0.11018  0.61493  0.33956  1.0000
  N   N2        1.0  0.89290  0.38641  0.33895  1.0000
  C   C9        1.0  0.51290  0.49046  0.34213  1.0000
  C   C10       1.0  0.55588  0.44772  0.34887  1.0000
  C   C11       1.0  0.57680  0.48947  0.33857  1.0000
  C   C12       1.0  0.55521  0.50996  0.33282  1.0000
  O   O3        1.0  0.57634  0.42749  0.35452  1.0000
  C   C13       1.0  0.49114  0.51233  0.34229  1.0000
  C   C14       1.0  0.44883  0.49285  0.33293  1.0000
  C   C15       1.0  0.42725  0.51333  0.33895  1.0000
  C   C16       1.0  0.44817  0.55505  0.34970  1.0000
  O   O4        1.0  0.42771  0.57528  0.35579  1.0000
  H   H5        1.0  0.57991  0.42110  0.29281  1.0000
  H   H6        1.0  0.42418  0.58183  0.29421  1.0000
  H   H7        1.0  0.57148  0.53991  0.32260  1.0000
  H   H8        1.0  0.43256  0.46292  0.32243  1.0000
  N   N3        1.0  0.38777  0.49579  0.33956  1.0000
  N   N4        1.0  0.61629  0.50703  0.33895  1.0000
  C   C17       1.0  0.51224  0.02298  0.34213  1.0000
  C   C18       1.0  0.55497  0.10870  0.34887  1.0000
  C   C19       1.0  0.51323  0.08786  0.33857  1.0000
  C   C20       1.0  0.49274  0.04579  0.33282  1.0000
  O   O5        1.0  0.57521  0.14939  0.35452  1.0000
  C   C21       1.0  0.49037  0.97936  0.34229  1.0000
  C   C22       1.0  0.50985  0.95653  0.33293  1.0000
  C   C23       1.0  0.48937  0.91447  0.33895  1.0000
  C   C24       1.0  0.44764  0.89365  0.34970  1.0000
  O   O6        1.0  0.42742  0.85297  0.35579  1.0000
  H   H9        1.0  0.58160  0.15935  0.29281  1.0000
  H   H10       1.0  0.42087  0.84288  0.29421  1.0000
  H   H11       1.0  0.46279  0.03211  0.32260  1.0000
  H   H12       1.0  0.53978  0.97018  0.32243  1.0000
  N   N5        1.0  0.50691  0.89252  0.33956  1.0000
  N   N6        1.0  0.49567  0.10980  0.33895  1.0000
  C   C25       1.0  0.13742  0.45497  0.34707  1.0000
  C   C26       1.0  0.14941  0.44164  0.27167  1.0000
  N   N7        1.0  0.18397  0.44070  0.27322  1.0000
  C   C27       1.0  0.20842  0.45143  0.34560  1.0000
  C   C28       1.0  0.29255  0.44271  0.25785  1.0000
  H   H13       1.0  0.13331  0.43415  0.21365  1.0000
  N   N8        1.0  0.25694  0.44128  0.26613  1.0000
  H   H14       1.0  0.29966  0.43530  0.19777  1.0000
  C   C29       1.0  0.10490  0.46063  0.34194  1.0000
  H   H15       1.0  0.08023  0.44073  0.31075  1.0000
  C   C30       1.0  0.54773  0.68299  0.34707  1.0000
  C   C31       1.0  0.56106  0.70831  0.27167  1.0000
  N   N9        1.0  0.56200  0.74381  0.27322  1.0000
  C   C32       1.0  0.55127  0.75753  0.34560  1.0000
  C   C33       1.0  0.55999  0.85038  0.25785  1.0000
  H   H16       1.0  0.56855  0.69970  0.21365  1.0000
  N   N10       1.0  0.56142  0.81620  0.26613  1.0000
  H   H17       1.0  0.56740  0.86490  0.19777  1.0000
  C   C34       1.0  0.54207  0.64480  0.34194  1.0000
  H   H18       1.0  0.56196  0.64003  0.31075  1.0000
  C   C35       1.0  0.31971  0.86528  0.34707  1.0000
  C   C36       1.0  0.29438  0.85329  0.27167  1.0000
  N   N11       1.0  0.25889  0.81873  0.27322  1.0000
  C   C37       1.0  0.24517  0.79428  0.34560  1.0000
  C   C38       1.0  0.15232  0.71015  0.25785  1.0000
  H   H19       1.0  0.30300  0.86939  0.21365  1.0000
  N   N12       1.0  0.18650  0.74576  0.26613  1.0000
  H   H20       1.0  0.13780  0.70304  0.19777  1.0000
  C   C39       1.0  0.35789  0.89780  0.34194  1.0000
  H   H21       1.0  0.36267  0.92247  0.31075  1.0000
  C   C40       1.0  0.86597  0.54672  0.34365  1.0000
  C   C41       1.0  0.85342  0.55897  0.26735  1.0000
  N   N13       1.0  0.81903  0.56022  0.26912  1.0000
  C   C42       1.0  0.79530  0.55085  0.34251  1.0000
  C   C43       1.0  0.71073  0.55876  0.25465  1.0000
  H   H22       1.0  0.86895  0.56538  0.20865  1.0000
  N   N14       1.0  0.74630  0.56008  0.26260  1.0000
  H   H23       1.0  0.70313  0.56521  0.19403  1.0000
  C   C44       1.0  0.89820  0.54062  0.33856  1.0000
  H   H24       1.0  0.92292  0.56038  0.30726  1.0000
  C   C45       1.0  0.45598  0.31979  0.34365  1.0000
  C   C46       1.0  0.44373  0.29499  0.26735  1.0000
  N   N15       1.0  0.44248  0.25935  0.26912  1.0000
  C   C47       1.0  0.45185  0.24499  0.34251  1.0000
  C   C48       1.0  0.44394  0.15251  0.25465  1.0000
  H   H25       1.0  0.43732  0.30411  0.20865  1.0000
  N   N16       1.0  0.44262  0.18676  0.26260  1.0000
  H   H26       1.0  0.43748  0.13846  0.19403  1.0000
  C   C49       1.0  0.46208  0.35812  0.33856  1.0000
  H   H27       1.0  0.44232  0.36308  0.30726  1.0000
  C   C50       1.0  0.68291  0.13673  0.34365  1.0000
  C   C51       1.0  0.70771  0.14928  0.26735  1.0000
  N   N17       1.0  0.74335  0.18367  0.26912  1.0000
  C   C52       1.0  0.75771  0.20740  0.34251  1.0000
  C   C53       1.0  0.85019  0.29197  0.25465  1.0000
  H   H28       1.0  0.69859  0.13375  0.20865  1.0000
  N   N18       1.0  0.81594  0.25640  0.26260  1.0000
  H   H29       1.0  0.86424  0.29957  0.19403  1.0000
  C   C54       1.0  0.64458  0.10450  0.33856  1.0000
  H   H30       1.0  0.63962  0.07978  0.30726  1.0000
  C   C55       1.0  0.95708  0.50938  0.35326  1.0000
  C   C56       1.0  0.91493  0.48874  0.35428  1.0000
  H   H31       1.0  0.97087  0.53936  0.36340  1.0000
  C   C57       1.0  0.08810  0.51262  0.35531  1.0000
  C   C58       1.0  0.04596  0.49197  0.35389  1.0000
  H   H32       1.0  0.03214  0.46202  0.36430  1.0000
  N   N19       1.0  0.11011  0.49520  0.36159  1.0000
  N   N20       1.0  0.89292  0.50618  0.35974  1.0000
  C   C59       1.0  0.49331  0.44824  0.35326  1.0000
  C   C60       1.0  0.51396  0.42673  0.35428  1.0000
  H   H33       1.0  0.46334  0.43206  0.36340  1.0000
  C   C61       1.0  0.49008  0.57603  0.35531  1.0000
  C   C62       1.0  0.51073  0.55452  0.35389  1.0000
  H   H34       1.0  0.54068  0.57066  0.36430  1.0000
  N   N21       1.0  0.50750  0.61545  0.36159  1.0000
  N   N22       1.0  0.49652  0.38728  0.35974  1.0000
  C   C63       1.0  0.55446  0.04562  0.35326  1.0000
  C   C64       1.0  0.57597  0.08777  0.35428  1.0000
  H   H35       1.0  0.57064  0.03183  0.36340  1.0000
  C   C65       1.0  0.42667  0.91460  0.35531  1.0000
  C   C66       1.0  0.44817  0.95674  0.35389  1.0000
  H   H36       1.0  0.43203  0.97055  0.36430  1.0000
  N   N23       1.0  0.38725  0.89259  0.36159  1.0000
  N   N24       1.0  0.61542  0.10978  0.35974  1.0000
  C   C67       1.0  0.19744  0.46409  0.42442  1.0000
  C   C68       1.0  0.16178  0.46568  0.42415  1.0000
  H   H37       1.0  0.15408  0.47583  0.47963  1.0000
  C   C69       1.0  0.24505  0.45172  0.34200  1.0000
  C   C70       1.0  0.31991  0.45632  0.32954  1.0000
  C   C71       1.0  0.30819  0.46667  0.41011  1.0000
  C   C72       1.0  0.27085  0.46464  0.41733  1.0000
  C   C73       1.0  0.25925  0.47621  0.49607  1.0000
  C   C74       1.0  0.22284  0.47595  0.49958  1.0000
  H   H38       1.0  0.27759  0.48577  0.55072  1.0000
  H   H39       1.0  0.21550  0.48536  0.55667  1.0000
  H   H40       1.0  0.32745  0.47681  0.46327  1.0000
  C   C75       1.0  0.35783  0.46175  0.31920  1.0000
  H   H41       1.0  0.36162  0.44041  0.29243  1.0000
  C   C76       1.0  0.53861  0.73389  0.42442  1.0000
  C   C77       1.0  0.53702  0.69663  0.42415  1.0000
  H   H42       1.0  0.52687  0.67878  0.47963  1.0000
  C   C78       1.0  0.55098  0.79387  0.34200  1.0000
  C   C79       1.0  0.54638  0.86413  0.32954  1.0000
  C   C80       1.0  0.53602  0.84205  0.41011  1.0000
  C   C81       1.0  0.53806  0.80675  0.41733  1.0000
  C   C82       1.0  0.52649  0.78358  0.49607  1.0000
  C   C83       1.0  0.52675  0.74743  0.49958  1.0000
  H   H43       1.0  0.51693  0.79236  0.55072  1.0000
  H   H44       1.0  0.51734  0.73068  0.55667  1.0000
  H   H45       1.0  0.52588  0.85118  0.46327  1.0000
  C   C84       1.0  0.54094  0.89661  0.31920  1.0000
  H   H46       1.0  0.56229  0.92175  0.29243  1.0000
  C   C85       1.0  0.26881  0.80526  0.42442  1.0000
  C   C86       1.0  0.30606  0.84093  0.42415  1.0000
  H   H47       1.0  0.32391  0.84862  0.47963  1.0000
  C   C87       1.0  0.20883  0.75765  0.34200  1.0000
  C   C88       1.0  0.13857  0.68279  0.32954  1.0000
  C   C89       1.0  0.16065  0.69451  0.41011  1.0000
  C   C90       1.0  0.19595  0.73185  0.41733  1.0000
  C   C91       1.0  0.21912  0.74345  0.49607  1.0000
  C   C92       1.0  0.25527  0.77986  0.49958  1.0000
  H   H48       1.0  0.21034  0.72511  0.55072  1.0000
  H   H49       1.0  0.27202  0.78720  0.55667  1.0000
  H   H50       1.0  0.15152  0.67525  0.46327  1.0000
  C   C93       1.0  0.10609  0.64487  0.31920  1.0000
  H   H51       1.0  0.08095  0.64108  0.29243  1.0000
  C   C94       1.0  0.80688  0.53934  0.42218  1.0000
  C   C95       1.0  0.84237  0.53741  0.42172  1.0000
  H   H52       1.0  0.85047  0.52804  0.47786  1.0000
  C   C96       1.0  0.75878  0.55079  0.33920  1.0000
  C   C97       1.0  0.68405  0.54649  0.32755  1.0000
  C   C98       1.0  0.69639  0.53736  0.40884  1.0000
  C   C99       1.0  0.73369  0.53927  0.41568  1.0000
  C   C100      1.0  0.74591  0.52888  0.49520  1.0000
  C   C101      1.0  0.78220  0.52891  0.49842  1.0000
  H   H53       1.0  0.72808  0.52033  0.55070  1.0000
  H   H54       1.0  0.78998  0.52034  0.55616  1.0000
  H   H55       1.0  0.67759  0.52816  0.46283  1.0000
  C   C102      1.0  0.64611  0.54101  0.31777  1.0000
  H   H56       1.0  0.64218  0.56212  0.29015  1.0000
  C   C103      1.0  0.46336  0.26808  0.42218  1.0000
  C   C104      1.0  0.46529  0.30549  0.42172  1.0000
  H   H57       1.0  0.47466  0.32297  0.47786  1.0000
  C   C105      1.0  0.45191  0.20853  0.33920  1.0000
  C   C106      1.0  0.45621  0.13810  0.32755  1.0000
  C   C107      1.0  0.46534  0.15957  0.40884  1.0000
  C   C108      1.0  0.46343  0.19496  0.41568  1.0000
  C   C109      1.0  0.47382  0.21756  0.49520  1.0000
  C   C110      1.0  0.47379  0.25384  0.49842  1.0000
  H   H58       1.0  0.48237  0.20829  0.55070  1.0000
  H   H59       1.0  0.48236  0.27018  0.55616  1.0000
  H   H60       1.0  0.47454  0.14997  0.46283  1.0000
  C   C111      1.0  0.46169  0.10564  0.31777  1.0000
  H   H61       1.0  0.44058  0.08060  0.29015  1.0000
  C   C112      1.0  0.73462  0.19582  0.42218  1.0000
  C   C113      1.0  0.69721  0.16033  0.42172  1.0000
  H   H62       1.0  0.67973  0.15223  0.47786  1.0000
  C   C114      1.0  0.79417  0.24392  0.33920  1.0000
  C   C115      1.0  0.86460  0.31865  0.32755  1.0000
  C   C116      1.0  0.84313  0.30631  0.40884  1.0000
  C   C117      1.0  0.80774  0.26901  0.41568  1.0000
  C   C118      1.0  0.78514  0.25679  0.49520  1.0000
  C   C119      1.0  0.74886  0.22050  0.49842  1.0000
  H   H63       1.0  0.79441  0.27462  0.55070  1.0000
  H   H64       1.0  0.73252  0.21272  0.55616  1.0000
  H   H65       1.0  0.85273  0.32511  0.46283  1.0000
  C   C120      1.0  0.89706  0.35659  0.31777  1.0000
  H   H66       1.0  0.92210  0.36052  0.29015  1.0000
