data_image0
_chemical_formula_structural       CNC5HC6HCH2C2H2NC2O2C3O2HNCNHNC2HCHN2OHCHNCHCOHC8HC8H3C2H2C8HC7HCH4C3H3NC2HN2C2HN2C2HN2C2HNC4H2C2H3CHCNC2O2HNCNC2O2HNCNCNCNC2O2HN
_chemical_formula_sum              "C90 N24 H42 O12"
_cell_length_a       30.6208
_cell_length_b       30.6208
_cell_length_c       14.6242
_cell_angle_alpha    90.0002
_cell_angle_beta     89.9998
_cell_angle_gamma    120

_space_group_name_H-M_alt    "P 1"
_space_group_IT_number       1

loop_
  _space_group_symop_operation_xyz
  'x, y, z'

loop_
  _atom_site_type_symbol
  _atom_site_label
  _atom_site_symmetry_multiplicity
  _atom_site_fract_x
  _atom_site_fract_y
  _atom_site_fract_z
  _atom_site_occupancy
  C   C1        1.0  0.22010  0.51102  0.37461  1.0000
  N   N1        1.0  0.17982  0.51817  0.37414  1.0000
  C   C2        1.0  0.05716  0.56141  0.37613  1.0000
  C   C3        1.0  0.04095  0.46188  0.37763  1.0000
  C   C4        1.0  0.09159  0.50226  0.37755  1.0000
  C   C5        1.0  0.09899  0.55249  0.37687  1.0000
  C   C6        1.0  0.14745  0.59574  0.37910  1.0000
  H   H1        1.0  0.03470  0.42570  0.37741  1.0000
  C   C7        1.0  0.06508  0.61233  0.37624  1.0000
  C   C8        1.0  0.02326  0.62124  0.37778  1.0000
  C   C9        1.0  0.03065  0.67147  0.37847  1.0000
  C   C10       1.0  0.08127  0.71186  0.37833  1.0000
  C   C11       1.0  0.12400  0.70563  0.37635  1.0000
  C   C12       1.0  0.11515  0.65497  0.37626  1.0000
  H   H2        1.0  0.08751  0.74803  0.37830  1.0000
  C   C13       1.0  0.15524  0.64464  0.37864  1.0000
  H   H3        1.0  0.19196  0.67240  0.38228  1.0000
  H   H4        1.0  0.17932  0.59365  0.38282  1.0000
  C   C14       1.0  0.12923  0.48745  0.37785  1.0000
  C   C15       1.0  0.17293  0.74964  0.37390  1.0000
  H   H5        1.0  0.11776  0.44978  0.38038  1.0000
  H   H6        1.0  0.20364  0.74546  0.36801  1.0000
  N   N2        1.0  0.21690  0.46514  0.38063  1.0000
  C   C16       1.0  0.25775  0.45826  0.38191  1.0000
  C   C17       1.0  0.25007  0.40977  0.38919  1.0000
  O   O1        1.0  0.21457  0.37597  0.34778  1.0000
  O   O2        1.0  0.26268  0.39564  0.45850  1.0000
  C   C18       1.0  0.22996  0.84127  0.37715  1.0000
  C   C19       1.0  0.23594  0.89028  0.38243  1.0000
  C   C20       1.0  0.19515  0.89798  0.38989  1.0000
  O   O3        1.0  0.19683  0.93349  0.34854  1.0000
  O   O4        1.0  0.16844  0.88535  0.45924  1.0000
  H   H7        1.0  0.16690  0.86357  0.50081  1.0000
  N   N3        1.0  0.18374  0.79845  0.37823  1.0000
  C   C21       1.0  0.26876  0.55354  0.36967  1.0000
  N   N4        1.0  0.30945  0.54703  0.37087  1.0000
  H   H8        1.0  0.27401  0.58917  0.36532  1.0000
  N   N5        1.0  0.27296  0.83855  0.37107  1.0000
  C   C22       1.0  0.32017  0.87922  0.36971  1.0000
  C   C23       1.0  0.32634  0.92789  0.37474  1.0000
  H   H9        1.0  0.35053  0.87395  0.36521  1.0000
  C   C24       1.0  0.30676  0.50132  0.37670  1.0000
  H   H10       1.0  0.28445  0.41585  0.50011  1.0000
  N   N6        1.0  0.34958  0.49794  0.37771  1.0000
  N   N7        1.0  0.28368  0.93111  0.38101  1.0000
  O   O5        1.0  0.35060  0.22274  0.34708  1.0000
  H   H11       1.0  0.39998  0.45212  0.37722  1.0000
  C   C25       1.0  0.39363  0.01874  0.37830  1.0000
  H   H12       1.0  0.36741  0.03019  0.38084  1.0000
  N   N8        1.0  0.37379  0.96815  0.37429  1.0000
  C   C26       1.0  0.39839  0.53594  0.37341  1.0000
  H   H13       1.0  0.40259  0.57084  0.36740  1.0000
  C   C27       1.0  0.38406  0.22080  0.38926  1.0000
  O   O6        1.0  0.36974  0.19453  0.45904  1.0000
  H   H14       1.0  0.38987  0.19301  0.50088  1.0000
  C   C28       1.0  0.58659  0.60839  0.37644  1.0000
  C   C29       1.0  0.62922  0.60096  0.37680  1.0000
  C   C30       1.0  0.67988  0.64275  0.37681  1.0000
  C   C31       1.0  0.68612  0.69171  0.37888  1.0000
  C   C32       1.0  0.64573  0.70196  0.37879  1.0000
  C   C33       1.0  0.59550  0.65912  0.37777  1.0000
  C   C34       1.0  0.61892  0.55055  0.38016  1.0000
  C   C35       1.0  0.55225  0.66433  0.38068  1.0000
  H   H15       1.0  0.72229  0.72164  0.37890  1.0000
  C   C36       1.0  0.53568  0.56538  0.37623  1.0000
  C   C37       1.0  0.52677  0.51465  0.37738  1.0000
  C   C38       1.0  0.47654  0.47181  0.37776  1.0000
  C   C39       1.0  0.43615  0.48205  0.37753  1.0000
  C   C40       1.0  0.44239  0.53101  0.37598  1.0000
  C   C41       1.0  0.49304  0.57281  0.37639  1.0000
  C   C42       1.0  0.57002  0.50944  0.38065  1.0000
  C   C43       1.0  0.50336  0.62322  0.37970  1.0000
  H   H16       1.0  0.56790  0.47550  0.38560  1.0000
  H   H17       1.0  0.64670  0.54168  0.38512  1.0000
  H   H18       1.0  0.55436  0.69826  0.38564  1.0000
  C   C44       1.0  0.66050  0.75439  0.37932  1.0000
  C   C45       1.0  0.46176  0.41937  0.37795  1.0000
  H   H19       1.0  0.69815  0.78060  0.38265  1.0000
  H   H20       1.0  0.42409  0.39315  0.38044  1.0000
  C   C46       1.0  0.53963  0.09083  0.37626  1.0000
  C   C47       1.0  0.54707  0.14090  0.37618  1.0000
  C   C48       1.0  0.50527  0.14976  0.37600  1.0000
  C   C49       1.0  0.45631  0.10703  0.37773  1.0000
  C   C50       1.0  0.44606  0.05640  0.37807  1.0000
  C   C51       1.0  0.48890  0.04900  0.37771  1.0000
  C   C52       1.0  0.59749  0.18099  0.37883  1.0000
  C   C53       1.0  0.48369  0.00056  0.38139  1.0000
  H   H21       1.0  0.42638  0.11327  0.37749  1.0000
  C   C54       1.0  0.58263  0.08291  0.37635  1.0000
  C   C55       1.0  0.63338  0.12473  0.37730  1.0000
  C   C56       1.0  0.67621  0.11732  0.37824  1.0000
  C   C57       1.0  0.66595  0.06669  0.37842  1.0000
  C   C58       1.0  0.61698  0.02398  0.37667  1.0000
  C   C59       1.0  0.57520  0.03285  0.37692  1.0000
  C   C60       1.0  0.63860  0.17320  0.37957  1.0000
  H   H22       1.0  0.69587  0.06043  0.37832  1.0000
  C   C61       1.0  0.52480  0.99276  0.38080  1.0000
  H   H23       1.0  0.67254  0.20506  0.38367  1.0000
  H   H24       1.0  0.60643  0.21770  0.38262  1.0000
  H   H25       1.0  0.51595  0.95613  0.38621  1.0000
  H   H26       1.0  0.44977  0.96877  0.38697  1.0000
  C   C62       1.0  0.61201  0.97504  0.37381  1.0000
  C   C63       1.0  0.72865  0.15497  0.37861  1.0000
  C   C64       1.0  0.51019  0.19868  0.37349  1.0000
  H   H27       1.0  0.57715  0.94441  0.36661  1.0000
  H   H28       1.0  0.75486  0.14350  0.38132  1.0000
  H   H29       1.0  0.54508  0.22939  0.36768  1.0000
  N   N9        1.0  0.60101  0.87506  0.37032  1.0000
  C   C65       1.0  0.59448  0.82786  0.36876  1.0000
  C   C66       1.0  0.63692  0.82166  0.37518  1.0000
  H   H30       1.0  0.55890  0.79752  0.36309  1.0000
  N   N10       1.0  0.62978  0.77423  0.37452  1.0000
  N   N11       1.0  0.81282  0.62677  0.37028  1.0000
  C   C67       1.0  0.85348  0.62024  0.36861  1.0000
  C   C68       1.0  0.90212  0.66266  0.37497  1.0000
  H   H31       1.0  0.84823  0.58465  0.36294  1.0000
  N   N12       1.0  0.94240  0.65550  0.37423  1.0000
  N   N13       1.0  0.52130  0.29871  0.37073  1.0000
  C   C69       1.0  0.52783  0.34592  0.36946  1.0000
  C   C70       1.0  0.48533  0.35208  0.37446  1.0000
  H   H32       1.0  0.56347  0.37629  0.36508  1.0000
  N   N14       1.0  0.49250  0.39952  0.37406  1.0000
  N   N15       1.0  0.84927  0.33518  0.37111  1.0000
  C   C71       1.0  0.80208  0.29449  0.36992  1.0000
  C   C72       1.0  0.79595  0.24584  0.37507  1.0000
  H   H33       1.0  0.77170  0.29973  0.36545  1.0000
  N   N16       1.0  0.74852  0.20556  0.37464  1.0000
  C   C73       1.0  0.00710  0.51878  0.37665  1.0000
  C   C74       1.0  0.99823  0.46813  0.37621  1.0000
  C   C75       1.0  0.96701  0.52910  0.38042  1.0000
  C   C76       1.0  0.97481  0.57800  0.38113  1.0000
  H   H34       1.0  0.94300  0.58012  0.38656  1.0000
  H   H35       1.0  0.93035  0.50133  0.38526  1.0000
  C   C77       1.0  0.99297  0.68623  0.37895  1.0000
  C   C78       1.0  0.94930  0.42414  0.37367  1.0000
  H   H36       1.0  0.00442  0.72389  0.38215  1.0000
  H   H37       1.0  0.91861  0.42835  0.36752  1.0000
  H   H38       1.0  0.47558  0.63212  0.38418  1.0000
  C   C79       1.0  0.72386  0.63781  0.37392  1.0000
  H   H39       1.0  0.71964  0.60295  0.36670  1.0000
  C   C80       1.0  0.64665  0.91802  0.37788  1.0000
  N   N17       1.0  0.68271  0.86429  0.38297  1.0000
  C   C81       1.0  0.68971  0.91209  0.38468  1.0000
  C   C82       1.0  0.73798  0.95270  0.39384  1.0000
  O   O7        1.0  0.77284  0.94950  0.35974  1.0000
  O   O8        1.0  0.74612  0.97891  0.46299  1.0000
  H   H40       1.0  0.77631  0.00364  0.47935  1.0000
  N   N18       1.0  0.64996  0.96419  0.37920  1.0000
  C   C83       1.0  0.81552  0.67243  0.37789  1.0000
  N   N19       1.0  0.90531  0.70846  0.38279  1.0000
  C   C84       1.0  0.86452  0.71547  0.38460  1.0000
  C   C85       1.0  0.87219  0.76375  0.39380  1.0000
  O   O9        1.0  0.91024  0.79860  0.35964  1.0000
  O   O10       1.0  0.85416  0.77190  0.46298  1.0000
  H   H41       1.0  0.85964  0.80210  0.47937  1.0000
  N   N20       1.0  0.77266  0.67575  0.37928  1.0000
  C   C86       1.0  0.47558  0.25570  0.37663  1.0000
  N   N21       1.0  0.43944  0.30942  0.38055  1.0000
  C   C87       1.0  0.43253  0.26167  0.38180  1.0000
  N   N22       1.0  0.47218  0.20949  0.37771  1.0000
  C   C88       1.0  0.89229  0.33250  0.37710  1.0000
  N   N23       1.0  0.83863  0.24265  0.38124  1.0000
  C   C89       1.0  0.88636  0.28351  0.38249  1.0000
  C   C90       1.0  0.92717  0.27584  0.38992  1.0000
  O   O11       1.0  0.92548  0.24031  0.34865  1.0000
  O   O12       1.0  0.95389  0.28851  0.45924  1.0000
  H   H42       1.0  0.95545  0.31032  0.50078  1.0000
  N   N24       1.0  0.93849  0.37533  0.37810  1.0000
