data_image0
_chemical_formula_structural       C3NC3NC5NC5NC20H18C4H4CNC2O2HNCNC2O2HNC8H8NC3O2HN2C3O2HN
_chemical_formula_sum              "C60 N12 H34 O8"
_cell_length_a       25.5944
_cell_length_b       25.5943
_cell_length_c       14.5971
_cell_angle_alpha    90
_cell_angle_beta     90
_cell_angle_gamma    90.0372

_space_group_name_H-M_alt    "P 1"
_space_group_IT_number       1

loop_
  _space_group_symop_operation_xyz
  'x, y, z'

loop_
  _atom_site_type_symbol
  _atom_site_label
  _atom_site_symmetry_multiplicity
  _atom_site_fract_x
  _atom_site_fract_y
  _atom_site_fract_z
  _atom_site_occupancy
  C   C1        1.0  0.91755  0.87546  0.34891  1.0000
  C   C2        1.0  0.87873  0.91288  0.34900  1.0000
  C   C3        1.0  0.90225  0.96219  0.35051  1.0000
  N   N1        1.0  0.95442  0.95259  0.35328  1.0000
  C   C4        1.0  0.96592  0.90080  0.35137  1.0000
  C   C5        1.0  0.01532  0.87510  0.35013  1.0000
  C   C6        1.0  0.06432  0.90138  0.35085  1.0000
  N   N2        1.0  0.07363  0.95345  0.35298  1.0000
  C   C7        1.0  0.12534  0.96460  0.35107  1.0000
  C   C8        1.0  0.15086  0.91640  0.34796  1.0000
  C   C9        1.0  0.11339  0.87756  0.34833  1.0000
  C   C10       1.0  0.14978  0.01456  0.34995  1.0000
  C   C11       1.0  0.12228  0.06302  0.35045  1.0000
  N   N3        1.0  0.07012  0.07268  0.35340  1.0000
  C   C12       1.0  0.05860  0.12445  0.34979  1.0000
  C   C13       1.0  0.10697  0.14974  0.34610  1.0000
  C   C14       1.0  0.14580  0.11228  0.34698  1.0000
  C   C15       1.0  0.00916  0.15010  0.34813  1.0000
  C   C16       1.0  0.96015  0.12377  0.34951  1.0000
  N   N4        1.0  0.95083  0.07171  0.35144  1.0000
  C   C17       1.0  0.89911  0.06054  0.34991  1.0000
  C   C18       1.0  0.87354  0.10869  0.34718  1.0000
  C   C19       1.0  0.91101  0.14753  0.34766  1.0000
  C   C20       1.0  0.87468  0.01060  0.34878  1.0000
  C   C21       1.0  0.81892  0.00890  0.33983  1.0000
  C   C22       1.0  0.70774  0.00041  0.32123  1.0000
  C   C23       1.0  0.74135  0.99261  0.24535  1.0000
  C   C24       1.0  0.79595  0.99708  0.25427  1.0000
  C   C25       1.0  0.00835  0.20588  0.33906  1.0000
  C   C26       1.0  0.00050  0.31712  0.32068  1.0000
  C   C27       1.0  0.99272  0.28360  0.24465  1.0000
  C   C28       1.0  0.99688  0.22898  0.25347  1.0000
  C   C29       1.0  0.20553  0.01592  0.34089  1.0000
  C   C30       1.0  0.22847  0.02464  0.25423  1.0000
  C   C31       1.0  0.28314  0.02495  0.24375  1.0000
  C   C32       1.0  0.31701  0.01632  0.31914  1.0000
  C   C33       1.0  0.01584  0.81935  0.34103  1.0000
  C   C34       1.0  0.02405  0.79639  0.25425  1.0000
  C   C35       1.0  0.01569  0.70789  0.31932  1.0000
  C   C36       1.0  0.02407  0.74171  0.24377  1.0000
  H   H1        1.0  0.03019  0.72684  0.17952  1.0000
  H   H2        1.0  0.02999  0.81940  0.19783  1.0000
  H   H3        1.0  0.91078  0.83612  0.34660  1.0000
  H   H4        1.0  0.83967  0.90463  0.34712  1.0000
  H   H5        1.0  0.98047  0.97962  0.35450  1.0000
  H   H6        1.0  0.04407  0.04567  0.35604  1.0000
  H   H7        1.0  0.12129  0.83845  0.34593  1.0000
  H   H8        1.0  0.19020  0.90985  0.34502  1.0000
  H   H9        1.0  0.20543  0.03063  0.19787  1.0000
  H   H10       1.0  0.29800  0.03139  0.17957  1.0000
  H   H11       1.0  0.18487  0.12043  0.34411  1.0000
  H   H12       1.0  0.11369  0.18903  0.34203  1.0000
  H   H13       1.0  0.83418  0.11520  0.34468  1.0000
  H   H14       1.0  0.90301  0.18663  0.34566  1.0000
  H   H15       1.0  0.99025  0.20603  0.19719  1.0000
  H   H16       1.0  0.98336  0.29867  0.18175  1.0000
  H   H17       1.0  0.81896  0.99059  0.19804  1.0000
  H   H18       1.0  0.72637  0.98309  0.18245  1.0000
  C   C37       1.0  0.99318  0.37079  0.31007  1.0000
  C   C38       1.0  0.37110  0.01627  0.30506  1.0000
  C   C39       1.0  0.01550  0.65379  0.30526  1.0000
  C   C40       1.0  0.65408  0.99307  0.31046  1.0000
  H   H19       1.0  0.96848  0.38272  0.26176  1.0000
  H   H20       1.0  0.38410  0.01902  0.24094  1.0000
  H   H21       1.0  0.01780  0.64080  0.24108  1.0000
  H   H22       1.0  0.64216  0.96837  0.26211  1.0000
  C   C41       1.0  0.01443  0.45761  0.35534  1.0000
  N   N5        1.0  0.01476  0.54169  0.28482  1.0000
  C   C42       1.0  0.01524  0.48884  0.27507  1.0000
  C   C43       1.0  0.01868  0.46867  0.18755  1.0000
  O   O1        1.0  0.06221  0.46847  0.15325  1.0000
  O   O2        1.0  0.98298  0.47564  0.13183  1.0000
  H   H23       1.0  0.94961  0.47927  0.14678  1.0000
  N   N6        1.0  0.01672  0.40549  0.35897  1.0000
  C   C44       1.0  0.56727  0.01446  0.35542  1.0000
  N   N7        1.0  0.48325  0.01504  0.28471  1.0000
  C   C45       1.0  0.53611  0.01543  0.27508  1.0000
  C   C46       1.0  0.55638  0.01895  0.18765  1.0000
  O   O3        1.0  0.55685  0.06254  0.15360  1.0000
  O   O4        1.0  0.54927  0.98339  0.13170  1.0000
  H   H24       1.0  0.54546  0.95000  0.14645  1.0000
  N   N8        1.0  0.61938  0.01668  0.35919  1.0000
  C   C47       1.0  0.78564  0.01722  0.41577  1.0000
  C   C48       1.0  0.73088  0.01324  0.40652  1.0000
  C   C49       1.0  0.01674  0.23907  0.41511  1.0000
  C   C50       1.0  0.01305  0.29386  0.40598  1.0000
  C   C51       1.0  0.29367  0.00754  0.40592  1.0000
  C   C52       1.0  0.23886  0.00736  0.41666  1.0000
  C   C53       1.0  0.00754  0.78607  0.41696  1.0000
  C   C54       1.0  0.00743  0.73126  0.40622  1.0000
  H   H25       1.0  0.00097  0.70854  0.46280  1.0000
  H   H26       1.0  0.00126  0.80161  0.48061  1.0000
  H   H27       1.0  0.22335  0.00060  0.48020  1.0000
  H   H28       1.0  0.31640  0.00085  0.46238  1.0000
  H   H29       1.0  0.02463  0.22346  0.47815  1.0000
  H   H30       1.0  0.01822  0.31656  0.46298  1.0000
  H   H31       1.0  0.70812  0.01844  0.46343  1.0000
  H   H32       1.0  0.80116  0.02544  0.47876  1.0000
  N   N9        1.0  0.01390  0.48325  0.43688  1.0000
  C   C55       1.0  0.01308  0.53625  0.44683  1.0000
  C   C56       1.0  0.01346  0.56738  0.36650  1.0000
  C   C57       1.0  0.01234  0.55743  0.53439  1.0000
  O   O5        1.0  0.98668  0.53520  0.59336  1.0000
  O   O6        1.0  0.04938  0.58331  0.56453  1.0000
  H   H33       1.0  0.07437  0.59757  0.53080  1.0000
  N   N10       1.0  0.01332  0.61967  0.37014  1.0000
  N   N11       1.0  0.54158  0.01387  0.43691  1.0000
  C   C58       1.0  0.48857  0.01313  0.44673  1.0000
  C   C59       1.0  0.45751  0.01369  0.36633  1.0000
  C   C60       1.0  0.46734  0.01232  0.53425  1.0000
  O   O7        1.0  0.48944  0.98654  0.59315  1.0000
  O   O8        1.0  0.44159  0.04939  0.56449  1.0000
  H   H34       1.0  0.42744  0.07446  0.53083  1.0000
  N   N12       1.0  0.40522  0.01359  0.36989  1.0000
