data_image0
_chemical_formula_structural       C2NC2ONH2C2NC2ONH2C2NC2ONH2C2NC2ONH2NCHNCHNCHNCHNCHNCHNCHNCHC2NC2ONH2C2NC2ONH2C2NC2ONH2C2NC2ONH2C2NC2ONH2C2NC2ONH2C2NC2ONH2C2NC2ONH2NCHNCHNCHNCHNCHNCHNCHNCHNCHNCHC6H3C6H3C6H3C6H3C6H3C6H3C6H3C6H3C6H3C6H3C6H3C6H3C6H3C6H3C6H3C6H3C6H3C6H3C6H3C6H3NCHNCHNCHNCHC2NC2ONH2C2NC2ONH2C2NC2ONH2C2NC2ONH2C2NC2ONH2C2NC2ONH2C2NC2ONH2C2NC2ONH2NCHNCHNCHNCHNCHNCHNCHNCHC2NC2ONH2C2NC2ONH2C2NC2ONH2C2NC2ONH2C2NC2ONH2C2NC2ONH2C2NC2ONH2C2NC2ONH2C2NC2ONH2C2NC2ONH2
_chemical_formula_sum              "C270 N90 O30 H150"
_cell_length_a       43.9801
_cell_length_b       43.9801
_cell_length_c       14.8773
_cell_angle_alpha    90
_cell_angle_beta     90
_cell_angle_gamma    90

_space_group_name_H-M_alt    "P 1"
_space_group_IT_number       1

loop_
  _space_group_symop_operation_xyz
  'x, y, z'

loop_
  _atom_site_type_symbol
  _atom_site_label
  _atom_site_symmetry_multiplicity
  _atom_site_fract_x
  _atom_site_fract_y
  _atom_site_fract_z
  _atom_site_occupancy
  C   C1        1.0  0.37433  0.05471  0.32262  1.0000
  C   C2        1.0  0.31294  0.03816  0.32787  1.0000
  N   N1        1.0  0.32325  0.06088  0.27407  1.0000
  C   C3        1.0  0.35275  0.06971  0.26681  1.0000
  C   C4        1.0  0.35905  0.09239  0.20172  1.0000
  O   O1        1.0  0.33745  0.11350  0.18411  1.0000
  N   N2        1.0  0.38391  0.09207  0.14818  1.0000
  H   H1        1.0  0.39856  0.07555  0.15047  1.0000
  H   H2        1.0  0.38615  0.10713  0.10083  1.0000
  C   C5        1.0  0.63345  0.95294  0.32373  1.0000
  C   C6        1.0  0.69483  0.96942  0.33130  1.0000
  N   N3        1.0  0.68469  0.94687  0.27662  1.0000
  C   C7        1.0  0.65522  0.93808  0.26827  1.0000
  C   C8        1.0  0.64912  0.91565  0.20225  1.0000
  O   O2        1.0  0.67068  0.89446  0.18512  1.0000
  N   N4        1.0  0.62454  0.91630  0.14766  1.0000
  H   H3        1.0  0.60991  0.93284  0.14991  1.0000
  H   H4        1.0  0.62238  0.90133  0.10001  1.0000
  C   C9        1.0  0.95319  0.37418  0.32251  1.0000
  C   C10       1.0  0.96966  0.31277  0.32787  1.0000
  N   N5        1.0  0.94699  0.32310  0.27392  1.0000
  C   C11       1.0  0.93820  0.35261  0.26661  1.0000
  C   C12       1.0  0.91557  0.35896  0.20140  1.0000
  O   O3        1.0  0.89446  0.33737  0.18360  1.0000
  N   N6        1.0  0.91594  0.38383  0.14794  1.0000
  H   H5        1.0  0.93247  0.39847  0.15036  1.0000
  H   H6        1.0  0.90091  0.38609  0.10050  1.0000
  C   C13       1.0  0.05496  0.63329  0.32378  1.0000
  C   C14       1.0  0.03839  0.69465  0.33128  1.0000
  N   N7        1.0  0.06100  0.68454  0.27677  1.0000
  C   C15       1.0  0.06985  0.65509  0.26846  1.0000
  C   C16       1.0  0.09234  0.64903  0.20260  1.0000
  O   O4        1.0  0.11353  0.67062  0.18571  1.0000
  N   N8        1.0  0.09176  0.62448  0.14792  1.0000
  H   H7        1.0  0.07523  0.60983  0.14999  1.0000
  H   H8        1.0  0.10678  0.62235  0.10037  1.0000
  N   N9        1.0  0.14432  0.53128  0.30703  1.0000
  C   C17       1.0  0.17358  0.52176  0.30313  1.0000
  H   H9        1.0  0.17941  0.50471  0.25976  1.0000
  N   N10       1.0  0.86414  0.47632  0.31142  1.0000
  C   C18       1.0  0.83489  0.48585  0.30750  1.0000
  H   H10       1.0  0.82915  0.50318  0.26500  1.0000
  N   N11       1.0  0.53155  0.86352  0.30691  1.0000
  C   C19       1.0  0.52209  0.83425  0.30296  1.0000
  H   H11       1.0  0.50506  0.82839  0.25955  1.0000
  N   N12       1.0  0.47659  0.14371  0.31152  1.0000
  C   C20       1.0  0.48617  0.17295  0.30761  1.0000
  H   H12       1.0  0.50352  0.17865  0.26514  1.0000
  N   N13       1.0  0.17852  0.11843  0.30061  1.0000
  C   C21       1.0  0.18858  0.08914  0.29678  1.0000
  H   H13       1.0  0.18180  0.07550  0.24493  1.0000
  N   N14       1.0  0.82944  0.88929  0.30295  1.0000
  C   C22       1.0  0.81928  0.91855  0.29934  1.0000
  H   H14       1.0  0.82611  0.93232  0.24784  1.0000
  N   N15       1.0  0.88941  0.17824  0.30109  1.0000
  C   C23       1.0  0.91869  0.18834  0.29705  1.0000
  H   H15       1.0  0.93231  0.18154  0.24517  1.0000
  N   N16       1.0  0.11853  0.82918  0.30252  1.0000
  C   C24       1.0  0.08926  0.81906  0.29911  1.0000
  H   H16       1.0  0.07545  0.82589  0.24770  1.0000
  C   C25       1.0  0.32048  0.63818  0.31903  1.0000
  C   C26       1.0  0.29743  0.57839  0.32317  1.0000
  N   N17       1.0  0.28841  0.59930  0.26132  1.0000
  C   C27       1.0  0.29917  0.62815  0.25344  1.0000
  C   C28       1.0  0.28745  0.64559  0.18111  1.0000
  O   O5        1.0  0.25890  0.63973  0.15179  1.0000
  N   N18       1.0  0.30426  0.66553  0.13295  1.0000
  H   H17       1.0  0.32586  0.66823  0.14417  1.0000
  H   H18       1.0  0.29555  0.67552  0.08066  1.0000
  C   C29       1.0  0.68770  0.36942  0.32027  1.0000
  C   C30       1.0  0.71082  0.42923  0.32500  1.0000
  N   N19       1.0  0.71987  0.40833  0.26312  1.0000
  C   C31       1.0  0.70908  0.37951  0.25493  1.0000
  C   C32       1.0  0.72085  0.36212  0.18254  1.0000
  O   O6        1.0  0.74947  0.36791  0.15373  1.0000
  N   N20       1.0  0.70405  0.34225  0.13406  1.0000
  H   H19       1.0  0.68246  0.33948  0.14521  1.0000
  H   H20       1.0  0.71285  0.33218  0.08204  1.0000
  C   C33       1.0  0.63850  0.68727  0.31947  1.0000
  C   C34       1.0  0.57869  0.71036  0.32342  1.0000
  N   N21       1.0  0.59963  0.71932  0.26158  1.0000
  C   C35       1.0  0.62848  0.70855  0.25378  1.0000
  C   C36       1.0  0.64593  0.72022  0.18140  1.0000
  O   O7        1.0  0.64006  0.74874  0.15187  1.0000
  N   N22       1.0  0.66590  0.70338  0.13340  1.0000
  H   H21       1.0  0.66861  0.68179  0.14477  1.0000
  H   H22       1.0  0.67589  0.71206  0.08107  1.0000
  C   C37       1.0  0.36975  0.32008  0.31972  1.0000
  C   C38       1.0  0.42957  0.29701  0.32452  1.0000
  N   N23       1.0  0.40868  0.28792  0.26268  1.0000
  C   C39       1.0  0.37984  0.29868  0.25446  1.0000
  C   C40       1.0  0.36247  0.28687  0.18211  1.0000
  O   O8        1.0  0.36827  0.25823  0.15345  1.0000
  N   N24       1.0  0.34261  0.30363  0.13353  1.0000
  H   H23       1.0  0.33982  0.32523  0.14457  1.0000
  H   H24       1.0  0.33254  0.29480  0.08154  1.0000
  C   C41       1.0  0.21441  0.90310  0.32696  1.0000
  C   C42       1.0  0.22730  0.96627  0.33071  1.0000
  N   N25       1.0  0.24258  0.94625  0.27748  1.0000
  C   C43       1.0  0.23733  0.91585  0.27081  1.0000
  C   C44       1.0  0.25471  0.90019  0.20533  1.0000
  O   O9        1.0  0.28343  0.90974  0.18873  1.0000
  N   N26       1.0  0.24298  0.87876  0.15010  1.0000
  H   H25       1.0  0.22154  0.87340  0.15186  1.0000
  H   H26       1.0  0.25537  0.87013  0.10238  1.0000
  C   C45       1.0  0.79346  0.10443  0.32836  1.0000
  C   C46       1.0  0.78046  0.04131  0.33327  1.0000
  N   N27       1.0  0.76509  0.06126  0.28007  1.0000
  C   C47       1.0  0.77037  0.09165  0.27291  1.0000
  C   C48       1.0  0.75290  0.10722  0.20746  1.0000
  O   O10       1.0  0.72408  0.09777  0.19186  1.0000
  N   N28       1.0  0.76457  0.12849  0.15163  1.0000
  H   H27       1.0  0.78600  0.13387  0.15300  1.0000
  H   H28       1.0  0.75206  0.13718  0.10428  1.0000
  C   C49       1.0  0.10472  0.21430  0.32641  1.0000
  C   C50       1.0  0.04156  0.22716  0.33036  1.0000
  N   N29       1.0  0.06156  0.24252  0.27728  1.0000
  C   C51       1.0  0.09196  0.23729  0.27054  1.0000
  C   C52       1.0  0.10762  0.25477  0.20527  1.0000
  O   O11       1.0  0.09806  0.28351  0.18905  1.0000
  N   N30       1.0  0.12904  0.24312  0.14988  1.0000
  H   H29       1.0  0.13440  0.22169  0.15136  1.0000
  H   H30       1.0  0.13767  0.25558  0.10231  1.0000
  C   C53       1.0  0.90338  0.79334  0.32891  1.0000
  C   C54       1.0  0.96652  0.78034  0.33353  1.0000
  N   N31       1.0  0.94655  0.76504  0.28020  1.0000
  C   C55       1.0  0.91616  0.77033  0.27315  1.0000
  C   C56       1.0  0.90058  0.75295  0.20749  1.0000
  O   O12       1.0  0.91003  0.72416  0.19149  1.0000
  N   N32       1.0  0.87930  0.76471  0.15185  1.0000
  H   H31       1.0  0.87391  0.78614  0.15352  1.0000
  H   H32       1.0  0.87060  0.75227  0.10435  1.0000
  N   N33       1.0  0.30957  0.42197  0.30517  1.0000
  C   C57       1.0  0.30469  0.45252  0.30157  1.0000
  H   H33       1.0  0.31705  0.46544  0.25778  1.0000
  N   N34       1.0  0.69884  0.58549  0.30652  1.0000
  C   C58       1.0  0.70378  0.55496  0.30312  1.0000
  H   H34       1.0  0.69139  0.54196  0.25958  1.0000
  N   N35       1.0  0.42230  0.69835  0.30527  1.0000
  C   C59       1.0  0.45285  0.70321  0.30170  1.0000
  H   H35       1.0  0.46577  0.69081  0.25797  1.0000
  N   N36       1.0  0.58583  0.30908  0.30640  1.0000
  C   C60       1.0  0.55530  0.30411  0.30292  1.0000
  H   H36       1.0  0.54231  0.31649  0.25932  1.0000
  N   N37       1.0  0.23840  0.24526  0.29973  1.0000
  C   C61       1.0  0.26159  0.26554  0.29270  1.0000
  H   H37       1.0  0.27952  0.26036  0.25188  1.0000
  N   N38       1.0  0.76975  0.76235  0.30084  1.0000
  C   C62       1.0  0.74660  0.74202  0.29360  1.0000
  H   H38       1.0  0.72869  0.74719  0.25267  1.0000
  N   N39       1.0  0.76258  0.23810  0.30043  1.0000
  C   C63       1.0  0.74228  0.26127  0.29335  1.0000
  H   H39       1.0  0.74741  0.27917  0.25232  1.0000
  N   N40       1.0  0.24549  0.76946  0.30010  1.0000
  C   C64       1.0  0.26580  0.74629  0.29292  1.0000
  H   H40       1.0  0.26059  0.72834  0.25220  1.0000
  N   N41       1.0  0.47960  0.00304  0.29633  1.0000
  C   C65       1.0  0.50016  0.98036  0.28861  1.0000
  H   H41       1.0  0.49727  0.96403  0.24049  1.0000
  N   N42       1.0  0.00483  0.47945  0.29616  1.0000
  C   C66       1.0  0.02751  0.50002  0.28842  1.0000
  H   H42       1.0  0.04388  0.49709  0.24043  1.0000
  C   C67       1.0  0.28127  0.03249  0.33289  1.0000
  C   C68       1.0  0.26101  0.05714  0.34044  1.0000
  C   C69       1.0  0.22924  0.05293  0.34703  1.0000
  C   C70       1.0  0.21773  0.02275  0.34340  1.0000
  C   C71       1.0  0.23747  0.99722  0.33504  1.0000
  C   C72       1.0  0.26921  0.00281  0.33086  1.0000
  H   H43       1.0  0.19474  0.01940  0.34708  1.0000
  H   H44       1.0  0.28403  0.98492  0.32546  1.0000
  H   H45       1.0  0.26976  0.07877  0.34230  1.0000
  C   C73       1.0  0.72648  0.97510  0.33682  1.0000
  C   C74       1.0  0.74676  0.95045  0.34415  1.0000
  C   C75       1.0  0.77855  0.95467  0.35022  1.0000
  C   C76       1.0  0.79004  0.98485  0.34624  1.0000
  C   C77       1.0  0.77027  0.01037  0.33814  1.0000
  C   C78       1.0  0.73853  0.00478  0.33452  1.0000
  H   H46       1.0  0.81304  0.98820  0.34941  1.0000
  H   H47       1.0  0.72370  0.02266  0.32912  1.0000
  H   H48       1.0  0.73802  0.92882  0.34601  1.0000
  C   C79       1.0  0.97531  0.28111  0.33282  1.0000
  C   C80       1.0  0.95066  0.26084  0.34037  1.0000
  C   C81       1.0  0.95489  0.22907  0.34695  1.0000
  C   C82       1.0  0.98507  0.21756  0.34320  1.0000
  C   C83       1.0  0.01060  0.23732  0.33478  1.0000
  C   C84       1.0  0.00499  0.26905  0.33069  1.0000
  H   H49       1.0  0.98843  0.19458  0.34687  1.0000
  H   H50       1.0  0.02287  0.28388  0.32528  1.0000
  H   H51       1.0  0.92904  0.26959  0.34236  1.0000
  C   C85       1.0  0.03270  0.72630  0.33685  1.0000
  C   C86       1.0  0.05735  0.74658  0.34413  1.0000
  C   C87       1.0  0.05316  0.77836  0.35025  1.0000
  C   C88       1.0  0.02298  0.78988  0.34637  1.0000
  C   C89       1.0  0.99745  0.77012  0.33833  1.0000
  C   C90       1.0  0.00302  0.73838  0.33464  1.0000
  H   H52       1.0  0.01964  0.81288  0.34955  1.0000
  H   H53       1.0  0.98513  0.72356  0.32926  1.0000
  H   H54       1.0  0.07898  0.73783  0.34596  1.0000
  C   C91       1.0  0.22716  0.53162  0.34854  1.0000
  C   C92       1.0  0.24754  0.55614  0.34045  1.0000
  C   C93       1.0  0.27929  0.55175  0.33410  1.0000
  C   C94       1.0  0.29065  0.52155  0.33868  1.0000
  C   C95       1.0  0.27077  0.49614  0.34756  1.0000
  C   C96       1.0  0.23906  0.50188  0.35142  1.0000
  H   H55       1.0  0.31363  0.51809  0.33532  1.0000
  H   H56       1.0  0.22415  0.48408  0.35728  1.0000
  H   H57       1.0  0.23890  0.57780  0.33809  1.0000
  C   C97       1.0  0.78120  0.47581  0.35168  1.0000
  C   C98       1.0  0.76077  0.45133  0.34321  1.0000
  C   C99       1.0  0.72905  0.45578  0.33633  1.0000
  C   C100      1.0  0.71773  0.48601  0.34063  1.0000
  C   C101      1.0  0.73764  0.51138  0.34983  1.0000
  C   C102      1.0  0.76932  0.50557  0.35437  1.0000
  H   H58       1.0  0.69477  0.48951  0.33680  1.0000
  H   H59       1.0  0.78425  0.52335  0.36046  1.0000
  H   H60       1.0  0.76936  0.42965  0.34092  1.0000
  C   C103      1.0  0.53198  0.78070  0.34851  1.0000
  C   C104      1.0  0.55649  0.76030  0.34053  1.0000
  C   C105      1.0  0.55209  0.72855  0.33430  1.0000
  C   C106      1.0  0.52187  0.71721  0.33887  1.0000
  C   C107      1.0  0.49647  0.73711  0.34766  1.0000
  C   C108      1.0  0.50224  0.76881  0.35142  1.0000
  H   H61       1.0  0.51839  0.69423  0.33557  1.0000
  H   H62       1.0  0.48445  0.78373  0.35721  1.0000
  H   H63       1.0  0.57816  0.76892  0.33817  1.0000
  C   C109      1.0  0.47616  0.22666  0.35159  1.0000
  C   C110      1.0  0.45168  0.24708  0.34299  1.0000
  C   C111      1.0  0.45613  0.27880  0.33596  1.0000
  C   C112      1.0  0.48635  0.29012  0.34027  1.0000
  C   C113      1.0  0.51172  0.27023  0.34959  1.0000
  C   C114      1.0  0.50592  0.23854  0.35427  1.0000
  H   H64       1.0  0.48984  0.31309  0.33635  1.0000
  H   H65       1.0  0.52370  0.22362  0.36045  1.0000
  H   H66       1.0  0.43000  0.23849  0.34069  1.0000
  C   C115      1.0  0.19036  0.22540  0.34813  1.0000
  C   C116      1.0  0.19936  0.19449  0.35203  1.0000
  C   C117      1.0  0.17808  0.17024  0.35247  1.0000
  C   C118      1.0  0.14691  0.17745  0.34293  1.0000
  C   C119      1.0  0.13663  0.20789  0.33563  1.0000
  C   C120      1.0  0.15878  0.23140  0.34024  1.0000
  H   H67       1.0  0.13135  0.16010  0.34172  1.0000
  H   H68       1.0  0.15176  0.25353  0.33696  1.0000
  H   H69       1.0  0.22204  0.18949  0.35709  1.0000
  C   C121      1.0  0.81772  0.78225  0.34970  1.0000
  C   C122      1.0  0.80870  0.81315  0.35361  1.0000
  C   C123      1.0  0.82996  0.83742  0.35441  1.0000
  C   C124      1.0  0.86116  0.83023  0.34513  1.0000
  C   C125      1.0  0.87146  0.79979  0.33776  1.0000
  C   C126      1.0  0.84931  0.77627  0.34209  1.0000
  H   H70       1.0  0.87671  0.84758  0.34421  1.0000
  H   H71       1.0  0.85634  0.75415  0.33882  1.0000
  H   H72       1.0  0.78601  0.81813  0.35848  1.0000
  C   C127      1.0  0.78247  0.19011  0.34910  1.0000
  C   C128      1.0  0.81340  0.19909  0.35263  1.0000
  C   C129      1.0  0.83763  0.17780  0.35320  1.0000
  C   C130      1.0  0.83040  0.14662  0.34406  1.0000
  C   C131      1.0  0.79994  0.13635  0.33705  1.0000
  C   C132      1.0  0.77645  0.15852  0.34160  1.0000
  H   H73       1.0  0.84773  0.13105  0.34298  1.0000
  H   H74       1.0  0.75432  0.15152  0.33858  1.0000
  H   H75       1.0  0.81841  0.22178  0.35750  1.0000
  C   C133      1.0  0.22562  0.81747  0.34867  1.0000
  C   C134      1.0  0.19472  0.80844  0.35287  1.0000
  C   C135      1.0  0.17045  0.82969  0.35364  1.0000
  C   C136      1.0  0.17761  0.86087  0.34399  1.0000
  C   C137      1.0  0.20803  0.87118  0.33631  1.0000
  C   C138      1.0  0.23157  0.84906  0.34071  1.0000
  H   H76       1.0  0.16025  0.87641  0.34298  1.0000
  H   H77       1.0  0.25369  0.85610  0.33721  1.0000
  H   H78       1.0  0.18976  0.78575  0.35804  1.0000
  C   C139      1.0  0.31634  0.72407  0.33888  1.0000
  C   C140      1.0  0.30800  0.69302  0.33184  1.0000
  C   C141      1.0  0.32969  0.66917  0.33032  1.0000
  C   C142      1.0  0.36070  0.67686  0.34057  1.0000
  C   C143      1.0  0.37045  0.70743  0.34959  1.0000
  C   C144      1.0  0.34784  0.73056  0.34707  1.0000
  H   H79       1.0  0.37652  0.65976  0.34076  1.0000
  H   H80       1.0  0.35451  0.75284  0.34922  1.0000
  H   H81       1.0  0.28543  0.68743  0.32930  1.0000
  C   C145      1.0  0.69181  0.28354  0.33971  1.0000
  C   C146      1.0  0.70016  0.31459  0.33274  1.0000
  C   C147      1.0  0.67847  0.33843  0.33130  1.0000
  C   C148      1.0  0.64746  0.33072  0.34158  1.0000
  C   C149      1.0  0.63772  0.30015  0.35061  1.0000
  C   C150      1.0  0.66033  0.27703  0.34799  1.0000
  H   H82       1.0  0.63162  0.34782  0.34189  1.0000
  H   H83       1.0  0.65367  0.25475  0.35017  1.0000
  H   H84       1.0  0.72273  0.32016  0.33018  1.0000
  C   C151      1.0  0.72436  0.69151  0.33971  1.0000
  C   C152      1.0  0.69331  0.69982  0.33248  1.0000
  C   C153      1.0  0.66950  0.67810  0.33094  1.0000
  C   C154      1.0  0.67722  0.64710  0.34137  1.0000
  C   C155      1.0  0.70779  0.63739  0.35061  1.0000
  C   C156      1.0  0.73090  0.66003  0.34808  1.0000
  H   H85       1.0  0.66014  0.63125  0.34156  1.0000
  H   H86       1.0  0.75318  0.65339  0.35037  1.0000
  H   H87       1.0  0.68770  0.72238  0.32977  1.0000
  C   C157      1.0  0.28384  0.31604  0.33888  1.0000
  C   C158      1.0  0.31489  0.30766  0.33208  1.0000
  C   C159      1.0  0.33875  0.32933  0.33063  1.0000
  C   C160      1.0  0.33108  0.36035  0.34075  1.0000
  C   C161      1.0  0.30052  0.37013  0.34960  1.0000
  C   C162      1.0  0.27737  0.34754  0.34699  1.0000
  H   H88       1.0  0.34820  0.37617  0.34105  1.0000
  H   H89       1.0  0.25510  0.35423  0.34907  1.0000
  H   H90       1.0  0.32045  0.28509  0.32963  1.0000
  C   C163      1.0  0.44446  0.10290  0.35464  1.0000
  C   C164      1.0  0.41379  0.09421  0.34266  1.0000
  C   C165      1.0  0.40527  0.06337  0.33347  1.0000
  C   C166      1.0  0.42815  0.04097  0.34026  1.0000
  C   C167      1.0  0.45901  0.04888  0.35239  1.0000
  C   C168      1.0  0.46690  0.07998  0.35597  1.0000
  H   H91       1.0  0.42223  0.01846  0.33600  1.0000
  H   H92       1.0  0.48928  0.08606  0.36218  1.0000
  H   H93       1.0  0.39737  0.11068  0.34049  1.0000
  C   C169      1.0  0.56322  0.90456  0.35086  1.0000
  C   C170      1.0  0.59397  0.91338  0.34132  1.0000
  C   C171      1.0  0.60247  0.94427  0.33266  1.0000
  C   C172      1.0  0.57946  0.96662  0.33640  1.0000
  C   C173      1.0  0.54854  0.95835  0.34234  1.0000
  C   C174      1.0  0.54064  0.92734  0.34862  1.0000
  H   H94       1.0  0.58516  0.98914  0.33052  1.0000
  H   H95       1.0  0.51824  0.92139  0.35623  1.0000
  H   H96       1.0  0.61049  0.89700  0.34094  1.0000
  C   C175      1.0  0.90499  0.44427  0.35462  1.0000
  C   C176      1.0  0.91369  0.41361  0.34263  1.0000
  C   C177      1.0  0.94454  0.40511  0.33338  1.0000
  C   C178      1.0  0.96693  0.42800  0.34016  1.0000
  C   C179      1.0  0.95900  0.45886  0.35228  1.0000
  C   C180      1.0  0.92789  0.46672  0.35593  1.0000
  H   H97       1.0  0.98943  0.42209  0.33585  1.0000
  H   H98       1.0  0.92179  0.48910  0.36212  1.0000
  H   H99       1.0  0.89723  0.39717  0.34047  1.0000
  C   C181      1.0  0.10333  0.56303  0.35086  1.0000
  C   C182      1.0  0.09452  0.59379  0.34136  1.0000
  C   C183      1.0  0.06364  0.60231  0.33267  1.0000
  C   C184      1.0  0.04128  0.57930  0.33625  1.0000
  C   C185      1.0  0.04954  0.54838  0.34224  1.0000
  C   C186      1.0  0.08054  0.54046  0.34863  1.0000
  H   H100      1.0  0.01876  0.58501  0.33039  1.0000
  H   H101      1.0  0.08647  0.51806  0.35615  1.0000
  H   H102      1.0  0.11091  0.61030  0.34104  1.0000
  N   N43       1.0  0.36400  0.03177  0.37609  1.0000
  C   C187      1.0  0.33468  0.02243  0.37946  1.0000
  H   H103      1.0  0.32862  0.00562  0.42337  1.0000
  N   N44       1.0  0.64355  0.97578  0.37797  1.0000
  C   C188      1.0  0.67290  0.98504  0.38256  1.0000
  H   H104      1.0  0.67882  0.00183  0.42671  1.0000
  N   N45       1.0  0.97608  0.36383  0.37610  1.0000
  C   C189      1.0  0.98539  0.33450  0.37951  1.0000
  H   H105      1.0  0.00218  0.32842  0.42349  1.0000
  N   N46       1.0  0.03207  0.64336  0.37785  1.0000
  C   C190      1.0  0.02276  0.67269  0.38241  1.0000
  H   H106      1.0  0.00593  0.67859  0.42645  1.0000
  C   C191      1.0  0.13433  0.55451  0.35995  1.0000
  C   C192      1.0  0.19556  0.53753  0.35374  1.0000
  N   N47       1.0  0.18555  0.56053  0.40700  1.0000
  C   C193      1.0  0.15616  0.56961  0.41464  1.0000
  C   C194      1.0  0.15018  0.59254  0.47919  1.0000
  O   O13       1.0  0.17188  0.61371  0.49511  1.0000
  N   N48       1.0  0.12566  0.59237  0.53406  1.0000
  H   H107      1.0  0.11104  0.57580  0.53308  1.0000
  H   H108      1.0  0.12368  0.60758  0.58107  1.0000
  C   C195      1.0  0.87399  0.45278  0.36332  1.0000
  C   C196      1.0  0.81280  0.46986  0.35710  1.0000
  N   N49       1.0  0.82271  0.44657  0.40948  1.0000
  C   C197      1.0  0.85209  0.43743  0.41707  1.0000
  C   C198      1.0  0.85798  0.41417  0.48070  1.0000
  O   O14       1.0  0.83628  0.39288  0.49518  1.0000
  N   N50       1.0  0.88244  0.41405  0.53580  1.0000
  H   H109      1.0  0.89712  0.43056  0.53566  1.0000
  H   H110      1.0  0.88443  0.39849  0.58185  1.0000
  C   C199      1.0  0.55474  0.87355  0.35993  1.0000
  C   C200      1.0  0.53788  0.81229  0.35361  1.0000
  N   N51       1.0  0.56084  0.82233  0.40698  1.0000
  C   C201      1.0  0.56986  0.85175  0.41465  1.0000
  C   C202      1.0  0.59276  0.85777  0.47931  1.0000
  O   O15       1.0  0.61395  0.83611  0.49532  1.0000
  N   N52       1.0  0.59251  0.88230  0.53414  1.0000
  H   H111      1.0  0.57592  0.89689  0.53309  1.0000
  H   H112      1.0  0.60771  0.88431  0.58122  1.0000
  C   C203      1.0  0.45300  0.13389  0.36334  1.0000
  C   C204      1.0  0.47019  0.19507  0.35715  1.0000
  N   N53       1.0  0.44686  0.18519  0.40939  1.0000
  C   C205      1.0  0.43766  0.15583  0.41697  1.0000
  C   C206      1.0  0.41435  0.15000  0.48049  1.0000
  O   O16       1.0  0.39309  0.17173  0.49480  1.0000
  N   N54       1.0  0.41416  0.12555  0.53565  1.0000
  H   H113      1.0  0.43065  0.11084  0.53563  1.0000
  H   H114      1.0  0.39858  0.12360  0.58163  1.0000
  C   C207      1.0  0.18777  0.13933  0.36280  1.0000
  C   C208      1.0  0.21120  0.07964  0.35775  1.0000
  N   N55       1.0  0.22014  0.10053  0.41978  1.0000
  C   C209      1.0  0.20921  0.12931  0.42806  1.0000
  C   C210      1.0  0.22071  0.14664  0.50094  1.0000
  O   O17       1.0  0.24929  0.14093  0.53030  1.0000
  N   N56       1.0  0.20366  0.16622  0.54966  1.0000
  H   H115      1.0  0.18204  0.16875  0.53842  1.0000
  H   H116      1.0  0.21225  0.17612  0.60230  1.0000
  C   C211      1.0  0.82020  0.86830  0.36488  1.0000
  C   C212      1.0  0.79667  0.92797  0.36046  1.0000
  N   N57       1.0  0.78775  0.90697  0.42220  1.0000
  C   C213      1.0  0.79872  0.87820  0.43019  1.0000
  C   C214      1.0  0.78722  0.86078  0.50285  1.0000
  O   O18       1.0  0.75857  0.86631  0.53186  1.0000
  N   N58       1.0  0.80429  0.84121  0.55153  1.0000
  H   H117      1.0  0.82591  0.83867  0.54029  1.0000
  H   H118      1.0  0.79566  0.83111  0.60376  1.0000
  C   C215      1.0  0.86854  0.18750  0.36335  1.0000
  C   C216      1.0  0.92819  0.21101  0.35783  1.0000
  N   N59       1.0  0.90733  0.21996  0.41993  1.0000
  C   C217      1.0  0.87857  0.20900  0.42843  1.0000
  C   C218      1.0  0.86128  0.22053  0.50133  1.0000
  O   O19       1.0  0.86697  0.24913  0.53050  1.0000
  N   N60       1.0  0.84172  0.20350  0.55022  1.0000
  H   H119      1.0  0.83921  0.18187  0.53910  1.0000
  H   H120      1.0  0.83185  0.21211  0.60285  1.0000
  C   C219      1.0  0.13957  0.81994  0.36431  1.0000
  C   C220      1.0  0.07989  0.79645  0.36030  1.0000
  N   N61       1.0  0.10090  0.78754  0.42199  1.0000
  C   C221      1.0  0.12969  0.79849  0.42978  1.0000
  C   C222      1.0  0.14715  0.78702  0.50240  1.0000
  O   O20       1.0  0.14161  0.75839  0.53157  1.0000
  N   N62       1.0  0.16676  0.80411  0.55090  1.0000
  H   H121      1.0  0.16930  0.82572  0.53955  1.0000
  H   H122      1.0  0.17688  0.79550  0.60312  1.0000
  N   N63       1.0  0.32983  0.61726  0.38102  1.0000
  C   C223      1.0  0.31998  0.58790  0.38436  1.0000
  H   H123      1.0  0.32674  0.57425  0.43623  1.0000
  N   N64       1.0  0.67839  0.39028  0.38248  1.0000
  C   C224      1.0  0.68833  0.41960  0.38621  1.0000
  H   H124      1.0  0.68152  0.43325  0.43804  1.0000
  N   N65       1.0  0.61759  0.67803  0.38160  1.0000
  C   C225      1.0  0.58824  0.68791  0.38488  1.0000
  H   H125      1.0  0.57460  0.68122  0.43685  1.0000
  N   N66       1.0  0.39060  0.32944  0.38189  1.0000
  C   C226      1.0  0.41993  0.31952  0.38566  1.0000
  H   H126      1.0  0.43356  0.32636  0.43747  1.0000
  N   N67       1.0  0.19866  0.92314  0.37956  1.0000
  C   C227      1.0  0.20352  0.95371  0.38238  1.0000
  H   H127      1.0  0.19125  0.96673  0.42616  1.0000
  N   N68       1.0  0.80931  0.08446  0.38088  1.0000
  C   C228      1.0  0.80438  0.05390  0.38430  1.0000
  H   H128      1.0  0.81678  0.04091  0.42782  1.0000
  N   N69       1.0  0.08469  0.19848  0.37885  1.0000
  C   C229      1.0  0.05412  0.20332  0.38174  1.0000
  H   H129      1.0  0.04111  0.19099  0.42540  1.0000
  N   N70       1.0  0.92337  0.80912  0.38160  1.0000
  C   C230      1.0  0.95392  0.80417  0.38490  1.0000
  H   H130      1.0  0.96693  0.81651  0.42858  1.0000
  C   C231      1.0  0.29376  0.40202  0.35787  1.0000
  C   C232      1.0  0.28083  0.46517  0.35266  1.0000
  N   N71       1.0  0.26542  0.44526  0.40594  1.0000
  C   C233      1.0  0.27067  0.41486  0.41324  1.0000
  C   C234      1.0  0.25320  0.39933  0.47875  1.0000
  O   O21       1.0  0.22441  0.40882  0.49451  1.0000
  N   N72       1.0  0.26495  0.37826  0.53514  1.0000
  H   H131      1.0  0.28642  0.37304  0.53404  1.0000
  H   H132      1.0  0.25250  0.36974  0.58289  1.0000
  C   C235      1.0  0.71463  0.60552  0.35905  1.0000
  C   C236      1.0  0.72761  0.54237  0.35448  1.0000
  N   N73       1.0  0.74299  0.56235  0.40758  1.0000
  C   C237      1.0  0.73773  0.59276  0.41452  1.0000
  C   C238      1.0  0.75515  0.60835  0.48004  1.0000
  O   O22       1.0  0.78400  0.59899  0.49559  1.0000
  N   N74       1.0  0.74333  0.62940  0.53634  1.0000
  H   H133      1.0  0.72187  0.63465  0.53507  1.0000
  H   H134      1.0  0.75580  0.63808  0.58380  1.0000
  C   C239      1.0  0.40233  0.71420  0.35787  1.0000
  C   C240      1.0  0.46549  0.72709  0.35271  1.0000
  N   N75       1.0  0.44558  0.74253  0.40590  1.0000
  C   C241      1.0  0.41518  0.73730  0.41317  1.0000
  C   C242      1.0  0.39965  0.75480  0.47860  1.0000
  O   O23       1.0  0.40915  0.78361  0.49422  1.0000
  N   N76       1.0  0.37859  0.74309  0.53504  1.0000
  H   H135      1.0  0.37336  0.72162  0.53404  1.0000
  H   H136      1.0  0.37007  0.75557  0.58274  1.0000
  C   C243      1.0  0.60585  0.29333  0.35904  1.0000
  C   C244      1.0  0.54271  0.28028  0.35425  1.0000
  N   N77       1.0  0.56269  0.26493  0.40746  1.0000
  C   C245      1.0  0.59309  0.27022  0.41450  1.0000
  C   C246      1.0  0.60867  0.25284  0.48010  1.0000
  O   O24       1.0  0.59933  0.22399  0.49573  1.0000
  N   N78       1.0  0.62971  0.26468  0.53638  1.0000
  H   H137      1.0  0.63496  0.28615  0.53505  1.0000
  H   H138      1.0  0.63839  0.25223  0.58389  1.0000
  C   C247      1.0  0.21288  0.24925  0.35045  1.0000
  C   C248      1.0  0.26002  0.29351  0.33935  1.0000
  N   N79       1.0  0.23448  0.29752  0.38986  1.0000
  C   C249      1.0  0.21106  0.27726  0.39853  1.0000
  C   C250      1.0  0.18810  0.28527  0.46092  1.0000
  O   O25       1.0  0.18070  0.31500  0.46981  1.0000
  N   N80       1.0  0.17630  0.26560  0.52151  1.0000
  H   H139      1.0  0.18354  0.24477  0.52599  1.0000
  H   H140      1.0  0.16222  0.27280  0.56715  1.0000
  C   C251      1.0  0.79522  0.75838  0.35177  1.0000
  C   C252      1.0  0.74815  0.71408  0.34035  1.0000
  N   N81       1.0  0.77365  0.71010  0.39105  1.0000
  C   C253      1.0  0.79704  0.73037  0.39985  1.0000
  C   C254      1.0  0.81991  0.72241  0.46260  1.0000
  O   O26       1.0  0.82743  0.69270  0.47130  1.0000
  N   N82       1.0  0.83157  0.74211  0.52332  1.0000
  H   H141      1.0  0.82438  0.76296  0.52756  1.0000
  H   H142      1.0  0.84572  0.73498  0.56888  1.0000
  C   C255      1.0  0.75864  0.21263  0.35142  1.0000
  C   C256      1.0  0.71437  0.25974  0.34026  1.0000
  N   N83       1.0  0.71041  0.23426  0.39104  1.0000
  C   C257      1.0  0.73068  0.21086  0.39977  1.0000
  C   C258      1.0  0.72274  0.18796  0.46246  1.0000
  O   O27       1.0  0.69302  0.18057  0.47167  1.0000
  N   N84       1.0  0.74247  0.17625  0.52301  1.0000
  H   H143      1.0  0.76330  0.18349  0.52723  1.0000
  H   H144      1.0  0.73532  0.16222  0.56885  1.0000
  C   C259      1.0  0.24950  0.79499  0.35076  1.0000
  C   C260      1.0  0.29379  0.74788  0.33944  1.0000
  N   N85       1.0  0.29781  0.77343  0.38988  1.0000
  C   C261      1.0  0.27756  0.79685  0.39861  1.0000
  C   C262      1.0  0.28558  0.81978  0.46107  1.0000
  O   O28       1.0  0.31529  0.82730  0.46949  1.0000
  N   N86       1.0  0.26593  0.83151  0.52182  1.0000
  H   H145      1.0  0.24508  0.82433  0.52630  1.0000
  H   H146      1.0  0.27310  0.84571  0.56719  1.0000
  C   C263      1.0  0.48159  0.02594  0.35765  1.0000
  C   C264      1.0  0.52586  0.98089  0.34490  1.0000
  N   N87       1.0  0.52788  0.00350  0.40661  1.0000
  C   C265      1.0  0.50697  0.02594  0.41711  1.0000
  C   C266      1.0  0.51182  0.04602  0.49028  1.0000
  O   O29       1.0  0.54077  0.05268  0.51407  1.0000
  N   N88       1.0  0.48935  0.05593  0.54503  1.0000
  H   H147      1.0  0.46848  0.04908  0.53778  1.0000
  H   H148      1.0  0.49421  0.06810  0.59764  1.0000
  C   C267      1.0  0.98192  0.48145  0.35741  1.0000
  C   C268      1.0  0.02698  0.52572  0.34470  1.0000
  N   N89       1.0  0.00436  0.52774  0.40639  1.0000
  C   C269      1.0  0.98190  0.50684  0.41684  1.0000
  C   C270      1.0  0.96187  0.51167  0.49014  1.0000
  O   O30       1.0  0.95512  0.54063  0.51372  1.0000
  N   N90       1.0  0.95204  0.48919  0.54496  1.0000
  H   H149      1.0  0.95883  0.46831  0.53759  1.0000
  H   H150      1.0  0.93977  0.49402  0.59741  1.0000
