data_image0
_chemical_formula_structural       CNHCNHCNHCNCNCNC18H12CNCNCNC18H12C3NCH3C3NCH3C3NCH3
_chemical_formula_sum              "C57 N12 H36"
_cell_length_a       29.4193
_cell_length_b       29.4193
_cell_length_c       14.9826
_cell_angle_alpha    90
_cell_angle_beta     90
_cell_angle_gamma    120

_space_group_name_H-M_alt    "P 1"
_space_group_IT_number       1

loop_
  _space_group_symop_operation_xyz
  'x, y, z'

loop_
  _atom_site_type_symbol
  _atom_site_label
  _atom_site_symmetry_multiplicity
  _atom_site_fract_x
  _atom_site_fract_y
  _atom_site_fract_z
  _atom_site_occupancy
  C   C1        1.0  0.48501  0.45819  0.28312  1.0000
  N   N1        1.0  0.45925  0.48561  0.28201  1.0000
  H   H1        1.0  0.47480  0.42909  0.23691  1.0000
  C   C2        1.0  0.54329  0.02711  0.28316  1.0000
  N   N2        1.0  0.51586  0.97394  0.28202  1.0000
  H   H2        1.0  0.57235  0.04600  0.23688  1.0000
  C   C3        1.0  0.97435  0.51644  0.28308  1.0000
  N   N3        1.0  0.02752  0.54221  0.28198  1.0000
  H   H3        1.0  0.95546  0.52666  0.23686  1.0000
  C   C4        1.0  0.36154  0.72125  0.33135  1.0000
  N   N4        1.0  0.38693  0.69328  0.33146  1.0000
  C   C5        1.0  0.36086  0.63991  0.33136  1.0000
  N   N5        1.0  0.30752  0.61453  0.33145  1.0000
  C   C6        1.0  0.28021  0.64059  0.33133  1.0000
  N   N6        1.0  0.30817  0.69394  0.33144  1.0000
  C   C7        1.0  0.38838  0.61164  0.33250  1.0000
  C   C8        1.0  0.43988  0.63443  0.36743  1.0000
  C   C9        1.0  0.46670  0.60608  0.37045  1.0000
  C   C10       1.0  0.44364  0.55432  0.33653  1.0000
  C   C11       1.0  0.39247  0.53184  0.30027  1.0000
  C   C12       1.0  0.36508  0.55969  0.29942  1.0000
  C   C13       1.0  0.38982  0.77704  0.33247  1.0000
  C   C14       1.0  0.44177  0.80568  0.29940  1.0000
  C   C15       1.0  0.46961  0.86092  0.30022  1.0000
  C   C16       1.0  0.44714  0.88961  0.33651  1.0000
  C   C17       1.0  0.39539  0.86092  0.37044  1.0000
  C   C18       1.0  0.36703  0.80574  0.36740  1.0000
  C   C19       1.0  0.22442  0.61307  0.33245  1.0000
  C   C20       1.0  0.19577  0.63637  0.29935  1.0000
  C   C21       1.0  0.14053  0.60898  0.30022  1.0000
  C   C22       1.0  0.11184  0.55782  0.33649  1.0000
  C   C23       1.0  0.14053  0.53475  0.37041  1.0000
  C   C24       1.0  0.19572  0.56157  0.36734  1.0000
  H   H4        1.0  0.50709  0.87992  0.27566  1.0000
  H   H5        1.0  0.45970  0.78663  0.27279  1.0000
  H   H6        1.0  0.37729  0.87993  0.39662  1.0000
  H   H7        1.0  0.32977  0.78674  0.39295  1.0000
  H   H8        1.0  0.21483  0.67337  0.27280  1.0000
  H   H9        1.0  0.12153  0.62746  0.27564  1.0000
  H   H10       1.0  0.21471  0.54333  0.39294  1.0000
  H   H11       1.0  0.12152  0.49765  0.39658  1.0000
  H   H12       1.0  0.32809  0.54176  0.27280  1.0000
  H   H13       1.0  0.37401  0.49437  0.27566  1.0000
  H   H14       1.0  0.50380  0.62417  0.39662  1.0000
  H   H15       1.0  0.45813  0.67168  0.39297  1.0000
  C   C25       1.0  0.64109  0.27974  0.33186  1.0000
  N   N7        1.0  0.61499  0.30702  0.33203  1.0000
  C   C26       1.0  0.63981  0.36036  0.33187  1.0000
  N   N8        1.0  0.69319  0.38646  0.33202  1.0000
  C   C27       1.0  0.72171  0.36164  0.33187  1.0000
  N   N9        1.0  0.69443  0.30826  0.33202  1.0000
  C   C28       1.0  0.61119  0.38773  0.33348  1.0000
  C   C29       1.0  0.55599  0.36073  0.34550  1.0000
  C   C30       1.0  0.52794  0.38786  0.34925  1.0000
  C   C31       1.0  0.55415  0.44309  0.34129  1.0000
  C   C32       1.0  0.60896  0.47019  0.32695  1.0000
  C   C33       1.0  0.63698  0.44303  0.32386  1.0000
  C   C34       1.0  0.61373  0.22375  0.33348  1.0000
  C   C35       1.0  0.55842  0.19423  0.32386  1.0000
  C   C36       1.0  0.53128  0.13905  0.32695  1.0000
  C   C37       1.0  0.55838  0.11135  0.34129  1.0000
  C   C38       1.0  0.61361  0.14037  0.34927  1.0000
  C   C39       1.0  0.64074  0.19556  0.34551  1.0000
  C   C40       1.0  0.77770  0.39026  0.33346  1.0000
  C   C41       1.0  0.80721  0.36447  0.32383  1.0000
  C   C42       1.0  0.86239  0.39250  0.32692  1.0000
  C   C43       1.0  0.89010  0.44731  0.34124  1.0000
  C   C44       1.0  0.86109  0.47352  0.34916  1.0000
  C   C45       1.0  0.80589  0.44546  0.34548  1.0000
  H   H16       1.0  0.49137  0.11920  0.31898  1.0000
  H   H17       1.0  0.53702  0.21252  0.31405  1.0000
  H   H18       1.0  0.63450  0.12155  0.35943  1.0000
  H   H19       1.0  0.68064  0.21489  0.35304  1.0000
  H   H20       1.0  0.78892  0.32477  0.31403  1.0000
  H   H21       1.0  0.88223  0.37243  0.31895  1.0000
  H   H22       1.0  0.78657  0.46603  0.35300  1.0000
  H   H23       1.0  0.87991  0.51323  0.35938  1.0000
  H   H24       1.0  0.67668  0.46443  0.31405  1.0000
  H   H25       1.0  0.62903  0.51010  0.31897  1.0000
  H   H26       1.0  0.48822  0.36698  0.35939  1.0000
  H   H27       1.0  0.53541  0.32082  0.35301  1.0000
  C   C46       1.0  0.53741  0.51220  0.40581  1.0000
  C   C47       1.0  0.52594  0.47069  0.34495  1.0000
  C   C48       1.0  0.47101  0.52589  0.33911  1.0000
  N   N10       1.0  0.50976  0.53778  0.39969  1.0000
  C   C49       1.0  0.57568  0.52916  0.48011  1.0000
  H   H28       1.0  0.59281  0.50410  0.48870  1.0000
  H   H29       1.0  0.55615  0.52830  0.54257  1.0000
  H   H30       1.0  0.60726  0.56924  0.46806  1.0000
  C   C50       1.0  0.48930  0.02550  0.40588  1.0000
  C   C51       1.0  0.53080  0.05554  0.34500  1.0000
  C   C52       1.0  0.47558  0.94542  0.33912  1.0000
  N   N11       1.0  0.46370  0.97227  0.39973  1.0000
  C   C53       1.0  0.47230  0.04681  0.48011  1.0000
  H   H31       1.0  0.49737  0.08901  0.48872  1.0000
  H   H32       1.0  0.47313  0.02814  0.54260  1.0000
  H   H33       1.0  0.43223  0.03832  0.46799  1.0000
  C   C54       1.0  0.97595  0.46405  0.40577  1.0000
  C   C55       1.0  0.94591  0.47552  0.34490  1.0000
  C   C56       1.0  0.05604  0.53045  0.33908  1.0000
  N   N12       1.0  0.02918  0.49170  0.39967  1.0000
  C   C57       1.0  0.95465  0.42579  0.48008  1.0000
  H   H34       1.0  0.91245  0.40866  0.48868  1.0000
  H   H35       1.0  0.97332  0.44532  0.54255  1.0000
  H   H36       1.0  0.96315  0.39421  0.46804  1.0000
