data_image0
_chemical_formula_structural       C4NC4NH4N2C4NC4NH4N2C4NC4NH4N2CNCHCHCNCHCHCNCHCHCNCHCHCNCHCHCNCHCHC2HC2H3N2C2HC2H3N2C2HC2H3N3C3H3CHNC3H3CHNC3H3CHNC3H3CHNC3H3CHNC3H3CH
_chemical_formula_sum              "C78 N30 H60"
_cell_length_a       31.4767
_cell_length_b       31.4767
_cell_length_c       15.0124
_cell_angle_alpha    90
_cell_angle_beta     90
_cell_angle_gamma    120

_space_group_name_H-M_alt    "P 1"
_space_group_IT_number       1

loop_
  _space_group_symop_operation_xyz
  'x, y, z'

loop_
  _atom_site_type_symbol
  _atom_site_label
  _atom_site_symmetry_multiplicity
  _atom_site_fract_x
  _atom_site_fract_y
  _atom_site_fract_z
  _atom_site_occupancy
  C   C1        1.0  0.97313  0.48676  0.32791  1.0000
  C   C2        1.0  0.86731  0.43522  0.32808  1.0000
  C   C3        1.0  0.89336  0.40943  0.31683  1.0000
  C   C4        1.0  0.94492  0.43563  0.31025  1.0000
  N   N1        1.0  0.81726  0.41076  0.32784  1.0000
  C   C5        1.0  0.02563  0.51233  0.32797  1.0000
  C   C6        1.0  0.05386  0.56345  0.31030  1.0000
  C   C7        1.0  0.10541  0.58965  0.31697  1.0000
  C   C8        1.0  0.13145  0.56384  0.32820  1.0000
  N   N2        1.0  0.18151  0.58828  0.32788  1.0000
  H   H1        1.0  0.20076  0.62258  0.31139  1.0000
  H   H2        1.0  0.79800  0.37644  0.31147  1.0000
  H   H3        1.0  0.96186  0.41594  0.29619  1.0000
  H   H4        1.0  0.03692  0.58315  0.29618  1.0000
  N   N3        1.0  0.12723  0.63934  0.31655  1.0000
  N   N4        1.0  0.87156  0.35975  0.31652  1.0000
  C   C9        1.0  0.51223  0.48619  0.32791  1.0000
  C   C10       1.0  0.56383  0.43196  0.32819  1.0000
  C   C11       1.0  0.58959  0.48381  0.31697  1.0000
  C   C12       1.0  0.56336  0.50912  0.31016  1.0000
  N   N5        1.0  0.58832  0.40640  0.32800  1.0000
  C   C13       1.0  0.48664  0.51310  0.32792  1.0000
  C   C14       1.0  0.43552  0.49018  0.31019  1.0000
  C   C15       1.0  0.40930  0.51551  0.31695  1.0000
  C   C16       1.0  0.43510  0.56736  0.32814  1.0000
  N   N6        1.0  0.41064  0.59296  0.32784  1.0000
  H   H5        1.0  0.37633  0.57790  0.31138  1.0000
  H   H6        1.0  0.62264  0.42148  0.31162  1.0000
  H   H7        1.0  0.58304  0.54577  0.29617  1.0000
  H   H8        1.0  0.41582  0.45353  0.29624  1.0000
  N   N7        1.0  0.35962  0.48763  0.31660  1.0000
  N   N8        1.0  0.63928  0.51171  0.31659  1.0000
  C   C17       1.0  0.51279  0.02584  0.32790  1.0000
  C   C18       1.0  0.56702  0.13166  0.32808  1.0000
  C   C19       1.0  0.51518  0.10558  0.31681  1.0000
  C   C20       1.0  0.48985  0.05403  0.31021  1.0000
  N   N9        1.0  0.59259  0.18172  0.32784  1.0000
  C   C21       1.0  0.48587  0.97334  0.32792  1.0000
  C   C22       1.0  0.50878  0.94513  0.31018  1.0000
  C   C23       1.0  0.48343  0.89358  0.31689  1.0000
  C   C24       1.0  0.43159  0.86753  0.32816  1.0000
  N   N10       1.0  0.40597  0.81747  0.32786  1.0000
  H   H9        1.0  0.42102  0.79821  0.31141  1.0000
  H   H10       1.0  0.57749  0.20095  0.31149  1.0000
  H   H11       1.0  0.45322  0.03706  0.29606  1.0000
  H   H12       1.0  0.54543  0.96208  0.29623  1.0000
  N   N11       1.0  0.51132  0.87178  0.31658  1.0000
  N   N12       1.0  0.48727  0.12735  0.31647  1.0000
  C   C25       1.0  0.19300  0.47183  0.30731  1.0000
  N   N13       1.0  0.26737  0.47316  0.27187  1.0000
  C   C26       1.0  0.22523  0.47049  0.24362  1.0000
  H   H13       1.0  0.21945  0.47137  0.17680  1.0000
  C   C27       1.0  0.15618  0.48233  0.28339  1.0000
  H   H14       1.0  0.15759  0.49633  0.22108  1.0000
  C   C28       1.0  0.52717  0.72099  0.30709  1.0000
  N   N14       1.0  0.52584  0.79405  0.27177  1.0000
  C   C29       1.0  0.52852  0.75459  0.24348  1.0000
  H   H15       1.0  0.52764  0.74795  0.17665  1.0000
  C   C30       1.0  0.51656  0.67362  0.28333  1.0000
  H   H16       1.0  0.50258  0.66108  0.22098  1.0000
  C   C31       1.0  0.27802  0.80602  0.30705  1.0000
  N   N15       1.0  0.20499  0.73161  0.27169  1.0000
  C   C32       1.0  0.24443  0.77377  0.24342  1.0000
  H   H17       1.0  0.25105  0.77957  0.17659  1.0000
  C   C33       1.0  0.32535  0.84283  0.28326  1.0000
  H   H18       1.0  0.33793  0.84138  0.22096  1.0000
  C   C34       1.0  0.80574  0.52724  0.30701  1.0000
  N   N16       1.0  0.73144  0.52606  0.27170  1.0000
  C   C35       1.0  0.77353  0.52864  0.24338  1.0000
  H   H19       1.0  0.77929  0.52776  0.17654  1.0000
  C   C36       1.0  0.84254  0.51671  0.28319  1.0000
  H   H20       1.0  0.84107  0.50266  0.22090  1.0000
  C   C37       1.0  0.47173  0.27825  0.30715  1.0000
  N   N17       1.0  0.47287  0.20514  0.27180  1.0000
  C   C38       1.0  0.47027  0.24463  0.24347  1.0000
  H   H21       1.0  0.47142  0.25139  0.17664  1.0000
  C   C39       1.0  0.48252  0.32567  0.28346  1.0000
  H   H22       1.0  0.49641  0.33824  0.22107  1.0000
  C   C40       1.0  0.72069  0.19328  0.30725  1.0000
  N   N18       1.0  0.79377  0.26759  0.27184  1.0000
  C   C41       1.0  0.75428  0.22546  0.24356  1.0000
  H   H23       1.0  0.74754  0.21984  0.17674  1.0000
  C   C42       1.0  0.67332  0.15659  0.28340  1.0000
  H   H24       1.0  0.66074  0.15797  0.22105  1.0000
  C   C43       1.0  0.94623  0.51101  0.34595  1.0000
  C   C44       1.0  0.89470  0.48702  0.33961  1.0000
  H   H25       1.0  0.96412  0.54761  0.36067  1.0000
  C   C45       1.0  0.10404  0.51205  0.33978  1.0000
  C   C46       1.0  0.05252  0.48808  0.34618  1.0000
  H   H26       1.0  0.03461  0.45148  0.36081  1.0000
  H   H27       1.0  0.20010  0.57237  0.34318  1.0000
  H   H28       1.0  0.79864  0.42666  0.34313  1.0000
  N   N19       1.0  0.12488  0.48337  0.34400  1.0000
  N   N20       1.0  0.87385  0.51568  0.34382  1.0000
  C   C47       1.0  0.48802  0.43505  0.34608  1.0000
  C   C48       1.0  0.51203  0.40754  0.33968  1.0000
  H   H29       1.0  0.45141  0.41633  0.36069  1.0000
  C   C49       1.0  0.48689  0.59176  0.33968  1.0000
  C   C50       1.0  0.51088  0.56423  0.34611  1.0000
  H   H30       1.0  0.54748  0.58294  0.36076  1.0000
  H   H31       1.0  0.42653  0.62747  0.34313  1.0000
  H   H32       1.0  0.57245  0.37190  0.34338  1.0000
  N   N21       1.0  0.51555  0.64128  0.34390  1.0000
  N   N22       1.0  0.48338  0.35802  0.34389  1.0000
  C   C51       1.0  0.56393  0.05276  0.34606  1.0000
  C   C52       1.0  0.59144  0.10428  0.33965  1.0000
  H   H33       1.0  0.58264  0.03488  0.36068  1.0000
  C   C53       1.0  0.40720  0.89493  0.33974  1.0000
  C   C54       1.0  0.43473  0.94644  0.34606  1.0000
  H   H34       1.0  0.41605  0.96435  0.36082  1.0000
  H   H35       1.0  0.37146  0.79887  0.34319  1.0000
  H   H36       1.0  0.62707  0.20034  0.34328  1.0000
  N   N23       1.0  0.35768  0.87408  0.34395  1.0000
  N   N24       1.0  0.64096  0.12515  0.34386  1.0000
  N   N25       1.0  0.20484  0.47280  0.39456  1.0000
  C   C55       1.0  0.24654  0.47450  0.42399  1.0000
  C   C56       1.0  0.28020  0.47604  0.35913  1.0000
  C   C57       1.0  0.25514  0.47750  0.52125  1.0000
  H   H37       1.0  0.22347  0.47367  0.55807  1.0000
  H   H38       1.0  0.28681  0.51288  0.53849  1.0000
  H   H39       1.0  0.26187  0.44818  0.54228  1.0000
  C   C58       1.0  0.32900  0.48936  0.37804  1.0000
  H   H40       1.0  0.34353  0.50530  0.43823  1.0000
  N   N26       1.0  0.52614  0.73183  0.39436  1.0000
  C   C59       1.0  0.52446  0.77182  0.42386  1.0000
  C   C60       1.0  0.52293  0.80396  0.35904  1.0000
  C   C61       1.0  0.52135  0.77733  0.52112  1.0000
  H   H41       1.0  0.52516  0.74946  0.55791  1.0000
  H   H42       1.0  0.48595  0.77358  0.53826  1.0000
  H   H43       1.0  0.55063  0.81336  0.54229  1.0000
  C   C62       1.0  0.50958  0.83941  0.37798  1.0000
  H   H44       1.0  0.49362  0.83799  0.43816  1.0000
  N   N27       1.0  0.26718  0.79412  0.39431  1.0000
  C   C63       1.0  0.22721  0.75242  0.42378  1.0000
  C   C64       1.0  0.19508  0.71874  0.35893  1.0000
  C   C65       1.0  0.22169  0.74381  0.52104  1.0000
  H   H45       1.0  0.24954  0.77549  0.55783  1.0000
  H   H46       1.0  0.22546  0.71216  0.53819  1.0000
  H   H47       1.0  0.18565  0.73703  0.54221  1.0000
  C   C66       1.0  0.15959  0.66997  0.37796  1.0000
  H   H48       1.0  0.16101  0.65546  0.43817  1.0000
  N   N28       1.0  0.79395  0.52631  0.39430  1.0000
  C   C67       1.0  0.75230  0.52468  0.42379  1.0000
  C   C68       1.0  0.71863  0.52318  0.35897  1.0000
  C   C69       1.0  0.74376  0.52173  0.52107  1.0000
  H   H49       1.0  0.77543  0.52551  0.55783  1.0000
  H   H50       1.0  0.71207  0.48638  0.53836  1.0000
  H   H51       1.0  0.73710  0.55109  0.54211  1.0000
  C   C70       1.0  0.66991  0.51008  0.37812  1.0000
  H   H52       1.0  0.65538  0.49407  0.43826  1.0000
  N   N29       1.0  0.47260  0.26736  0.39442  1.0000
  C   C71       1.0  0.47413  0.22728  0.42387  1.0000
  C   C72       1.0  0.47562  0.19510  0.35907  1.0000
  C   C73       1.0  0.47706  0.22165  0.52115  1.0000
  H   H53       1.0  0.47329  0.24954  0.55793  1.0000
  H   H54       1.0  0.51240  0.22529  0.53845  1.0000
  H   H55       1.0  0.44769  0.18564  0.54215  1.0000
  C   C74       1.0  0.48887  0.15957  0.37804  1.0000
  H   H56       1.0  0.50487  0.16104  0.43819  1.0000
  N   N30       1.0  0.73160  0.20507  0.39451  1.0000
  C   C75       1.0  0.77166  0.24670  0.42396  1.0000
  C   C76       1.0  0.80378  0.28037  0.35911  1.0000
  C   C77       1.0  0.77731  0.25526  0.52123  1.0000
  H   H57       1.0  0.74945  0.22359  0.55803  1.0000
  H   H58       1.0  0.77365  0.28695  0.53856  1.0000
  H   H59       1.0  0.81334  0.26193  0.54219  1.0000
  C   C78       1.0  0.83933  0.32914  0.37810  1.0000
  H   H60       1.0  0.83787  0.34369  0.43823  1.0000
