data_image0
_chemical_formula_structural       C2NC3N2HNC3N2HNC3N2HNCNCNC3O3NCNCNC3O3CNC2N2HCNC2N2HCNC2N2HC2NC3N2HNC3N2HNC3N2HNCNCNC3O3NCNCNC3O3CNC2N2HCNC2N2HCNC2N2HC2NC3N2HNC3N2HNC3N2HNCNCNC3O3NCNCNC3O3CNC2N2HCNC2N2HCNC2N2HC2NC3N2HNC3N2HNC3N2HNCNCNC3O3NCNCNC3O3CNC2N2HCNC2N2HCNC2N2H
_chemical_formula_sum              "C120 N96 H24 O24"
_cell_length_a       42.552
_cell_length_b       42.552
_cell_length_c       15.0488
_cell_angle_alpha    90
_cell_angle_beta     90
_cell_angle_gamma    120

_space_group_name_H-M_alt    "P 1"
_space_group_IT_number       1

loop_
  _space_group_symop_operation_xyz
  'x, y, z'

loop_
  _atom_site_type_symbol
  _atom_site_label
  _atom_site_symmetry_multiplicity
  _atom_site_fract_x
  _atom_site_fract_y
  _atom_site_fract_z
  _atom_site_occupancy
  C   C1        1.0  0.12779  0.32012  0.22923  1.0000
  C   C2        1.0  0.36733  0.17663  0.43443  1.0000
  N   N1        1.0  0.28281  0.26035  0.34234  1.0000
  C   C3        1.0  0.27308  0.28264  0.30188  1.0000
  C   C4        1.0  0.23561  0.27026  0.28956  1.0000
  C   C5        1.0  0.29934  0.31397  0.27573  1.0000
  N   N2        1.0  0.32255  0.34158  0.25242  1.0000
  N   N3        1.0  0.22265  0.29110  0.25396  1.0000
  H   H1        1.0  0.24055  0.31623  0.24072  1.0000
  N   N4        1.0  0.23560  0.02165  0.34215  1.0000
  C   C6        1.0  0.21331  0.48963  0.30172  1.0000
  C   C7        1.0  0.22569  0.46454  0.28941  1.0000
  C   C8        1.0  0.18196  0.48454  0.27569  1.0000
  N   N5        1.0  0.15433  0.48013  0.25248  1.0000
  N   N6        1.0  0.20484  0.43074  0.25378  1.0000
  H   H2        1.0  0.17971  0.42350  0.24058  1.0000
  N   N7        1.0  0.47430  0.21313  0.34257  1.0000
  C   C9        1.0  0.00632  0.22286  0.30214  1.0000
  C   C10       1.0  0.03141  0.26033  0.28986  1.0000
  C   C11       1.0  0.01139  0.19660  0.27596  1.0000
  N   N8        1.0  0.01577  0.17338  0.25261  1.0000
  N   N9        1.0  0.06521  0.27328  0.25421  1.0000
  H   H3        1.0  0.07244  0.25539  0.24098  1.0000
  N   N10       1.0  0.15288  0.35602  0.22986  1.0000
  C   C12       1.0  0.18907  0.36815  0.22904  1.0000
  N   N11       1.0  0.19989  0.34306  0.22979  1.0000
  C   C13       1.0  0.17583  0.30686  0.22914  1.0000
  N   N12       1.0  0.13993  0.29606  0.22998  1.0000
  C   C14       1.0  0.21474  0.40508  0.24108  1.0000
  C   C15       1.0  0.18709  0.28120  0.24135  1.0000
  C   C16       1.0  0.09086  0.30884  0.24153  1.0000
  O   O1        1.0  0.16046  0.24602  0.24894  1.0000
  O   O2        1.0  0.08228  0.33545  0.24894  1.0000
  O   O3        1.0  0.24991  0.41363  0.24866  1.0000
  N   N13       1.0  0.34223  0.14073  0.43356  1.0000
  C   C17       1.0  0.30603  0.12860  0.43421  1.0000
  N   N14       1.0  0.29523  0.15370  0.43354  1.0000
  C   C18       1.0  0.31931  0.18989  0.43437  1.0000
  N   N15       1.0  0.35520  0.20070  0.43372  1.0000
  C   C19       1.0  0.28038  0.09167  0.42199  1.0000
  C   C20       1.0  0.30804  0.21556  0.42225  1.0000
  C   C21       1.0  0.40426  0.18788  0.42236  1.0000
  O   O4        1.0  0.33467  0.25074  0.41476  1.0000
  O   O5        1.0  0.41279  0.16125  0.41470  1.0000
  O   O6        1.0  0.24520  0.08312  0.41445  1.0000
  C   C22       1.0  0.25954  0.22653  0.37395  1.0000
  N   N16       1.0  0.21234  0.23643  0.32121  1.0000
  C   C23       1.0  0.22207  0.21415  0.36169  1.0000
  C   C24       1.0  0.19581  0.18282  0.38785  1.0000
  N   N17       1.0  0.17259  0.15522  0.41118  1.0000
  N   N18       1.0  0.27249  0.20567  0.40958  1.0000
  H   H4        1.0  0.25459  0.18055  0.42281  1.0000
  C   C25       1.0  0.26945  0.03222  0.37366  1.0000
  N   N19       1.0  0.25954  0.47512  0.32092  1.0000
  C   C26       1.0  0.28183  0.00714  0.36134  1.0000
  C   C27       1.0  0.31318  0.01223  0.38737  1.0000
  N   N20       1.0  0.34081  0.01665  0.41057  1.0000
  N   N21       1.0  0.29030  0.06603  0.40930  1.0000
  H   H5        1.0  0.31543  0.07326  0.42250  1.0000
  C   C28       1.0  0.46374  0.23640  0.37420  1.0000
  N   N22       1.0  0.02085  0.28359  0.32146  1.0000
  C   C29       1.0  0.48883  0.27386  0.36192  1.0000
  C   C30       1.0  0.48376  0.30012  0.38803  1.0000
  N   N23       1.0  0.47936  0.32334  0.41131  1.0000
  N   N24       1.0  0.42993  0.22344  0.40977  1.0000
  H   H6        1.0  0.42270  0.24134  0.42300  1.0000
  C   C31       1.0  0.12778  0.82012  0.22923  1.0000
  C   C32       1.0  0.36733  0.67663  0.43443  1.0000
  N   N25       1.0  0.28281  0.76035  0.34234  1.0000
  C   C33       1.0  0.27308  0.78264  0.30188  1.0000
  C   C34       1.0  0.23561  0.77026  0.28956  1.0000
  C   C35       1.0  0.29934  0.81397  0.27573  1.0000
  N   N26       1.0  0.32255  0.84158  0.25242  1.0000
  N   N27       1.0  0.22265  0.79110  0.25396  1.0000
  H   H7        1.0  0.24055  0.81623  0.24072  1.0000
  N   N28       1.0  0.23560  0.52165  0.34215  1.0000
  C   C36       1.0  0.21331  0.98963  0.30172  1.0000
  C   C37       1.0  0.22569  0.96454  0.28941  1.0000
  C   C38       1.0  0.18196  0.98454  0.27569  1.0000
  N   N29       1.0  0.15433  0.98013  0.25248  1.0000
  N   N30       1.0  0.20484  0.93074  0.25378  1.0000
  H   H8        1.0  0.17971  0.92350  0.24058  1.0000
  N   N31       1.0  0.47430  0.71313  0.34257  1.0000
  C   C39       1.0  0.00632  0.72286  0.30214  1.0000
  C   C40       1.0  0.03141  0.76033  0.28986  1.0000
  C   C41       1.0  0.01139  0.69660  0.27596  1.0000
  N   N32       1.0  0.01577  0.67338  0.25261  1.0000
  N   N33       1.0  0.06521  0.77328  0.25421  1.0000
  H   H9        1.0  0.07244  0.75539  0.24098  1.0000
  N   N34       1.0  0.15288  0.85602  0.22986  1.0000
  C   C42       1.0  0.18908  0.86815  0.22904  1.0000
  N   N35       1.0  0.19989  0.84306  0.22979  1.0000
  C   C43       1.0  0.17583  0.80686  0.22914  1.0000
  N   N36       1.0  0.13993  0.79606  0.22998  1.0000
  C   C44       1.0  0.21474  0.90508  0.24108  1.0000
  C   C45       1.0  0.18709  0.78119  0.24135  1.0000
  C   C46       1.0  0.09086  0.80884  0.24153  1.0000
  O   O7        1.0  0.16046  0.74603  0.24894  1.0000
  O   O8        1.0  0.08228  0.83545  0.24894  1.0000
  O   O9        1.0  0.24991  0.91363  0.24866  1.0000
  N   N37       1.0  0.34223  0.64073  0.43356  1.0000
  C   C47       1.0  0.30603  0.62860  0.43421  1.0000
  N   N38       1.0  0.29523  0.65370  0.43354  1.0000
  C   C48       1.0  0.31930  0.68989  0.43437  1.0000
  N   N39       1.0  0.35520  0.70071  0.43372  1.0000
  C   C49       1.0  0.28038  0.59167  0.42199  1.0000
  C   C50       1.0  0.30804  0.71556  0.42225  1.0000
  C   C51       1.0  0.40426  0.68788  0.42236  1.0000
  O   O10       1.0  0.33467  0.75074  0.41476  1.0000
  O   O11       1.0  0.41279  0.66125  0.41470  1.0000
  O   O12       1.0  0.24520  0.58312  0.41445  1.0000
  C   C52       1.0  0.25954  0.72653  0.37395  1.0000
  N   N40       1.0  0.21234  0.73643  0.32121  1.0000
  C   C53       1.0  0.22207  0.71415  0.36169  1.0000
  C   C54       1.0  0.19581  0.68283  0.38785  1.0000
  N   N41       1.0  0.17259  0.65522  0.41118  1.0000
  N   N42       1.0  0.27249  0.70567  0.40958  1.0000
  H   H10       1.0  0.25459  0.68055  0.42281  1.0000
  C   C55       1.0  0.26945  0.53222  0.37366  1.0000
  N   N43       1.0  0.25954  0.97512  0.32092  1.0000
  C   C56       1.0  0.28183  0.50714  0.36134  1.0000
  C   C57       1.0  0.31318  0.51223  0.38737  1.0000
  N   N44       1.0  0.34081  0.51664  0.41057  1.0000
  N   N45       1.0  0.29030  0.56603  0.40930  1.0000
  H   H11       1.0  0.31543  0.57326  0.42250  1.0000
  C   C58       1.0  0.46374  0.73639  0.37420  1.0000
  N   N46       1.0  0.02085  0.78360  0.32146  1.0000
  C   C59       1.0  0.48883  0.77386  0.36192  1.0000
  C   C60       1.0  0.48376  0.80012  0.38803  1.0000
  N   N47       1.0  0.47936  0.82334  0.41131  1.0000
  N   N48       1.0  0.42993  0.72344  0.40977  1.0000
  H   H12       1.0  0.42270  0.74134  0.42300  1.0000
  C   C61       1.0  0.62778  0.32012  0.22923  1.0000
  C   C62       1.0  0.86733  0.17663  0.43443  1.0000
  N   N49       1.0  0.78281  0.26035  0.34234  1.0000
  C   C63       1.0  0.77308  0.28264  0.30188  1.0000
  C   C64       1.0  0.73561  0.27026  0.28956  1.0000
  C   C65       1.0  0.79934  0.31397  0.27573  1.0000
  N   N50       1.0  0.82255  0.34158  0.25242  1.0000
  N   N51       1.0  0.72265  0.29110  0.25396  1.0000
  H   H13       1.0  0.74055  0.31623  0.24072  1.0000
  N   N52       1.0  0.73560  0.02165  0.34215  1.0000
  C   C66       1.0  0.71331  0.48963  0.30172  1.0000
  C   C67       1.0  0.72569  0.46454  0.28941  1.0000
  C   C68       1.0  0.68196  0.48454  0.27569  1.0000
  N   N53       1.0  0.65433  0.48013  0.25248  1.0000
  N   N54       1.0  0.70484  0.43074  0.25378  1.0000
  H   H14       1.0  0.67971  0.42350  0.24058  1.0000
  N   N55       1.0  0.97430  0.21313  0.34257  1.0000
  C   C69       1.0  0.50632  0.22286  0.30214  1.0000
  C   C70       1.0  0.53141  0.26033  0.28986  1.0000
  C   C71       1.0  0.51138  0.19660  0.27596  1.0000
  N   N56       1.0  0.51577  0.17338  0.25261  1.0000
  N   N57       1.0  0.56521  0.27328  0.25421  1.0000
  H   H15       1.0  0.57244  0.25539  0.24098  1.0000
  N   N58       1.0  0.65288  0.35602  0.22986  1.0000
  C   C72       1.0  0.68908  0.36815  0.22904  1.0000
  N   N59       1.0  0.69989  0.34306  0.22979  1.0000
  C   C73       1.0  0.67583  0.30686  0.22914  1.0000
  N   N60       1.0  0.63993  0.29606  0.22998  1.0000
  C   C74       1.0  0.71474  0.40508  0.24108  1.0000
  C   C75       1.0  0.68709  0.28120  0.24135  1.0000
  C   C76       1.0  0.59086  0.30884  0.24153  1.0000
  O   O13       1.0  0.66046  0.24602  0.24894  1.0000
  O   O14       1.0  0.58228  0.33545  0.24894  1.0000
  O   O15       1.0  0.74991  0.41363  0.24866  1.0000
  N   N61       1.0  0.84223  0.14073  0.43356  1.0000
  C   C77       1.0  0.80603  0.12860  0.43421  1.0000
  N   N62       1.0  0.79523  0.15370  0.43354  1.0000
  C   C78       1.0  0.81930  0.18989  0.43437  1.0000
  N   N63       1.0  0.85520  0.20070  0.43372  1.0000
  C   C79       1.0  0.78038  0.09167  0.42199  1.0000
  C   C80       1.0  0.80804  0.21556  0.42225  1.0000
  C   C81       1.0  0.90426  0.18788  0.42236  1.0000
  O   O16       1.0  0.83467  0.25074  0.41476  1.0000
  O   O17       1.0  0.91279  0.16125  0.41470  1.0000
  O   O18       1.0  0.74521  0.08312  0.41445  1.0000
  C   C82       1.0  0.75954  0.22653  0.37395  1.0000
  N   N64       1.0  0.71235  0.23643  0.32121  1.0000
  C   C83       1.0  0.72207  0.21415  0.36169  1.0000
  C   C84       1.0  0.69581  0.18282  0.38785  1.0000
  N   N65       1.0  0.67259  0.15522  0.41118  1.0000
  N   N66       1.0  0.77249  0.20567  0.40958  1.0000
  H   H16       1.0  0.75459  0.18055  0.42281  1.0000
  C   C85       1.0  0.76945  0.03222  0.37366  1.0000
  N   N67       1.0  0.75954  0.47512  0.32092  1.0000
  C   C86       1.0  0.78183  0.00714  0.36134  1.0000
  C   C87       1.0  0.81318  0.01223  0.38737  1.0000
  N   N68       1.0  0.84081  0.01665  0.41057  1.0000
  N   N69       1.0  0.79030  0.06603  0.40930  1.0000
  H   H17       1.0  0.81543  0.07326  0.42250  1.0000
  C   C88       1.0  0.96374  0.23640  0.37420  1.0000
  N   N70       1.0  0.52085  0.28359  0.32146  1.0000
  C   C89       1.0  0.98883  0.27386  0.36192  1.0000
  C   C90       1.0  0.98376  0.30012  0.38803  1.0000
  N   N71       1.0  0.97936  0.32334  0.41131  1.0000
  N   N72       1.0  0.92993  0.22344  0.40977  1.0000
  H   H18       1.0  0.92270  0.24134  0.42300  1.0000
  C   C91       1.0  0.62778  0.82012  0.22923  1.0000
  C   C92       1.0  0.86733  0.67663  0.43443  1.0000
  N   N73       1.0  0.78281  0.76035  0.34234  1.0000
  C   C93       1.0  0.77308  0.78264  0.30188  1.0000
  C   C94       1.0  0.73561  0.77026  0.28956  1.0000
  C   C95       1.0  0.79934  0.81397  0.27573  1.0000
  N   N74       1.0  0.82255  0.84158  0.25242  1.0000
  N   N75       1.0  0.72265  0.79110  0.25396  1.0000
  H   H19       1.0  0.74055  0.81623  0.24072  1.0000
  N   N76       1.0  0.73560  0.52165  0.34215  1.0000
  C   C96       1.0  0.71331  0.98963  0.30172  1.0000
  C   C97       1.0  0.72569  0.96454  0.28941  1.0000
  C   C98       1.0  0.68196  0.98454  0.27569  1.0000
  N   N77       1.0  0.65433  0.98013  0.25248  1.0000
  N   N78       1.0  0.70484  0.93074  0.25378  1.0000
  H   H20       1.0  0.67971  0.92350  0.24058  1.0000
  N   N79       1.0  0.97430  0.71313  0.34257  1.0000
  C   C99       1.0  0.50632  0.72286  0.30214  1.0000
  C   C100      1.0  0.53141  0.76033  0.28986  1.0000
  C   C101      1.0  0.51138  0.69660  0.27596  1.0000
  N   N80       1.0  0.51577  0.67338  0.25261  1.0000
  N   N81       1.0  0.56521  0.77328  0.25421  1.0000
  H   H21       1.0  0.57244  0.75539  0.24098  1.0000
  N   N82       1.0  0.65288  0.85602  0.22986  1.0000
  C   C102      1.0  0.68908  0.86815  0.22904  1.0000
  N   N83       1.0  0.69989  0.84306  0.22979  1.0000
  C   C103      1.0  0.67583  0.80686  0.22914  1.0000
  N   N84       1.0  0.63993  0.79606  0.22998  1.0000
  C   C104      1.0  0.71474  0.90508  0.24108  1.0000
  C   C105      1.0  0.68709  0.78119  0.24135  1.0000
  C   C106      1.0  0.59086  0.80884  0.24153  1.0000
  O   O19       1.0  0.66046  0.74603  0.24894  1.0000
  O   O20       1.0  0.58228  0.83545  0.24894  1.0000
  O   O21       1.0  0.74991  0.91363  0.24866  1.0000
  N   N85       1.0  0.84223  0.64073  0.43356  1.0000
  C   C107      1.0  0.80603  0.62860  0.43421  1.0000
  N   N86       1.0  0.79523  0.65370  0.43354  1.0000
  C   C108      1.0  0.81931  0.68989  0.43437  1.0000
  N   N87       1.0  0.85520  0.70071  0.43372  1.0000
  C   C109      1.0  0.78038  0.59167  0.42199  1.0000
  C   C110      1.0  0.80804  0.71556  0.42225  1.0000
  C   C111      1.0  0.90426  0.68788  0.42236  1.0000
  O   O22       1.0  0.83467  0.75074  0.41476  1.0000
  O   O23       1.0  0.91279  0.66125  0.41470  1.0000
  O   O24       1.0  0.74521  0.58312  0.41445  1.0000
  C   C112      1.0  0.75954  0.72653  0.37395  1.0000
  N   N88       1.0  0.71235  0.73643  0.32121  1.0000
  C   C113      1.0  0.72207  0.71415  0.36169  1.0000
  C   C114      1.0  0.69581  0.68283  0.38785  1.0000
  N   N89       1.0  0.67259  0.65522  0.41118  1.0000
  N   N90       1.0  0.77249  0.70567  0.40958  1.0000
  H   H22       1.0  0.75459  0.68055  0.42281  1.0000
  C   C115      1.0  0.76945  0.53222  0.37366  1.0000
  N   N91       1.0  0.75954  0.97512  0.32092  1.0000
  C   C116      1.0  0.78183  0.50714  0.36134  1.0000
  C   C117      1.0  0.81318  0.51223  0.38737  1.0000
  N   N92       1.0  0.84081  0.51664  0.41057  1.0000
  N   N93       1.0  0.79030  0.56603  0.40930  1.0000
  H   H23       1.0  0.81543  0.57326  0.42250  1.0000
  C   C118      1.0  0.96374  0.73639  0.37420  1.0000
  N   N94       1.0  0.52085  0.78360  0.32146  1.0000
  C   C119      1.0  0.98883  0.77386  0.36192  1.0000
  C   C120      1.0  0.98376  0.80012  0.38803  1.0000
  N   N95       1.0  0.97936  0.82334  0.41131  1.0000
  N   N96       1.0  0.92993  0.72344  0.40977  1.0000
  H   H24       1.0  0.92270  0.74134  0.42300  1.0000
