data_image0
_chemical_formula_structural       C8O2H4N2C8O2H4N2C8O2H4N2CNC4H2CH3CHCNC4H2CH3CHCNC4H2CH3CHCNC4H2CH3CHCNC4H2CH3CHCNC4H2CH3CHC2HOC2OHN2C2HOC2OHN2C2HOC2OHN2C4HCNHCH3CHC4HCNHCH3CHC4HCNHCH3CHC4HCNHCH3CHC4HCNHCH3CHC4HCNHCH3CH
_chemical_formula_sum              "C120 O12 H90 N24"
_cell_length_a       38.4391
_cell_length_b       38.439
_cell_length_c       14.9919
_cell_angle_alpha    90
_cell_angle_beta     90
_cell_angle_gamma    120

_space_group_name_H-M_alt    "P 1"
_space_group_IT_number       1

loop_
  _space_group_symop_operation_xyz
  'x, y, z'

loop_
  _atom_site_type_symbol
  _atom_site_label
  _atom_site_symmetry_multiplicity
  _atom_site_fract_x
  _atom_site_fract_y
  _atom_site_fract_z
  _atom_site_occupancy
  C   C1        1.0  0.02222  0.51381  0.31074  1.0000
  C   C2        1.0  0.10714  0.56542  0.31566  1.0000
  C   C3        1.0  0.08212  0.58023  0.28610  1.0000
  C   C4        1.0  0.04011  0.55419  0.28013  1.0000
  C   C5        1.0  0.97949  0.48731  0.31065  1.0000
  C   C6        1.0  0.96162  0.44691  0.28011  1.0000
  C   C7        1.0  0.91960  0.42089  0.28598  1.0000
  C   C8        1.0  0.89456  0.43570  0.31539  1.0000
  O   O1        1.0  0.01755  0.56910  0.24461  1.0000
  O   O2        1.0  0.98420  0.43198  0.24490  1.0000
  H   H1        1.0  0.01213  0.55976  0.18238  1.0000
  H   H2        1.0  0.98970  0.44131  0.18267  1.0000
  H   H3        1.0  0.15820  0.58949  0.26028  1.0000
  H   H4        1.0  0.84355  0.41154  0.25977  1.0000
  N   N1        1.0  0.90276  0.38249  0.26311  1.0000
  N   N2        1.0  0.09905  0.61861  0.26304  1.0000
  C   C9        1.0  0.48685  0.50818  0.31109  1.0000
  C   C10       1.0  0.43547  0.54175  0.31591  1.0000
  C   C11       1.0  0.42054  0.50191  0.28636  1.0000
  C   C12       1.0  0.44646  0.48579  0.28049  1.0000
  C   C13       1.0  0.51325  0.49183  0.31110  1.0000
  C   C14       1.0  0.55365  0.51422  0.28053  1.0000
  C   C15       1.0  0.57959  0.49813  0.28660  1.0000
  C   C16       1.0  0.56468  0.45830  0.31630  1.0000
  O   O3        1.0  0.43148  0.44833  0.24497  1.0000
  O   O4        1.0  0.56867  0.55171  0.24513  1.0000
  H   H5        1.0  0.44076  0.45223  0.18270  1.0000
  H   H6        1.0  0.55933  0.54786  0.18291  1.0000
  H   H7        1.0  0.41158  0.56892  0.26055  1.0000
  H   H8        1.0  0.58879  0.43134  0.26100  1.0000
  N   N3        1.0  0.61799  0.51958  0.26372  1.0000
  N   N4        1.0  0.38216  0.48065  0.26312  1.0000
  C   C17       1.0  0.49229  0.97938  0.31054  1.0000
  C   C18       1.0  0.45892  0.89445  0.31543  1.0000
  C   C19       1.0  0.49880  0.91946  0.28612  1.0000
  C   C20       1.0  0.51481  0.96148  0.28018  1.0000
  C   C21       1.0  0.50858  0.02212  0.31082  1.0000
  C   C22       1.0  0.48621  0.04014  0.28014  1.0000
  C   C23       1.0  0.50230  0.08217  0.28624  1.0000
  C   C24       1.0  0.54209  0.10707  0.31611  1.0000
  O   O5        1.0  0.55237  0.98404  0.24518  1.0000
  O   O6        1.0  0.44881  0.01768  0.24432  1.0000
  H   H9        1.0  0.54864  0.98962  0.18295  1.0000
  H   H10       1.0  0.45281  0.01236  0.18207  1.0000
  H   H11       1.0  0.43213  0.84340  0.25996  1.0000
  H   H12       1.0  0.56929  0.15818  0.26099  1.0000
  N   N5        1.0  0.48104  0.09929  0.26297  1.0000
  N   N6        1.0  0.52042  0.90263  0.26366  1.0000
  C   C25       1.0  0.29300  0.44899  0.25024  1.0000
  N   N7        1.0  0.26154  0.45518  0.26106  1.0000
  C   C26       1.0  0.22005  0.47445  0.33756  1.0000
  C   C27       1.0  0.21418  0.49985  0.27792  1.0000
  C   C28       1.0  0.17808  0.50102  0.28557  1.0000
  C   C29       1.0  0.14876  0.47787  0.35026  1.0000
  H   H13       1.0  0.17295  0.51894  0.24334  1.0000
  H   H14       1.0  0.29628  0.43800  0.19062  1.0000
  C   C30       1.0  0.24497  0.52564  0.21116  1.0000
  H   H15       1.0  0.27358  0.54480  0.24453  1.0000
  H   H16       1.0  0.23667  0.54509  0.17508  1.0000
  H   H17       1.0  0.24899  0.50694  0.16221  1.0000
  C   C31       1.0  0.11301  0.47788  0.35704  1.0000
  H   H18       1.0  0.09072  0.45761  0.31943  1.0000
  C   C32       1.0  0.54961  0.84331  0.25204  1.0000
  N   N8        1.0  0.54376  0.80575  0.26214  1.0000
  C   C33       1.0  0.52568  0.74510  0.33810  1.0000
  C   C34       1.0  0.50030  0.71385  0.27839  1.0000
  C   C35       1.0  0.49944  0.67670  0.28540  1.0000
  C   C36       1.0  0.52285  0.67063  0.34958  1.0000
  H   H19       1.0  0.48151  0.65365  0.24318  1.0000
  H   H20       1.0  0.55998  0.85759  0.19219  1.0000
  C   C37       1.0  0.47419  0.71869  0.21226  1.0000
  H   H21       1.0  0.45500  0.72796  0.24617  1.0000
  H   H22       1.0  0.45473  0.69091  0.17624  1.0000
  H   H23       1.0  0.49264  0.74146  0.16318  1.0000
  C   C38       1.0  0.52304  0.63494  0.35592  1.0000
  H   H24       1.0  0.54276  0.63309  0.31599  1.0000
  C   C39       1.0  0.15707  0.70759  0.25090  1.0000
  N   N9        1.0  0.19468  0.73916  0.26138  1.0000
  C   C40       1.0  0.25545  0.78105  0.33746  1.0000
  C   C41       1.0  0.28662  0.78707  0.27734  1.0000
  C   C42       1.0  0.32377  0.82337  0.28438  1.0000
  C   C43       1.0  0.32992  0.85269  0.34906  1.0000
  H   H25       1.0  0.34673  0.82863  0.24175  1.0000
  H   H26       1.0  0.14275  0.70411  0.19127  1.0000
  C   C44       1.0  0.28167  0.75627  0.21066  1.0000
  H   H27       1.0  0.27247  0.72774  0.24415  1.0000
  H   H28       1.0  0.30940  0.76470  0.17430  1.0000
  H   H29       1.0  0.25881  0.75205  0.16192  1.0000
  C   C45       1.0  0.36546  0.88867  0.35509  1.0000
  H   H30       1.0  0.36766  0.91039  0.31527  1.0000
  C   C46       1.0  0.70675  0.54951  0.25170  1.0000
  N   N10       1.0  0.73846  0.54366  0.26186  1.0000
  C   C47       1.0  0.78091  0.52542  0.33775  1.0000
  C   C48       1.0  0.78694  0.50028  0.27762  1.0000
  C   C49       1.0  0.82329  0.49952  0.28449  1.0000
  C   C50       1.0  0.85266  0.52278  0.34898  1.0000
  H   H31       1.0  0.82855  0.48181  0.24188  1.0000
  H   H32       1.0  0.70293  0.55998  0.19192  1.0000
  C   C51       1.0  0.75608  0.47429  0.21118  1.0000
  H   H33       1.0  0.72760  0.45498  0.24485  1.0000
  H   H34       1.0  0.76451  0.45497  0.17490  1.0000
  H   H35       1.0  0.75178  0.49284  0.16234  1.0000
  C   C52       1.0  0.88868  0.52328  0.35487  1.0000
  H   H36       1.0  0.91031  0.54270  0.31470  1.0000
  C   C53       1.0  0.44950  0.15687  0.25016  1.0000
  N   N11       1.0  0.45564  0.19450  0.26106  1.0000
  C   C54       1.0  0.47468  0.25519  0.33772  1.0000
  C   C55       1.0  0.49973  0.28643  0.27764  1.0000
  C   C56       1.0  0.50056  0.32355  0.28508  1.0000
  C   C57       1.0  0.47748  0.32963  0.35012  1.0000
  H   H37       1.0  0.51817  0.34656  0.24245  1.0000
  H   H38       1.0  0.43857  0.14264  0.19049  1.0000
  C   C58       1.0  0.52551  0.28157  0.21060  1.0000
  H   H39       1.0  0.54489  0.27235  0.24377  1.0000
  H   H40       1.0  0.54476  0.30934  0.17434  1.0000
  H   H41       1.0  0.50682  0.25876  0.16183  1.0000
  C   C59       1.0  0.47695  0.36518  0.35656  1.0000
  H   H42       1.0  0.45756  0.36687  0.31533  1.0000
  C   C60       1.0  0.84376  0.29375  0.25171  1.0000
  N   N12       1.0  0.80617  0.26213  0.26210  1.0000
  C   C61       1.0  0.74551  0.21993  0.33838  1.0000
  C   C62       1.0  0.71424  0.21406  0.27873  1.0000
  C   C63       1.0  0.67704  0.17784  0.28604  1.0000
  C   C64       1.0  0.67095  0.14844  0.35043  1.0000
  H   H43       1.0  0.65397  0.17272  0.24386  1.0000
  H   H44       1.0  0.85799  0.29746  0.19189  1.0000
  C   C65       1.0  0.71913  0.24496  0.21240  1.0000
  H   H45       1.0  0.72848  0.27347  0.24611  1.0000
  H   H46       1.0  0.69133  0.23664  0.17642  1.0000
  H   H47       1.0  0.74185  0.24915  0.16330  1.0000
  C   C66       1.0  0.63523  0.11260  0.35700  1.0000
  H   H48       1.0  0.63340  0.09091  0.31756  1.0000
  C   C67       1.0  0.04797  0.50023  0.34339  1.0000
  C   C68       1.0  0.09018  0.52510  0.34331  1.0000
  H   H49       1.0  0.03596  0.47174  0.36836  1.0000
  O   O7        1.0  0.14774  0.59042  0.31959  1.0000
  C   C69       1.0  0.91151  0.47604  0.34286  1.0000
  C   C70       1.0  0.95371  0.50090  0.34306  1.0000
  O   O8        1.0  0.85395  0.41071  0.31921  1.0000
  H   H50       1.0  0.96570  0.52941  0.36793  1.0000
  N   N13       1.0  0.88663  0.48891  0.36729  1.0000
  N   N14       1.0  0.11510  0.51232  0.36795  1.0000
  C   C71       1.0  0.50056  0.54754  0.34369  1.0000
  C   C72       1.0  0.47579  0.56499  0.34361  1.0000
  H   H51       1.0  0.52906  0.56397  0.36865  1.0000
  O   O9        1.0  0.41059  0.55749  0.31984  1.0000
  C   C73       1.0  0.52433  0.43504  0.34385  1.0000
  C   C74       1.0  0.49955  0.45247  0.34375  1.0000
  O   O10       1.0  0.58959  0.44260  0.32039  1.0000
  H   H52       1.0  0.47103  0.43605  0.36863  1.0000
  N   N15       1.0  0.51139  0.39733  0.36875  1.0000
  N   N16       1.0  0.48871  0.60269  0.36845  1.0000
  C   C75       1.0  0.45288  0.95364  0.34277  1.0000
  C   C76       1.0  0.43553  0.91143  0.34269  1.0000
  H   H53       1.0  0.43636  0.96565  0.36753  1.0000
  O   O11       1.0  0.44330  0.85384  0.31942  1.0000
  C   C77       1.0  0.56530  0.08997  0.34392  1.0000
  C   C78       1.0  0.54788  0.04776  0.34380  1.0000
  O   O12       1.0  0.55781  0.14769  0.32021  1.0000
  H   H54       1.0  0.56427  0.03567  0.36884  1.0000
  N   N17       1.0  0.60298  0.11474  0.36897  1.0000
  N   N18       1.0  0.39777  0.88656  0.36711  1.0000
  C   C79       1.0  0.32057  0.45785  0.32043  1.0000
  C   C80       1.0  0.25436  0.46989  0.33699  1.0000
  C   C81       1.0  0.28090  0.47931  0.41068  1.0000
  C   C82       1.0  0.31400  0.47306  0.40065  1.0000
  H   H55       1.0  0.33399  0.48018  0.45211  1.0000
  C   C83       1.0  0.15626  0.45301  0.40649  1.0000
  N   N19       1.0  0.19098  0.45230  0.39820  1.0000
  H   H56       1.0  0.13595  0.43530  0.45389  1.0000
  C   C84       1.0  0.27577  0.49676  0.49480  1.0000
  H   H57       1.0  0.27486  0.52412  0.48009  1.0000
  H   H58       1.0  0.30022  0.50452  0.54199  1.0000
  H   H59       1.0  0.24780  0.47525  0.52742  1.0000
  C   C85       1.0  0.35339  0.45262  0.30974  1.0000
  H   H60       1.0  0.36102  0.44276  0.36358  1.0000
  C   C86       1.0  0.54138  0.86196  0.32341  1.0000
  C   C87       1.0  0.52991  0.78386  0.33832  1.0000
  C   C88       1.0  0.52109  0.80091  0.41310  1.0000
  C   C89       1.0  0.52708  0.84020  0.40391  1.0000
  H   H61       1.0  0.52041  0.85300  0.45625  1.0000
  C   C90       1.0  0.54768  0.70296  0.40586  1.0000
  N   N20       1.0  0.54810  0.73826  0.39814  1.0000
  H   H62       1.0  0.56557  0.70043  0.45289  1.0000
  C   C91       1.0  0.50452  0.77834  0.49764  1.0000
  H   H63       1.0  0.47719  0.74993  0.48380  1.0000
  H   H64       1.0  0.49697  0.79492  0.54564  1.0000
  H   H65       1.0  0.52648  0.77217  0.52895  1.0000
  C   C92       1.0  0.54639  0.89993  0.31402  1.0000
  H   H66       1.0  0.55604  0.91759  0.36781  1.0000
  C   C93       1.0  0.13847  0.68022  0.32147  1.0000
  C   C94       1.0  0.21665  0.74663  0.33728  1.0000
  C   C95       1.0  0.19964  0.72028  0.41133  1.0000
  C   C96       1.0  0.16033  0.68708  0.40166  1.0000
  H   H67       1.0  0.14755  0.66723  0.45339  1.0000
  C   C97       1.0  0.29768  0.84501  0.40586  1.0000
  N   N21       1.0  0.26237  0.81015  0.39803  1.0000
  H   H68       1.0  0.30025  0.86534  0.45320  1.0000
  C   C98       1.0  0.22230  0.72571  0.49548  1.0000
  H   H69       1.0  0.25062  0.72673  0.48089  1.0000
  H   H70       1.0  0.20570  0.70135  0.54294  1.0000
  H   H71       1.0  0.22865  0.75372  0.52775  1.0000
  C   C99       1.0  0.10047  0.64728  0.31116  1.0000
  H   H72       1.0  0.08310  0.63967  0.36530  1.0000
  C   C100      1.0  0.67974  0.54109  0.32288  1.0000
  C   C101      1.0  0.74639  0.52965  0.33793  1.0000
  C   C102      1.0  0.72039  0.52065  0.41254  1.0000
  C   C103      1.0  0.68708  0.52660  0.40326  1.0000
  H   H73       1.0  0.66749  0.51978  0.45544  1.0000
  C   C104      1.0  0.84501  0.54738  0.40570  1.0000
  N   N22       1.0  0.81009  0.54772  0.39806  1.0000
  H   H74       1.0  0.86538  0.56521  0.45288  1.0000
  C   C105      1.0  0.72628  0.50392  0.49696  1.0000
  H   H75       1.0  0.72740  0.47663  0.48290  1.0000
  H   H76       1.0  0.70208  0.49626  0.54482  1.0000
  H   H77       1.0  0.75436  0.52583  0.52855  1.0000
  C   C106      1.0  0.64671  0.54599  0.31317  1.0000
  H   H78       1.0  0.63905  0.55584  0.36717  1.0000
  C   C107      1.0  0.45831  0.13814  0.32037  1.0000
  C   C108      1.0  0.47027  0.21637  0.33706  1.0000
  C   C109      1.0  0.47962  0.19920  0.41078  1.0000
  C   C110      1.0  0.47342  0.15987  0.40068  1.0000
  H   H79       1.0  0.48048  0.14698  0.45218  1.0000
  C   C111      1.0  0.45304  0.29734  0.40690  1.0000
  N   N23       1.0  0.45259  0.26203  0.39866  1.0000
  H   H80       1.0  0.43534  0.29984  0.45449  1.0000
  C   C112      1.0  0.49695  0.22172  0.49503  1.0000
  H   H81       1.0  0.52427  0.25004  0.48052  1.0000
  H   H82       1.0  0.50473  0.20502  0.54218  1.0000
  H   H83       1.0  0.47536  0.22807  0.52763  1.0000
  C   C113      1.0  0.45305  0.10007  0.30967  1.0000
  H   H84       1.0  0.44318  0.08257  0.36350  1.0000
  C   C114      1.0  0.86246  0.32085  0.32270  1.0000
  C   C115      1.0  0.78431  0.25437  0.33826  1.0000
  C   C116      1.0  0.80142  0.28046  0.41268  1.0000
  C   C117      1.0  0.84072  0.31369  0.40314  1.0000
  H   H85       1.0  0.85356  0.33335  0.45517  1.0000
  C   C118      1.0  0.70330  0.15592  0.40662  1.0000
  N   N24       1.0  0.73865  0.19074  0.39862  1.0000
  H   H86       1.0  0.70076  0.13555  0.45378  1.0000
  C   C119      1.0  0.77888  0.27476  0.49714  1.0000
  H   H87       1.0  0.75051  0.27373  0.48308  1.0000
  H   H88       1.0  0.79551  0.29899  0.54485  1.0000
  H   H89       1.0  0.77262  0.24668  0.52887  1.0000
  C   C120      1.0  0.90043  0.35380  0.31273  1.0000
  H   H90       1.0  0.91798  0.36150  0.36667  1.0000
