data_image0
_chemical_formula_structural       C3NCH3C3NCH3CNHCNHC3NCH3C3NCH3CNHCNHC3NCH3C3NCH3C3NCH3C3NCH3CNHCNHC3NCH3C3NCH3CNHCNHC3NCH3C3NCH3CNHCNHC3NCH3C3NCH3C6H3C6H3C6H3C6H3C6H3C6H3C6H3C6H3C6H3C6H3C6H3C6H3C6H3C6H3C6H3C6H3CNHCNHC3NCH3C3NCH3CNHCNHC3NCH3C3NCH3CNHCNHCNHCNHC3NCH3C3NCH3CNHCNHC3NCH3C3NCH3CNHCNHC3NCH3C3NCH3CNHCNH
_chemical_formula_sum              "C216 N48 H144"
_cell_length_a       44.2485
_cell_length_b       34.6975
_cell_length_c       14.8499
_cell_angle_alpha    90
_cell_angle_beta     90
_cell_angle_gamma    90

_space_group_name_H-M_alt    "P 1"
_space_group_IT_number       1

loop_
  _space_group_symop_operation_xyz
  'x, y, z'

loop_
  _atom_site_type_symbol
  _atom_site_label
  _atom_site_symmetry_multiplicity
  _atom_site_fract_x
  _atom_site_fract_y
  _atom_site_fract_z
  _atom_site_occupancy
  C   C1        1.0  0.02482  0.02264  0.28107  1.0000
  C   C2        1.0  0.00494  0.04550  0.33500  1.0000
  C   C3        1.0  0.00449  0.96346  0.34075  1.0000
  N   N1        1.0  0.02388  0.98337  0.28715  1.0000
  C   C4        1.0  0.04560  0.03756  0.21103  1.0000
  H   H1        1.0  0.04021  0.06697  0.19093  1.0000
  H   H2        1.0  0.04414  0.01979  0.15049  1.0000
  H   H3        1.0  0.06877  0.03658  0.23608  1.0000
  C   C5        1.0  0.52476  0.52262  0.28084  1.0000
  C   C6        1.0  0.50492  0.54548  0.33493  1.0000
  C   C7        1.0  0.50448  0.46344  0.34068  1.0000
  N   N2        1.0  0.52384  0.48335  0.28696  1.0000
  C   C8        1.0  0.54555  0.53756  0.21085  1.0000
  H   H4        1.0  0.54016  0.56697  0.19078  1.0000
  H   H5        1.0  0.54409  0.51980  0.15028  1.0000
  H   H6        1.0  0.56872  0.53657  0.23591  1.0000
  C   C9        1.0  0.06399  0.20254  0.28404  1.0000
  N   N3        1.0  0.08896  0.22522  0.28398  1.0000
  H   H7        1.0  0.04733  0.20900  0.23880  1.0000
  C   C10       1.0  0.94461  0.80789  0.28307  1.0000
  N   N4        1.0  0.91970  0.78509  0.28323  1.0000
  H   H8        1.0  0.96115  0.80170  0.23723  1.0000
  C   C11       1.0  0.92321  0.16590  0.28193  1.0000
  C   C12       1.0  0.94817  0.17096  0.34197  1.0000
  C   C13       1.0  0.89595  0.21862  0.34940  1.0000
  N   N5        1.0  0.89858  0.18970  0.28811  1.0000
  C   C14       1.0  0.92243  0.13878  0.20496  1.0000
  H   H9        1.0  0.94423  0.12549  0.19129  1.0000
  H   H10       1.0  0.91569  0.15408  0.14391  1.0000
  H   H11       1.0  0.90593  0.11614  0.21845  1.0000
  C   C15       1.0  0.08563  0.84398  0.28071  1.0000
  C   C16       1.0  0.06064  0.83848  0.34043  1.0000
  C   C17       1.0  0.11288  0.79087  0.34648  1.0000
  N   N6        1.0  0.11026  0.82016  0.28614  1.0000
  C   C18       1.0  0.08640  0.87154  0.20459  1.0000
  H   H12       1.0  0.06465  0.88511  0.19171  1.0000
  H   H13       1.0  0.09294  0.85653  0.14296  1.0000
  H   H14       1.0  0.10304  0.89396  0.21851  1.0000
  C   C19       1.0  0.56404  0.70259  0.28466  1.0000
  N   N7        1.0  0.58901  0.72530  0.28507  1.0000
  H   H15       1.0  0.54741  0.70914  0.23938  1.0000
  C   C20       1.0  0.44459  0.30774  0.28369  1.0000
  N   N8        1.0  0.41969  0.28493  0.28422  1.0000
  H   H16       1.0  0.46109  0.30149  0.23779  1.0000
  C   C21       1.0  0.42323  0.66572  0.28164  1.0000
  C   C22       1.0  0.44817  0.67094  0.34169  1.0000
  C   C23       1.0  0.39593  0.71861  0.34835  1.0000
  N   N9        1.0  0.39862  0.68956  0.28742  1.0000
  C   C24       1.0  0.42251  0.63853  0.20480  1.0000
  H   H17       1.0  0.44435  0.62535  0.19111  1.0000
  H   H18       1.0  0.41569  0.65373  0.14370  1.0000
  H   H19       1.0  0.40609  0.61582  0.21849  1.0000
  C   C25       1.0  0.58557  0.34406  0.28015  1.0000
  C   C26       1.0  0.56065  0.33849  0.34010  1.0000
  C   C27       1.0  0.61292  0.29091  0.34537  1.0000
  N   N10       1.0  0.61021  0.32027  0.28526  1.0000
  C   C28       1.0  0.58629  0.37178  0.20433  1.0000
  H   H20       1.0  0.56450  0.38526  0.19150  1.0000
  H   H21       1.0  0.59291  0.35693  0.14257  1.0000
  H   H22       1.0  0.60286  0.39425  0.21858  1.0000
  C   C29       1.0  0.36176  0.09285  0.28103  1.0000
  C   C30       1.0  0.37963  0.07668  0.35119  1.0000
  C   C31       1.0  0.36484  0.15480  0.35092  1.0000
  N   N11       1.0  0.35495  0.13106  0.28452  1.0000
  C   C32       1.0  0.35150  0.07268  0.19861  1.0000
  H   H23       1.0  0.35909  0.04290  0.19478  1.0000
  H   H24       1.0  0.36012  0.08768  0.13933  1.0000
  H   H25       1.0  0.32685  0.07286  0.19622  1.0000
  C   C33       1.0  0.64711  0.91672  0.28061  1.0000
  C   C34       1.0  0.62974  0.93291  0.35185  1.0000
  C   C35       1.0  0.64454  0.85481  0.35087  1.0000
  N   N12       1.0  0.65394  0.87850  0.28375  1.0000
  C   C36       1.0  0.65677  0.93683  0.19750  1.0000
  H   H26       1.0  0.64909  0.96658  0.19396  1.0000
  H   H27       1.0  0.64778  0.92175  0.13882  1.0000
  H   H28       1.0  0.68140  0.93673  0.19362  1.0000
  C   C37       1.0  0.62163  0.10237  0.26290  1.0000
  N   N13       1.0  0.62865  0.14028  0.26591  1.0000
  H   H29       1.0  0.60895  0.09289  0.20973  1.0000
  C   C38       1.0  0.38616  0.90723  0.26311  1.0000
  N   N14       1.0  0.37922  0.86931  0.26721  1.0000
  H   H30       1.0  0.39798  0.91671  0.20821  1.0000
  C   C39       1.0  0.86160  0.59271  0.27963  1.0000
  C   C40       1.0  0.87960  0.57676  0.34973  1.0000
  C   C41       1.0  0.86480  0.65487  0.34854  1.0000
  N   N15       1.0  0.85477  0.63092  0.28272  1.0000
  C   C42       1.0  0.85112  0.57227  0.19785  1.0000
  H   H31       1.0  0.85874  0.54249  0.19431  1.0000
  H   H32       1.0  0.85956  0.58710  0.13808  1.0000
  H   H33       1.0  0.82647  0.57239  0.19609  1.0000
  C   C43       1.0  0.14722  0.41692  0.27973  1.0000
  C   C44       1.0  0.12961  0.43283  0.35080  1.0000
  C   C45       1.0  0.14457  0.35478  0.34894  1.0000
  N   N16       1.0  0.15411  0.37872  0.28245  1.0000
  C   C46       1.0  0.15712  0.43734  0.19728  1.0000
  H   H34       1.0  0.14934  0.46704  0.19393  1.0000
  H   H35       1.0  0.14842  0.42237  0.13805  1.0000
  H   H36       1.0  0.18177  0.43740  0.19428  1.0000
  C   C47       1.0  0.12135  0.60264  0.26478  1.0000
  N   N17       1.0  0.12841  0.64053  0.26827  1.0000
  H   H37       1.0  0.10852  0.59336  0.21172  1.0000
  C   C48       1.0  0.88626  0.40697  0.26479  1.0000
  N   N18       1.0  0.87938  0.36906  0.26956  1.0000
  H   H38       1.0  0.89824  0.41624  0.20999  1.0000
  C   C49       1.0  0.49071  0.02601  0.26612  1.0000
  C   C50       1.0  0.47349  0.00440  0.32932  1.0000
  C   C51       1.0  0.53596  0.00482  0.33714  1.0000
  N   N19       1.0  0.52125  0.02548  0.27331  1.0000
  C   C52       1.0  0.47864  0.04797  0.18848  1.0000
  H   H39       1.0  0.45453  0.04353  0.17805  1.0000
  H   H40       1.0  0.49015  0.03893  0.12696  1.0000
  H   H41       1.0  0.48274  0.07866  0.19882  1.0000
  C   C53       1.0  0.99068  0.52563  0.26548  1.0000
  C   C54       1.0  0.97345  0.50435  0.32924  1.0000
  C   C55       1.0  0.03589  0.50482  0.33721  1.0000
  N   N20       1.0  0.02122  0.52514  0.27275  1.0000
  C   C56       1.0  0.97863  0.54717  0.18717  1.0000
  H   H42       1.0  0.95451  0.54269  0.17686  1.0000
  H   H43       1.0  0.99013  0.53778  0.12594  1.0000
  H   H44       1.0  0.98273  0.57791  0.19658  1.0000
  C   C57       1.0  0.24239  0.27626  0.28687  1.0000
  N   N21       1.0  0.27294  0.27307  0.29154  1.0000
  H   H45       1.0  0.23364  0.29298  0.23653  1.0000
  C   C58       1.0  0.76671  0.73309  0.28725  1.0000
  N   N22       1.0  0.73615  0.73628  0.29177  1.0000
  H   H46       1.0  0.77550  0.71647  0.23678  1.0000
  C   C59       1.0  0.77125  0.23554  0.27094  1.0000
  C   C60       1.0  0.78594  0.25734  0.33930  1.0000
  C   C61       1.0  0.72242  0.25236  0.33082  1.0000
  N   N23       1.0  0.74051  0.23356  0.27113  1.0000
  C   C62       1.0  0.78617  0.21558  0.19484  1.0000
  H   H47       1.0  0.81027  0.22147  0.19036  1.0000
  H   H48       1.0  0.77596  0.22487  0.13154  1.0000
  H   H49       1.0  0.78298  0.18454  0.20187  1.0000
  C   C63       1.0  0.23794  0.77444  0.27084  1.0000
  C   C64       1.0  0.22297  0.75252  0.33845  1.0000
  C   C65       1.0  0.28653  0.75744  0.33218  1.0000
  N   N24       1.0  0.26868  0.77640  0.27209  1.0000
  C   C66       1.0  0.22332  0.79458  0.19449  1.0000
  H   H50       1.0  0.19921  0.78882  0.18929  1.0000
  H   H51       1.0  0.23370  0.78533  0.13139  1.0000
  H   H52       1.0  0.22657  0.82559  0.20183  1.0000
  C   C67       1.0  0.97625  0.14944  0.34062  1.0000
  C   C68       1.0  0.00439  0.16906  0.34383  1.0000
  C   C69       1.0  0.03268  0.14981  0.34563  1.0000
  C   C70       1.0  0.03205  0.10894  0.34286  1.0000
  C   C71       1.0  0.00477  0.08734  0.33808  1.0000
  C   C72       1.0  0.97723  0.10856  0.33904  1.0000
  H   H53       1.0  0.05219  0.09450  0.34389  1.0000
  H   H54       1.0  0.95720  0.09384  0.33753  1.0000
  H   H55       1.0  0.00427  0.19857  0.34515  1.0000
  C   C73       1.0  0.03262  0.86012  0.34002  1.0000
  C   C74       1.0  0.00438  0.84070  0.34323  1.0000
  C   C75       1.0  0.97614  0.86016  0.34597  1.0000
  C   C76       1.0  0.97690  0.90106  0.34501  1.0000
  C   C77       1.0  0.00439  0.92214  0.34231  1.0000
  C   C78       1.0  0.03187  0.90101  0.34012  1.0000
  H   H56       1.0  0.95688  0.91583  0.34338  1.0000
  H   H57       1.0  0.05190  0.91577  0.34105  1.0000
  H   H58       1.0  0.00437  0.81120  0.34348  1.0000
  C   C79       1.0  0.47626  0.64942  0.34059  1.0000
  C   C80       1.0  0.50439  0.66904  0.34385  1.0000
  C   C81       1.0  0.53268  0.64977  0.34568  1.0000
  C   C82       1.0  0.53204  0.60891  0.34282  1.0000
  C   C83       1.0  0.50476  0.58732  0.33805  1.0000
  C   C84       1.0  0.47723  0.60854  0.33905  1.0000
  H   H59       1.0  0.55218  0.59446  0.34381  1.0000
  H   H60       1.0  0.45720  0.59382  0.33754  1.0000
  H   H61       1.0  0.50428  0.69854  0.34518  1.0000
  C   C85       1.0  0.53262  0.36012  0.33996  1.0000
  C   C86       1.0  0.50439  0.34069  0.34321  1.0000
  C   C87       1.0  0.47615  0.36014  0.34597  1.0000
  C   C88       1.0  0.47690  0.40104  0.34491  1.0000
  C   C89       1.0  0.50439  0.42213  0.34225  1.0000
  C   C90       1.0  0.53187  0.40101  0.34012  1.0000
  H   H62       1.0  0.45688  0.41581  0.34331  1.0000
  H   H63       1.0  0.55190  0.41577  0.34100  1.0000
  H   H64       1.0  0.50440  0.31118  0.34348  1.0000
  C   C91       1.0  0.44162  0.00450  0.33236  1.0000
  C   C92       1.0  0.42543  0.96966  0.33248  1.0000
  C   C93       1.0  0.39356  0.96908  0.33722  1.0000
  C   C94       1.0  0.37785  0.00458  0.34353  1.0000
  C   C95       1.0  0.39379  0.04000  0.34542  1.0000
  C   C96       1.0  0.42565  0.03934  0.34022  1.0000
  H   H65       1.0  0.35474  0.00462  0.34693  1.0000
  H   H66       1.0  0.43754  0.06471  0.34173  1.0000
  H   H67       1.0  0.43718  0.94422  0.32837  1.0000
  C   C97       1.0  0.56751  0.00490  0.34002  1.0000
  C   C98       1.0  0.58349  0.03981  0.33652  1.0000
  C   C99       1.0  0.61540  0.04049  0.33802  1.0000
  C   C100      1.0  0.63126  0.00505  0.34333  1.0000
  C   C101      1.0  0.61544  0.96954  0.34713  1.0000
  C   C102      1.0  0.58354  0.97006  0.34536  1.0000
  H   H68       1.0  0.65439  0.00509  0.34433  1.0000
  H   H69       1.0  0.57171  0.94461  0.34555  1.0000
  H   H70       1.0  0.57159  0.06519  0.33466  1.0000
  C   C103      1.0  0.94159  0.50448  0.33224  1.0000
  C   C104      1.0  0.92539  0.46964  0.33319  1.0000
  C   C105      1.0  0.89353  0.46910  0.33780  1.0000
  C   C106      1.0  0.87782  0.50463  0.34333  1.0000
  C   C107      1.0  0.89377  0.54005  0.34448  1.0000
  C   C108      1.0  0.92563  0.53936  0.33921  1.0000
  H   H71       1.0  0.85471  0.50470  0.34670  1.0000
  H   H72       1.0  0.93753  0.56473  0.34010  1.0000
  H   H73       1.0  0.93714  0.44419  0.32972  1.0000
  C   C109      1.0  0.06742  0.50489  0.34013  1.0000
  C   C110      1.0  0.08339  0.53982  0.33738  1.0000
  C   C111      1.0  0.11529  0.54049  0.33880  1.0000
  C   C112      1.0  0.13115  0.50503  0.34344  1.0000
  C   C113      1.0  0.11534  0.46950  0.34655  1.0000
  C   C114      1.0  0.08343  0.47003  0.34468  1.0000
  H   H74       1.0  0.15429  0.50507  0.34446  1.0000
  H   H75       1.0  0.07160  0.44460  0.34439  1.0000
  H   H76       1.0  0.07147  0.56519  0.33603  1.0000
  C   C115      1.0  0.15188  0.31538  0.34709  1.0000
  C   C116      1.0  0.12937  0.28661  0.34507  1.0000
  C   C117      1.0  0.13687  0.24691  0.34342  1.0000
  C   C118      1.0  0.16802  0.23676  0.34568  1.0000
  C   C119      1.0  0.19121  0.26527  0.34750  1.0000
  C   C120      1.0  0.18243  0.30443  0.34789  1.0000
  H   H77       1.0  0.17394  0.20827  0.34352  1.0000
  H   H78       1.0  0.19860  0.32557  0.35169  1.0000
  H   H79       1.0  0.10713  0.29489  0.34466  1.0000
  C   C121      1.0  0.85737  0.69426  0.34715  1.0000
  C   C122      1.0  0.87978  0.72317  0.34522  1.0000
  C   C123      1.0  0.87214  0.76284  0.34381  1.0000
  C   C124      1.0  0.84095  0.77280  0.34631  1.0000
  C   C125      1.0  0.81786  0.74416  0.34797  1.0000
  C   C126      1.0  0.82678  0.70506  0.34807  1.0000
  H   H80       1.0  0.83493  0.80127  0.34423  1.0000
  H   H81       1.0  0.81067  0.68384  0.35173  1.0000
  H   H82       1.0  0.90205  0.71503  0.34457  1.0000
  C   C127      1.0  0.85732  0.31496  0.34405  1.0000
  C   C128      1.0  0.87973  0.28606  0.34583  1.0000
  C   C129      1.0  0.87206  0.24640  0.34638  1.0000
  C   C130      1.0  0.84088  0.23647  0.34328  1.0000
  C   C131      1.0  0.81781  0.26514  0.34179  1.0000
  C   C132      1.0  0.82673  0.30423  0.34237  1.0000
  H   H83       1.0  0.83484  0.20800  0.34460  1.0000
  H   H84       1.0  0.81065  0.32550  0.33858  1.0000
  H   H85       1.0  0.90200  0.29420  0.34645  1.0000
  C   C133      1.0  0.15168  0.69467  0.33979  1.0000
  C   C134      1.0  0.12923  0.72351  0.34142  1.0000
  C   C135      1.0  0.13682  0.76318  0.34292  1.0000
  C   C136      1.0  0.16799  0.77323  0.34090  1.0000
  C   C137      1.0  0.19111  0.74463  0.33953  1.0000
  C   C138      1.0  0.18226  0.70551  0.33919  1.0000
  H   H86       1.0  0.17397  0.80170  0.34304  1.0000
  H   H87       1.0  0.19839  0.68430  0.33578  1.0000
  H   H88       1.0  0.10697  0.71531  0.34169  1.0000
  C   C139      1.0  0.65186  0.81542  0.34977  1.0000
  C   C140      1.0  0.62935  0.78664  0.34657  1.0000
  C   C141      1.0  0.63685  0.74691  0.34530  1.0000
  C   C142      1.0  0.66799  0.73673  0.34935  1.0000
  C   C143      1.0  0.69098  0.76535  0.35375  1.0000
  C   C144      1.0  0.68240  0.80451  0.35282  1.0000
  H   H89       1.0  0.67399  0.70825  0.34893  1.0000
  H   H90       1.0  0.69865  0.82562  0.35472  1.0000
  H   H91       1.0  0.60713  0.79494  0.34490  1.0000
  C   C145      1.0  0.35740  0.19417  0.35016  1.0000
  C   C146      1.0  0.37980  0.22309  0.34699  1.0000
  C   C147      1.0  0.37216  0.26278  0.34557  1.0000
  C   C148      1.0  0.34099  0.27278  0.34942  1.0000
  C   C149      1.0  0.31809  0.24404  0.35377  1.0000
  C   C150      1.0  0.32682  0.20493  0.35301  1.0000
  H   H92       1.0  0.33489  0.30123  0.34882  1.0000
  H   H93       1.0  0.31063  0.18374  0.35481  1.0000
  H   H94       1.0  0.40207  0.21494  0.34527  1.0000
  C   C151      1.0  0.35729  0.81498  0.34101  1.0000
  C   C152      1.0  0.37970  0.78608  0.34414  1.0000
  C   C153      1.0  0.37205  0.74639  0.34455  1.0000
  C   C154      1.0  0.34089  0.73642  0.33989  1.0000
  C   C155      1.0  0.31801  0.76519  0.33559  1.0000
  C   C156      1.0  0.32672  0.80429  0.33711  1.0000
  H   H95       1.0  0.33478  0.70797  0.33969  1.0000
  H   H96       1.0  0.31056  0.82551  0.33507  1.0000
  H   H97       1.0  0.40196  0.79424  0.34600  1.0000
  C   C157      1.0  0.65171  0.19465  0.33691  1.0000
  C   C158      1.0  0.62925  0.22350  0.33987  1.0000
  C   C159      1.0  0.63684  0.26320  0.34113  1.0000
  C   C160      1.0  0.66800  0.27328  0.33737  1.0000
  C   C161      1.0  0.69094  0.24457  0.33321  1.0000
  C   C162      1.0  0.68228  0.20545  0.33406  1.0000
  H   H98       1.0  0.67406  0.30174  0.33788  1.0000
  H   H99       1.0  0.69848  0.18428  0.33235  1.0000
  H   H100      1.0  0.60700  0.21529  0.34139  1.0000
  C   C163      1.0  0.98470  0.02398  0.38961  1.0000
  N   N25       1.0  0.98487  0.98475  0.39057  1.0000
  H   H101      1.0  0.96976  0.03759  0.43132  1.0000
  C   C164      1.0  0.48470  0.52396  0.38960  1.0000
  N   N26       1.0  0.48488  0.48473  0.39059  1.0000
  H   H102      1.0  0.46980  0.53757  0.43144  1.0000
  C   C165      1.0  0.08588  0.16563  0.40411  1.0000
  C   C166      1.0  0.06063  0.17161  0.34565  1.0000
  C   C167      1.0  0.11286  0.21929  0.33971  1.0000
  N   N27       1.0  0.11049  0.18950  0.39880  1.0000
  C   C168      1.0  0.08695  0.13743  0.47889  1.0000
  H   H103      1.0  0.06519  0.12397  0.49226  1.0000
  H   H104      1.0  0.09395  0.15185  0.54085  1.0000
  H   H105      1.0  0.10338  0.11499  0.46303  1.0000
  C   C169      1.0  0.92311  0.84401  0.40512  1.0000
  C   C170      1.0  0.94814  0.83847  0.34556  1.0000
  C   C171      1.0  0.89601  0.79061  0.33994  1.0000
  N   N28       1.0  0.89855  0.82006  0.39990  1.0000
  C   C172      1.0  0.92223  0.87177  0.48082  1.0000
  H   H106      1.0  0.94390  0.88562  0.49330  1.0000
  H   H107      1.0  0.91584  0.85685  0.54271  1.0000
  H   H108      1.0  0.90543  0.89397  0.46669  1.0000
  C   C173      1.0  0.94454  0.20103  0.40577  1.0000
  N   N29       1.0  0.91959  0.22377  0.40649  1.0000
  H   H109      1.0  0.96103  0.20688  0.45198  1.0000
  C   C174      1.0  0.06425  0.80804  0.40323  1.0000
  N   N30       1.0  0.08922  0.78535  0.40333  1.0000
  H   H110      1.0  0.04775  0.80191  0.44925  1.0000
  C   C175      1.0  0.58581  0.66552  0.40468  1.0000
  C   C176      1.0  0.56063  0.67156  0.34598  1.0000
  C   C177      1.0  0.61285  0.71928  0.34096  1.0000
  N   N31       1.0  0.61042  0.68939  0.39975  1.0000
  C   C178      1.0  0.58685  0.63714  0.47908  1.0000
  H   H111      1.0  0.56506  0.62375  0.49239  1.0000
  H   H112      1.0  0.59392  0.65138  0.54119  1.0000
  H   H113      1.0  0.60321  0.61467  0.46285  1.0000
  C   C179      1.0  0.42317  0.34407  0.40552  1.0000
  C   C180      1.0  0.44816  0.33845  0.34584  1.0000
  C   C181      1.0  0.39603  0.29055  0.34103  1.0000
  N   N32       1.0  0.39861  0.32011  0.40066  1.0000
  C   C182      1.0  0.42231  0.37200  0.48087  1.0000
  H   H114      1.0  0.44401  0.38577  0.49335  1.0000
  H   H115      1.0  0.41583  0.35727  0.54290  1.0000
  H   H116      1.0  0.40558  0.39425  0.46633  1.0000
  C   C183      1.0  0.44450  0.70114  0.40513  1.0000
  N   N33       1.0  0.41955  0.72388  0.40546  1.0000
  H   H117      1.0  0.46098  0.70710  0.45133  1.0000
  C   C184      1.0  0.56433  0.30796  0.40264  1.0000
  N   N34       1.0  0.58931  0.28528  0.40232  1.0000
  H   H118      1.0  0.54787  0.30174  0.44868  1.0000
  C   C185      1.0  0.38876  0.10200  0.42101  1.0000
  N   N35       1.0  0.38162  0.13990  0.41864  1.0000
  H   H119      1.0  0.40228  0.09261  0.47240  1.0000
  C   C186      1.0  0.62125  0.90765  0.42253  1.0000
  N   N36       1.0  0.62833  0.86975  0.41974  1.0000
  H   H120      1.0  0.60810  0.91704  0.47476  1.0000
  C   C187      1.0  0.64646  0.09348  0.40649  1.0000
  C   C188      1.0  0.62966  0.07717  0.33420  1.0000
  C   C189      1.0  0.64432  0.15530  0.33579  1.0000
  N   N37       1.0  0.65329  0.13170  0.40359  1.0000
  C   C190      1.0  0.65566  0.07341  0.49013  1.0000
  H   H121      1.0  0.64793  0.04368  0.49344  1.0000
  H   H122      1.0  0.64637  0.08855  0.54832  1.0000
  H   H123      1.0  0.68026  0.07348  0.49516  1.0000
  C   C191      1.0  0.36350  0.91617  0.40989  1.0000
  C   C192      1.0  0.37922  0.93242  0.33540  1.0000
  C   C193      1.0  0.36473  0.85430  0.33931  1.0000
  N   N38       1.0  0.35672  0.87792  0.40812  1.0000
  C   C194      1.0  0.35553  0.93635  0.49449  1.0000
  H   H124      1.0  0.36313  0.96616  0.49630  1.0000
  H   H125      1.0  0.36582  0.92142  0.55149  1.0000
  H   H126      1.0  0.33104  0.93607  0.50298  1.0000
  C   C195      1.0  0.88888  0.60228  0.41900  1.0000
  N   N39       1.0  0.88176  0.64018  0.41610  1.0000
  H   H127      1.0  0.90256  0.59307  0.47019  1.0000
  C   C196      1.0  0.12098  0.40734  0.42086  1.0000
  N   N40       1.0  0.12813  0.36947  0.41762  1.0000
  H   H128      1.0  0.10772  0.41655  0.47303  1.0000
  C   C197      1.0  0.14662  0.59322  0.40752  1.0000
  C   C198      1.0  0.12955  0.57720  0.33544  1.0000
  C   C199      1.0  0.14431  0.65530  0.33796  1.0000
  N   N41       1.0  0.15345  0.63145  0.40509  1.0000
  C   C200      1.0  0.15598  0.57291  0.49067  1.0000
  H   H129      1.0  0.14816  0.54321  0.49377  1.0000
  H   H130      1.0  0.14689  0.58795  0.54928  1.0000
  H   H131      1.0  0.18059  0.57285  0.49511  1.0000
  C   C201      1.0  0.86336  0.41641  0.41101  1.0000
  C   C202      1.0  0.87916  0.43245  0.33643  1.0000
  C   C203      1.0  0.86474  0.35428  0.34165  1.0000
  N   N42       1.0  0.85658  0.37815  0.40984  1.0000
  C   C204      1.0  0.85518  0.43689  0.49504  1.0000
  H   H132      1.0  0.86275  0.46671  0.49641  1.0000
  H   H133      1.0  0.86534  0.42219  0.55254  1.0000
  H   H134      1.0  0.83066  0.43662  0.50303  1.0000
  C   C205      1.0  0.48947  0.98295  0.39483  1.0000
  N   N43       1.0  0.51995  0.98350  0.39673  1.0000
  H   H135      1.0  0.47844  0.96715  0.44282  1.0000
  C   C206      1.0  0.98941  0.48323  0.39540  1.0000
  N   N44       1.0  0.01988  0.48380  0.39738  1.0000
  H   H136      1.0  0.97837  0.46771  0.44385  1.0000
  C   C207      1.0  0.23780  0.23493  0.41646  1.0000
  C   C208      1.0  0.22306  0.25726  0.34913  1.0000
  C   C209      1.0  0.28659  0.25182  0.35633  1.0000
  N   N45       1.0  0.26854  0.23278  0.41571  1.0000
  C   C210      1.0  0.22296  0.21462  0.49219  1.0000
  H   H137      1.0  0.19890  0.22067  0.49739  1.0000
  H   H138      1.0  0.23337  0.22343  0.55560  1.0000
  H   H139      1.0  0.22598  0.18360  0.48406  1.0000
  C   C211      1.0  0.77121  0.77425  0.41715  1.0000
  C   C212      1.0  0.78600  0.75204  0.34971  1.0000
  C   C213      1.0  0.72245  0.75742  0.35668  1.0000
  N   N46       1.0  0.74048  0.77638  0.41628  1.0000
  C   C214      1.0  0.78601  0.79443  0.49315  1.0000
  H   H140      1.0  0.81007  0.78838  0.49839  1.0000
  H   H141      1.0  0.77558  0.78549  0.55643  1.0000
  H   H142      1.0  0.78298  0.82546  0.48532  1.0000
  C   C215      1.0  0.76657  0.27611  0.40183  1.0000
  N   N47       1.0  0.73602  0.27312  0.39657  1.0000
  H   H143      1.0  0.77530  0.29246  0.45286  1.0000
  C   C216      1.0  0.24210  0.73360  0.40140  1.0000
  N   N48       1.0  0.27266  0.73657  0.39722  1.0000
  H   H144      1.0  0.23316  0.71713  0.45192  1.0000
