data_image0
_chemical_formula_structural       C3NC3NC5NC5NC36H26N4C3NC3NC5NC5NC36H26N4C3NC3NC5NC5NC36H26N4C3H2CHC3H2CHC3H2CHC3H2CHC3H2CHC3H2CHC16H16C16H16C16H16C4H3CH3CHC4H3CH3CHC4H3CH3CHC4H3CH3CHC4H3CH3CHC4H3CH3CH
_chemical_formula_sum              "C264 N24 H186"
_cell_length_a       67.5769
_cell_length_b       67.5768
_cell_length_c       14.8741
_cell_angle_alpha    89.8356
_cell_angle_beta     90.1644
_cell_angle_gamma    120

_space_group_name_H-M_alt    "P 1"
_space_group_IT_number       1

loop_
  _space_group_symop_operation_xyz
  'x, y, z'

loop_
  _atom_site_type_symbol
  _atom_site_label
  _atom_site_symmetry_multiplicity
  _atom_site_fract_x
  _atom_site_fract_y
  _atom_site_fract_z
  _atom_site_occupancy
  C   C1        1.0  0.04844  0.50742  0.31624  1.0000
  C   C2        1.0  0.02482  0.49544  0.31777  1.0000
  C   C3        1.0  0.01712  0.51116  0.31826  1.0000
  N   N1        1.0  0.03634  0.53201  0.31774  1.0000
  C   C4        1.0  0.05578  0.53076  0.31673  1.0000
  C   C5        1.0  0.07904  0.54863  0.31599  1.0000
  C   C6        1.0  0.08624  0.57234  0.31704  1.0000
  N   N2        1.0  0.07317  0.58233  0.31762  1.0000
  C   C7        1.0  0.08589  0.60542  0.31890  1.0000
  C   C8        1.0  0.10865  0.61056  0.31892  1.0000
  C   C9        1.0  0.10886  0.59025  0.31827  1.0000
  C   C10       1.0  0.07828  0.62161  0.31950  1.0000
  C   C11       1.0  0.05491  0.61583  0.31829  1.0000
  N   N3        1.0  0.03568  0.59497  0.31776  1.0000
  C   C12       1.0  0.01625  0.59622  0.31680  1.0000
  C   C13       1.0  0.02359  0.61957  0.31636  1.0000
  C   C14       1.0  0.04720  0.63154  0.31787  1.0000
  C   C15       1.0  0.99298  0.57836  0.31605  1.0000
  C   C16       1.0  0.98579  0.55464  0.31706  1.0000
  N   N4        1.0  0.99886  0.54466  0.31758  1.0000
  C   C17       1.0  0.98614  0.52157  0.31894  1.0000
  C   C18       1.0  0.96337  0.51643  0.31907  1.0000
  C   C19       1.0  0.96316  0.53674  0.31842  1.0000
  C   C20       1.0  0.99374  0.50538  0.31952  1.0000
  C   C21       1.0  0.97655  0.48173  0.32175  1.0000
  C   C22       1.0  0.93870  0.43586  0.32377  1.0000
  C   C23       1.0  0.95051  0.44617  0.24302  1.0000
  C   C24       1.0  0.96900  0.46879  0.24179  1.0000
  C   C25       1.0  0.91897  0.41338  0.32414  1.0000
  C   C26       1.0  0.91845  0.39511  0.27555  1.0000
  C   C27       1.0  0.89900  0.37305  0.27656  1.0000
  C   C28       1.0  0.87918  0.36850  0.32470  1.0000
  C   C29       1.0  0.97549  0.58443  0.31436  1.0000
  C   C30       1.0  0.93742  0.59209  0.31426  1.0000
  C   C31       1.0  0.94456  0.58610  0.23443  1.0000
  C   C32       1.0  0.96332  0.58242  0.23428  1.0000
  C   C33       1.0  0.91758  0.59463  0.31525  1.0000
  C   C34       1.0  0.87733  0.59876  0.32090  1.0000
  C   C35       1.0  0.87718  0.58025  0.27672  1.0000
  C   C36       1.0  0.89700  0.57834  0.27308  1.0000
  C   C37       1.0  0.09547  0.64526  0.32164  1.0000
  C   C38       1.0  0.10270  0.65835  0.24180  1.0000
  C   C39       1.0  0.12103  0.68104  0.24301  1.0000
  C   C40       1.0  0.13298  0.69131  0.32362  1.0000
  C   C41       1.0  0.15248  0.71393  0.32398  1.0000
  C   C42       1.0  0.19179  0.75913  0.32477  1.0000
  C   C43       1.0  0.17177  0.75436  0.27732  1.0000
  C   C44       1.0  0.15255  0.73214  0.27618  1.0000
  C   C45       1.0  0.09655  0.54259  0.31417  1.0000
  C   C46       1.0  0.10860  0.54464  0.23397  1.0000
  C   C47       1.0  0.13492  0.53540  0.31405  1.0000
  C   C48       1.0  0.12750  0.54119  0.23411  1.0000
  C   C49       1.0  0.15497  0.53322  0.31509  1.0000
  C   C50       1.0  0.17539  0.54970  0.27254  1.0000
  C   C51       1.0  0.19542  0.54817  0.27625  1.0000
  C   C52       1.0  0.19568  0.52986  0.32098  1.0000
  H   H1        1.0  0.20994  0.56067  0.24618  1.0000
  H   H2        1.0  0.17611  0.56349  0.24072  1.0000
  H   H3        1.0  0.13595  0.54311  0.17486  1.0000
  H   H4        1.0  0.10410  0.54935  0.17534  1.0000
  H   H5        1.0  0.05841  0.49999  0.31540  1.0000
  H   H6        1.0  0.01508  0.47802  0.31807  1.0000
  H   H7        1.0  0.03620  0.54615  0.31835  1.0000
  H   H8        1.0  0.03583  0.58083  0.31830  1.0000
  H   H9        1.0  0.12336  0.58908  0.31874  1.0000
  H   H10       1.0  0.12297  0.62637  0.31938  1.0000
  H   H11       1.0  0.09502  0.65123  0.18178  1.0000
  H   H12       1.0  0.12623  0.68969  0.18331  1.0000
  H   H13       1.0  0.05694  0.64896  0.31820  1.0000
  H   H14       1.0  0.01362  0.62700  0.31549  1.0000
  H   H15       1.0  0.94905  0.50063  0.31967  1.0000
  H   H16       1.0  0.94866  0.53791  0.31902  1.0000
  H   H17       1.0  0.96766  0.57763  0.17570  1.0000
  H   H18       1.0  0.93606  0.58425  0.17525  1.0000
  H   H19       1.0  0.89598  0.56440  0.24168  1.0000
  H   H20       1.0  0.86251  0.56787  0.24695  1.0000
  H   H21       1.0  0.97653  0.47597  0.18166  1.0000
  H   H22       1.0  0.94506  0.43766  0.18323  1.0000
  H   H23       1.0  0.89941  0.36024  0.24153  1.0000
  H   H24       1.0  0.93250  0.39757  0.24041  1.0000
  H   H25       1.0  0.13833  0.72952  0.24164  1.0000
  H   H26       1.0  0.17102  0.76711  0.24291  1.0000
  N   N5        1.0  0.86152  0.34707  0.32523  1.0000
  N   N6        1.0  0.21550  0.53003  0.32561  1.0000
  N   N7        1.0  0.20920  0.78069  0.32544  1.0000
  N   N8        1.0  0.85769  0.59895  0.32550  1.0000
  C   C53       1.0  0.59367  0.63513  0.31843  1.0000
  C   C54       1.0  0.60565  0.62348  0.31989  1.0000
  C   C55       1.0  0.58993  0.60006  0.32036  1.0000
  N   N9        1.0  0.56908  0.59844  0.31989  1.0000
  C   C56       1.0  0.57032  0.61912  0.31890  1.0000
  C   C57       1.0  0.55246  0.62452  0.31811  1.0000
  C   C58       1.0  0.52875  0.60800  0.31913  1.0000
  N   N10       1.0  0.51876  0.58494  0.31970  1.0000
  C   C59       1.0  0.49567  0.57458  0.32092  1.0000
  C   C60       1.0  0.49053  0.59220  0.32091  1.0000
  C   C61       1.0  0.51084  0.61272  0.32031  1.0000
  C   C62       1.0  0.47948  0.55078  0.32149  1.0000
  C   C63       1.0  0.48526  0.53319  0.32033  1.0000
  N   N11       1.0  0.50611  0.53482  0.31984  1.0000
  C   C64       1.0  0.50486  0.51413  0.31892  1.0000
  C   C65       1.0  0.48151  0.49813  0.31845  1.0000
  C   C66       1.0  0.46954  0.50977  0.31996  1.0000
  C   C67       1.0  0.52272  0.50873  0.31819  1.0000
  C   C68       1.0  0.54644  0.52524  0.31915  1.0000
  N   N12       1.0  0.55643  0.54830  0.31966  1.0000
  C   C69       1.0  0.57951  0.55866  0.32094  1.0000
  C   C70       1.0  0.58465  0.54104  0.32104  1.0000
  C   C71       1.0  0.56434  0.52052  0.32046  1.0000
  C   C72       1.0  0.59571  0.58247  0.32150  1.0000
  C   C73       1.0  0.61936  0.58891  0.32358  1.0000
  C   C74       1.0  0.66523  0.59694  0.32530  1.0000
  C   C75       1.0  0.65488  0.59851  0.24461  1.0000
  C   C76       1.0  0.63227  0.59442  0.24355  1.0000
  C   C77       1.0  0.68772  0.59970  0.32549  1.0000
  C   C78       1.0  0.70596  0.61749  0.27677  1.0000
  C   C79       1.0  0.72802  0.62010  0.27761  1.0000
  C   C80       1.0  0.73259  0.60478  0.32563  1.0000
  C   C81       1.0  0.51665  0.48517  0.31651  1.0000
  C   C82       1.0  0.50899  0.43944  0.31648  1.0000
  C   C83       1.0  0.51498  0.45267  0.23663  1.0000
  C   C84       1.0  0.51865  0.47511  0.23645  1.0000
  C   C85       1.0  0.50646  0.41706  0.31750  1.0000
  C   C86       1.0  0.50232  0.37267  0.32313  1.0000
  C   C87       1.0  0.52084  0.39109  0.27895  1.0000
  C   C88       1.0  0.52276  0.41282  0.27538  1.0000
  C   C89       1.0  0.45582  0.54431  0.32350  1.0000
  C   C90       1.0  0.44276  0.53855  0.24359  1.0000
  C   C91       1.0  0.42008  0.53421  0.24464  1.0000
  C   C92       1.0  0.40977  0.53576  0.32518  1.0000
  C   C93       1.0  0.38714  0.53263  0.32540  1.0000
  C   C94       1.0  0.34194  0.52673  0.32578  1.0000
  C   C95       1.0  0.34674  0.51155  0.27841  1.0000
  C   C96       1.0  0.36896  0.51455  0.27752  1.0000
  C   C97       1.0  0.55851  0.64807  0.31631  1.0000
  C   C98       1.0  0.55646  0.65817  0.23612  1.0000
  C   C99       1.0  0.56570  0.69363  0.31623  1.0000
  C   C100      1.0  0.55991  0.68053  0.23627  1.0000
  C   C101      1.0  0.56787  0.71586  0.31729  1.0000
  C   C102      1.0  0.55139  0.71984  0.27475  1.0000
  C   C103      1.0  0.55291  0.74140  0.27846  1.0000
  C   C104      1.0  0.57122  0.75991  0.32318  1.0000
  H   H27       1.0  0.54042  0.74347  0.24840  1.0000
  H   H28       1.0  0.53759  0.70681  0.24293  1.0000
  H   H29       1.0  0.55798  0.68713  0.17704  1.0000
  H   H30       1.0  0.55174  0.64904  0.17748  1.0000
  H   H31       1.0  0.60110  0.65252  0.31747  1.0000
  H   H32       1.0  0.62307  0.63116  0.32006  1.0000
  H   H33       1.0  0.55494  0.58416  0.32042  1.0000
  H   H34       1.0  0.52025  0.54910  0.32036  1.0000
  H   H35       1.0  0.51201  0.62839  0.32077  1.0000
  H   H36       1.0  0.47472  0.59071  0.32133  1.0000
  H   H37       1.0  0.44990  0.53806  0.18363  1.0000
  H   H38       1.0  0.41144  0.53080  0.18492  1.0000
  H   H39       1.0  0.45212  0.50209  0.32024  1.0000
  H   H40       1.0  0.47409  0.48073  0.31763  1.0000
  H   H41       1.0  0.60046  0.54252  0.32157  1.0000
  H   H42       1.0  0.56317  0.50485  0.32102  1.0000
  H   H43       1.0  0.52345  0.48430  0.17785  1.0000
  H   H44       1.0  0.51683  0.44608  0.17746  1.0000
  H   H45       1.0  0.53668  0.42577  0.24388  1.0000
  H   H46       1.0  0.53321  0.38883  0.24917  1.0000
  H   H47       1.0  0.62507  0.59484  0.18347  1.0000
  H   H48       1.0  0.66338  0.60169  0.18479  1.0000
  H   H49       1.0  0.74081  0.63336  0.24250  1.0000
  H   H50       1.0  0.70348  0.62913  0.24174  1.0000
  H   H51       1.0  0.37161  0.50301  0.24296  1.0000
  H   H52       1.0  0.33401  0.49811  0.24390  1.0000
  N   N13       1.0  0.75402  0.60854  0.32595  1.0000
  N   N14       1.0  0.57105  0.77956  0.32782  1.0000
  N   N15       1.0  0.32038  0.52259  0.32619  1.0000
  N   N16       1.0  0.50213  0.35283  0.32770  1.0000
  C   C105      1.0  0.46596  0.05264  0.31970  1.0000
  C   C106      1.0  0.47760  0.07625  0.32129  1.0000
  C   C107      1.0  0.50103  0.08396  0.32188  1.0000
  N   N17       1.0  0.50266  0.06473  0.32137  1.0000
  C   C108      1.0  0.48197  0.04530  0.32024  1.0000
  C   C109      1.0  0.47658  0.02204  0.31940  1.0000
  C   C110      1.0  0.49310  0.01484  0.32056  1.0000
  N   N18       1.0  0.51616  0.02791  0.32123  1.0000
  C   C111      1.0  0.52652  0.01519  0.32260  1.0000
  C   C112      1.0  0.50891  0.99243  0.32260  1.0000
  C   C113      1.0  0.48839  0.99221  0.32183  1.0000
  C   C114      1.0  0.55033  0.02280  0.32319  1.0000
  C   C115      1.0  0.56791  0.04617  0.32189  1.0000
  N   N19       1.0  0.56628  0.06540  0.32137  1.0000
  C   C116      1.0  0.58696  0.08484  0.32027  1.0000
  C   C117      1.0  0.60297  0.07750  0.31972  1.0000
  C   C118      1.0  0.59134  0.05388  0.32135  1.0000
  C   C119      1.0  0.59236  0.10810  0.31950  1.0000
  C   C120      1.0  0.57584  0.11529  0.32062  1.0000
  N   N20       1.0  0.55278  0.10222  0.32119  1.0000
  C   C121      1.0  0.54242  0.11494  0.32257  1.0000
  C   C122      1.0  0.56004  0.13770  0.32268  1.0000
  C   C123      1.0  0.58056  0.13792  0.32196  1.0000
  C   C124      1.0  0.51862  0.10733  0.32317  1.0000
  C   C125      1.0  0.51217  0.12453  0.32531  1.0000
  C   C126      1.0  0.50413  0.16237  0.32717  1.0000
  C   C127      1.0  0.50255  0.15055  0.24646  1.0000
  C   C128      1.0  0.50664  0.13204  0.24532  1.0000
  C   C129      1.0  0.50137  0.18209  0.32744  1.0000
  C   C130      1.0  0.48356  0.18259  0.27880  1.0000
  C   C131      1.0  0.48094  0.20204  0.27968  1.0000
  C   C132      1.0  0.49627  0.22187  0.32769  1.0000
  C   C133      1.0  0.61591  0.12559  0.31751  1.0000
  C   C134      1.0  0.66165  0.16365  0.31677  1.0000
  C   C135      1.0  0.64834  0.15647  0.23710  1.0000
  C   C136      1.0  0.62590  0.13771  0.23728  1.0000
  C   C137      1.0  0.68402  0.18350  0.31742  1.0000
  C   C138      1.0  0.72842  0.22375  0.32228  1.0000
  C   C139      1.0  0.70995  0.22388  0.27842  1.0000
  C   C140      1.0  0.68822  0.20406  0.27518  1.0000
  C   C141      1.0  0.55680  0.00562  0.32531  1.0000
  C   C142      1.0  0.56256  0.99840  0.24543  1.0000
  C   C143      1.0  0.56690  0.98005  0.24656  1.0000
  C   C144      1.0  0.56534  0.96810  0.32713  1.0000
  C   C145      1.0  0.56845  0.94859  0.32740  1.0000
  C   C146      1.0  0.57431  0.90926  0.32781  1.0000
  C   C147      1.0  0.58950  0.92930  0.28044  1.0000
  C   C148      1.0  0.58652  0.94852  0.27949  1.0000
  C   C149      1.0  0.45303  0.00453  0.31731  1.0000
  C   C150      1.0  0.44300  0.99252  0.23697  1.0000
  C   C151      1.0  0.40748  0.96615  0.31656  1.0000
  C   C152      1.0  0.42065  0.97361  0.23680  1.0000
  C   C153      1.0  0.38525  0.94609  0.31727  1.0000
  C   C154      1.0  0.38130  0.92570  0.27465  1.0000
  C   C155      1.0  0.35974  0.90567  0.27802  1.0000
  C   C156      1.0  0.34119  0.90540  0.32241  1.0000
  H   H53       1.0  0.35770  0.89116  0.24790  1.0000
  H   H54       1.0  0.39437  0.92499  0.24308  1.0000
  H   H55       1.0  0.41412  0.96518  0.17747  1.0000
  H   H56       1.0  0.45219  0.99703  0.17847  1.0000
  H   H57       1.0  0.44857  0.04266  0.31872  1.0000
  H   H58       1.0  0.46993  0.08599  0.32153  1.0000
  H   H59       1.0  0.51694  0.06488  0.32200  1.0000
  H   H60       1.0  0.55200  0.06525  0.32205  1.0000
  H   H61       1.0  0.47272  0.97771  0.32226  1.0000
  H   H62       1.0  0.51040  0.97811  0.32309  1.0000
  H   H63       1.0  0.56302  0.00607  0.18542  1.0000
  H   H64       1.0  0.57027  0.97487  0.18684  1.0000
  H   H65       1.0  0.59902  0.04415  0.32167  1.0000
  H   H66       1.0  0.62037  0.08747  0.31881  1.0000
  H   H67       1.0  0.55856  0.15202  0.32326  1.0000
  H   H68       1.0  0.59623  0.15242  0.32250  1.0000
  H   H69       1.0  0.61665  0.13334  0.17882  1.0000
  H   H70       1.0  0.65487  0.16495  0.17783  1.0000
  H   H71       1.0  0.67523  0.20506  0.24398  1.0000
  H   H72       1.0  0.71218  0.23853  0.24861  1.0000
  H   H73       1.0  0.50621  0.12449  0.18522  1.0000
  H   H74       1.0  0.49936  0.15595  0.18666  1.0000
  H   H75       1.0  0.46768  0.20161  0.24463  1.0000
  H   H76       1.0  0.47192  0.16852  0.24377  1.0000
  H   H77       1.0  0.59807  0.96275  0.24494  1.0000
  H   H78       1.0  0.60294  0.93004  0.24593  1.0000
  N   N21       1.0  0.49250  0.23953  0.32804  1.0000
  N   N22       1.0  0.32153  0.88557  0.32670  1.0000
  N   N23       1.0  0.57845  0.89184  0.32832  1.0000
  N   N24       1.0  0.74827  0.24339  0.32650  1.0000
  C   C157      1.0  0.28878  0.52781  0.34228  1.0000
  C   C158      1.0  0.28023  0.53476  0.26954  1.0000
  C   C159      1.0  0.25750  0.52987  0.26804  1.0000
  H   H79       1.0  0.25203  0.53517  0.21355  1.0000
  H   H80       1.0  0.29059  0.54374  0.21674  1.0000
  C   C160      1.0  0.31212  0.53575  0.34232  1.0000
  H   H81       1.0  0.32247  0.55220  0.35590  1.0000
  C   C161      1.0  0.57317  0.85497  0.34445  1.0000
  C   C162      1.0  0.56628  0.83960  0.27166  1.0000
  C   C163      1.0  0.57119  0.82177  0.27019  1.0000
  H   H82       1.0  0.56592  0.81108  0.21566  1.0000
  H   H83       1.0  0.55730  0.84104  0.21880  1.0000
  C   C164      1.0  0.56526  0.87040  0.34437  1.0000
  H   H84       1.0  0.54881  0.86430  0.35778  1.0000
  C   C165      1.0  0.24603  0.81229  0.34200  1.0000
  C   C166      1.0  0.26151  0.82088  0.26953  1.0000
  C   C167      1.0  0.27936  0.84362  0.26835  1.0000
  H   H85       1.0  0.29012  0.84911  0.21404  1.0000
  H   H86       1.0  0.26014  0.81055  0.21671  1.0000
  C   C168      1.0  0.23064  0.78895  0.34176  1.0000
  H   H87       1.0  0.23674  0.77860  0.35532  1.0000
  C   C169      1.0  0.78519  0.60258  0.34209  1.0000
  C   C170      1.0  0.79344  0.59547  0.26929  1.0000
  C   C171      1.0  0.81604  0.59996  0.26769  1.0000
  H   H88       1.0  0.82129  0.59455  0.21316  1.0000
  H   H89       1.0  0.78294  0.58664  0.21653  1.0000
  C   C172      1.0  0.76193  0.59506  0.34219  1.0000
  H   H90       1.0  0.75136  0.57867  0.35592  1.0000
  C   C173      1.0  0.49841  0.27662  0.34423  1.0000
  C   C174      1.0  0.50557  0.29210  0.27150  1.0000
  C   C175      1.0  0.50110  0.31023  0.26991  1.0000
  H   H91       1.0  0.50654  0.32097  0.21543  1.0000
  H   H92       1.0  0.51441  0.29050  0.21876  1.0000
  C   C176      1.0  0.50596  0.26090  0.34439  1.0000
  H   H93       1.0  0.52235  0.26672  0.35824  1.0000
  C   C177      1.0  0.82442  0.31590  0.34181  1.0000
  C   C178      1.0  0.80890  0.30761  0.26925  1.0000
  C   C179      1.0  0.79079  0.28500  0.26793  1.0000
  H   H94       1.0  0.78000  0.27972  0.21357  1.0000
  H   H95       1.0  0.81044  0.31807  0.21646  1.0000
  C   C180      1.0  0.84016  0.33916  0.34166  1.0000
  H   H96       1.0  0.83435  0.34973  0.35542  1.0000
  C   C181      1.0  0.96526  0.47141  0.40296  1.0000
  C   C182      1.0  0.94665  0.44889  0.40379  1.0000
  C   C183      1.0  0.87965  0.38665  0.37371  1.0000
  C   C184      1.0  0.89913  0.40863  0.37320  1.0000
  C   C185      1.0  0.96870  0.59069  0.39408  1.0000
  C   C186      1.0  0.95008  0.59462  0.39378  1.0000
  C   C187      1.0  0.91755  0.61302  0.36058  1.0000
  C   C188      1.0  0.89780  0.61510  0.36324  1.0000
  C   C189      1.0  0.12536  0.67812  0.40350  1.0000
  C   C190      1.0  0.10691  0.65551  0.40270  1.0000
  C   C191      1.0  0.17254  0.71890  0.37232  1.0000
  C   C192      1.0  0.19178  0.74103  0.37293  1.0000
  C   C193      1.0  0.10359  0.53648  0.39398  1.0000
  C   C194      1.0  0.12235  0.53278  0.39367  1.0000
  C   C195      1.0  0.17537  0.51334  0.36369  1.0000
  C   C196      1.0  0.15541  0.51504  0.36094  1.0000
  H   H97       1.0  0.17510  0.50018  0.39888  1.0000
  H   H98       1.0  0.14109  0.50272  0.39262  1.0000
  H   H99       1.0  0.12741  0.52919  0.45346  1.0000
  H   H100      1.0  0.09551  0.53535  0.45348  1.0000
  H   H101      1.0  0.10224  0.64638  0.46145  1.0000
  H   H102      1.0  0.13327  0.68486  0.46355  1.0000
  H   H103      1.0  0.97687  0.59181  0.45350  1.0000
  H   H104      1.0  0.94522  0.59836  0.45349  1.0000
  H   H105      1.0  0.89837  0.62840  0.39807  1.0000
  H   H106      1.0  0.93202  0.62522  0.39196  1.0000
  H   H107      1.0  0.89852  0.42129  0.40850  1.0000
  H   H108      1.0  0.86590  0.38401  0.41125  1.0000
  H   H109      1.0  0.93885  0.44212  0.46393  1.0000
  H   H110      1.0  0.97014  0.48046  0.46178  1.0000
  H   H111      1.0  0.17347  0.70629  0.40707  1.0000
  H   H112      1.0  0.20570  0.74383  0.40997  1.0000
  C   C197      1.0  0.62971  0.58785  0.40473  1.0000
  C   C198      1.0  0.65223  0.59176  0.40540  1.0000
  C   C199      1.0  0.71446  0.58704  0.37477  1.0000
  C   C200      1.0  0.69248  0.58454  0.37445  1.0000
  C   C201      1.0  0.51041  0.47203  0.39626  1.0000
  C   C202      1.0  0.50647  0.44948  0.39599  1.0000
  C   C203      1.0  0.48806  0.39858  0.36282  1.0000
  C   C204      1.0  0.48598  0.37675  0.36548  1.0000
  C   C205      1.0  0.42294  0.54124  0.40514  1.0000
  C   C206      1.0  0.44554  0.54539  0.40449  1.0000
  C   C207      1.0  0.38215  0.54766  0.37366  1.0000
  C   C208      1.0  0.36001  0.54476  0.37406  1.0000
  C   C209      1.0  0.56461  0.66112  0.39613  1.0000
  C   C210      1.0  0.56832  0.68358  0.39584  1.0000
  C   C211      1.0  0.58775  0.75608  0.36590  1.0000
  C   C212      1.0  0.58605  0.73443  0.36312  1.0000
  H   H113      1.0  0.60091  0.76892  0.40106  1.0000
  H   H114      1.0  0.59838  0.73238  0.39478  1.0000
  H   H115      1.0  0.57190  0.69216  0.45563  1.0000
  H   H116      1.0  0.56574  0.65409  0.45563  1.0000
  H   H117      1.0  0.45466  0.54980  0.46327  1.0000
  H   H118      1.0  0.41618  0.54233  0.46513  1.0000
  H   H119      1.0  0.50927  0.47900  0.45565  1.0000
  H   H120      1.0  0.50272  0.44079  0.45569  1.0000
  H   H121      1.0  0.47269  0.36398  0.40030  1.0000
  H   H122      1.0  0.47586  0.40081  0.39418  1.0000
  H   H123      1.0  0.67984  0.57124  0.40988  1.0000
  H   H124      1.0  0.71713  0.57589  0.41228  1.0000
  H   H125      1.0  0.65903  0.59066  0.46548  1.0000
  H   H126      1.0  0.62067  0.58359  0.46359  1.0000
  H   H127      1.0  0.39474  0.56115  0.40844  1.0000
  H   H128      1.0  0.35720  0.55584  0.41102  1.0000
  C   C213      1.0  0.51324  0.13583  0.40648  1.0000
  C   C214      1.0  0.50934  0.15444  0.40721  1.0000
  C   C215      1.0  0.51402  0.22143  0.37674  1.0000
  C   C216      1.0  0.51653  0.20196  0.37638  1.0000
  C   C217      1.0  0.62914  0.13242  0.39706  1.0000
  C   C218      1.0  0.65169  0.15103  0.39643  1.0000
  C   C219      1.0  0.70256  0.18356  0.36243  1.0000
  C   C220      1.0  0.72439  0.20330  0.36470  1.0000
  C   C221      1.0  0.55987  0.97571  0.40706  1.0000
  C   C222      1.0  0.55572  0.99416  0.40633  1.0000
  C   C223      1.0  0.55343  0.92853  0.37575  1.0000
  C   C224      1.0  0.55631  0.90928  0.37616  1.0000
  C   C225      1.0  0.43992  0.99744  0.39695  1.0000
  C   C226      1.0  0.41745  0.97868  0.39632  1.0000
  C   C227      1.0  0.34497  0.92567  0.36520  1.0000
  C   C228      1.0  0.36663  0.94563  0.36279  1.0000
  H   H129      1.0  0.33210  0.92594  0.40014  1.0000
  H   H130      1.0  0.36865  0.95995  0.39450  1.0000
  H   H131      1.0  0.40882  0.97358  0.45598  1.0000
  H   H132      1.0  0.44689  0.00550  0.45654  1.0000
  H   H133      1.0  0.55133  0.99882  0.46509  1.0000
  H   H134      1.0  0.55878  0.96779  0.46708  1.0000
  H   H135      1.0  0.62221  0.12427  0.45657  1.0000
  H   H136      1.0  0.66042  0.15593  0.45601  1.0000
  H   H137      1.0  0.73720  0.20275  0.39929  1.0000
  H   H138      1.0  0.70036  0.16910  0.39383  1.0000
  H   H139      1.0  0.52985  0.20258  0.41171  1.0000
  H   H140      1.0  0.52518  0.23520  0.41420  1.0000
  H   H141      1.0  0.51046  0.16227  0.46731  1.0000
  H   H142      1.0  0.51753  0.13099  0.46530  1.0000
  H   H143      1.0  0.53995  0.92760  0.41057  1.0000
  H   H144      1.0  0.54524  0.89535  0.41320  1.0000
  C   C229      1.0  0.24256  0.51827  0.34007  1.0000
  C   C230      1.0  0.25075  0.51101  0.41482  1.0000
  C   C231      1.0  0.27403  0.51579  0.41589  1.0000
  C   C232      1.0  0.23550  0.49906  0.49349  1.0000
  H   H145      1.0  0.21846  0.49692  0.48842  1.0000
  H   H146      1.0  0.24303  0.50875  0.55489  1.0000
  H   H147      1.0  0.23334  0.48202  0.50093  1.0000
  C   C233      1.0  0.28272  0.50845  0.49473  1.0000
  H   H148      1.0  0.30041  0.51250  0.48885  1.0000
  H   H149      1.0  0.27248  0.48996  0.50325  1.0000
  H   H150      1.0  0.28164  0.51677  0.55573  1.0000
  C   C234      1.0  0.22014  0.51379  0.33268  1.0000
  H   H151      1.0  0.20758  0.49762  0.33481  1.0000
  C   C235      1.0  0.58279  0.81836  0.34225  1.0000
  C   C236      1.0  0.59003  0.83371  0.41700  1.0000
  C   C237      1.0  0.58522  0.85218  0.41805  1.0000
  C   C238      1.0  0.60200  0.83034  0.49567  1.0000
  H   H152      1.0  0.60418  0.81547  0.49060  1.0000
  H   H153      1.0  0.59229  0.82808  0.55707  1.0000
  H   H154      1.0  0.61902  0.84523  0.50315  1.0000
  C   C239      1.0  0.59254  0.86813  0.49689  1.0000
  H   H155      1.0  0.58844  0.88174  0.49104  1.0000
  H   H156      1.0  0.61103  0.87640  0.50539  1.0000
  H   H157      1.0  0.58424  0.85864  0.55791  1.0000
  C   C240      1.0  0.58728  0.80043  0.33493  1.0000
  H   H158      1.0  0.60346  0.80405  0.33703  1.0000
  C   C241      1.0  0.28270  0.85851  0.34043  1.0000
  C   C242      1.0  0.26726  0.85028  0.41491  1.0000
  C   C243      1.0  0.24877  0.82700  0.41565  1.0000
  C   C244      1.0  0.27057  0.86549  0.49362  1.0000
  H   H159      1.0  0.28546  0.88253  0.48881  1.0000
  H   H160      1.0  0.27274  0.85793  0.55508  1.0000
  H   H161      1.0  0.25569  0.86764  0.50081  1.0000
  C   C245      1.0  0.23274  0.81826  0.49422  1.0000
  H   H162      1.0  0.21912  0.80058  0.48813  1.0000
  H   H163      1.0  0.22449  0.82849  0.50261  1.0000
  H   H164      1.0  0.24216  0.81932  0.55540  1.0000
  C   C246      1.0  0.30065  0.88093  0.33337  1.0000
  H   H165      1.0  0.29704  0.89350  0.33541  1.0000
  C   C247      1.0  0.83114  0.61135  0.33963  1.0000
  C   C248      1.0  0.82325  0.61879  0.41439  1.0000
  C   C249      1.0  0.80012  0.61441  0.41558  1.0000
  C   C250      1.0  0.83869  0.63054  0.49293  1.0000
  H   H166      1.0  0.85560  0.63239  0.48776  1.0000
  H   H167      1.0  0.83113  0.62086  0.55441  1.0000
  H   H168      1.0  0.84115  0.64768  0.50034  1.0000
  C   C251      1.0  0.79174  0.62196  0.49443  1.0000
  H   H169      1.0  0.77414  0.61819  0.48866  1.0000
  H   H170      1.0  0.80224  0.64042  0.50280  1.0000
  H   H171      1.0  0.79275  0.61352  0.55547  1.0000
  C   C252      1.0  0.85341  0.61544  0.33216  1.0000
  H   H172      1.0  0.86616  0.63153  0.33388  1.0000
  C   C253      1.0  0.48972  0.31386  0.34185  1.0000
  C   C254      1.0  0.48226  0.29843  0.41660  1.0000
  C   C255      1.0  0.48661  0.27966  0.41775  1.0000
  C   C256      1.0  0.47054  0.30205  0.49517  1.0000
  H   H173      1.0  0.46872  0.31714  0.49004  1.0000
  H   H174      1.0  0.48021  0.30405  0.55664  1.0000
  H   H175      1.0  0.45338  0.28737  0.50254  1.0000
  C   C257      1.0  0.47905  0.26363  0.49658  1.0000
  H   H176      1.0  0.48277  0.24977  0.49074  1.0000
  H   H177      1.0  0.46059  0.25569  0.50502  1.0000
  H   H178      1.0  0.48751  0.27298  0.55762  1.0000
  C   C258      1.0  0.48564  0.33205  0.33436  1.0000
  H   H179      1.0  0.46955  0.32872  0.33616  1.0000
  C   C259      1.0  0.78725  0.26995  0.33993  1.0000
  C   C260      1.0  0.80274  0.27787  0.41445  1.0000
  C   C261      1.0  0.82149  0.30101  0.41534  1.0000
  C   C262      1.0  0.79923  0.26247  0.49305  1.0000
  H   H180      1.0  0.78417  0.24556  0.48810  1.0000
  H   H181      1.0  0.79725  0.27006  0.55455  1.0000
  H   H182      1.0  0.81394  0.26002  0.50023  1.0000
  C   C263      1.0  0.83759  0.30943  0.49396  1.0000
  H   H183      1.0  0.85141  0.32703  0.48799  1.0000
  H   H184      1.0  0.84558  0.29894  0.50221  1.0000
  H   H185      1.0  0.82828  0.30845  0.55514  1.0000
  C   C264      1.0  0.76905  0.24767  0.33273  1.0000
  H   H186      1.0  0.77239  0.23492  0.33446  1.0000
