data_image0
_chemical_formula_structural       C2NC2H3CH3CH3C2NC2H3CH3CH3C2NC2H3CH3CH3C2NC2H3CH3CH3C2NC2H3CH3CH3C2NC2H3CH3CH3CNCHOHCNCHOHCNCHOHCNCHOHCNCHOHCNCHOHC2NC2H3CH3CH3C2NC2H3CH3CH3C2NC2H3CH3CH3C2NC2H3CH3CH3C2NC2H3CH3CH3C2NC2H3CH3CH3C6H3C6H3C6H3C6H3C6H3C6H3C6H3C6H3C6H3C6H3C6H3C6H3CNCOHCNCOHCNCOHCNCOHCNCOHCNCOHC2NC2H2CH3CH3C2NC2H2CH3CH3C2NC2H2CH3CH3C2NC2H2CH3CH3C2NC2H2CH3CH3C2NC2H2CH3CH3CNCOHCNCOHCNCOHCNCOHCNCOHCNCOH
_chemical_formula_sum              "C216 N36 H216 O18"
_cell_length_a       39.5889
_cell_length_b       39.5889
_cell_length_c       14.8318
_cell_angle_alpha    90
_cell_angle_beta     90
_cell_angle_gamma    120

_space_group_name_H-M_alt    "P 1"
_space_group_IT_number       1

loop_
  _space_group_symop_operation_xyz
  'x, y, z'

loop_
  _atom_site_type_symbol
  _atom_site_label
  _atom_site_symmetry_multiplicity
  _atom_site_fract_x
  _atom_site_fract_y
  _atom_site_fract_z
  _atom_site_occupancy
  C   C1        1.0  0.21982  0.45879  0.25331  1.0000
  C   C2        1.0  0.19969  0.45911  0.33351  1.0000
  N   N1        1.0  0.25415  0.45885  0.26535  1.0000
  C   C3        1.0  0.20738  0.45876  0.15591  1.0000
  C   C4        1.0  0.23782  0.45950  0.08625  1.0000
  H   H1        1.0  0.26621  0.48586  0.09462  1.0000
  H   H2        1.0  0.22848  0.45896  0.01666  1.0000
  H   H3        1.0  0.24171  0.43424  0.09526  1.0000
  C   C5        1.0  0.20336  0.49533  0.13430  1.0000
  H   H4        1.0  0.22867  0.52191  0.15922  1.0000
  H   H5        1.0  0.17718  0.49301  0.16409  1.0000
  H   H6        1.0  0.20105  0.49866  0.06179  1.0000
  C   C6        1.0  0.16790  0.42064  0.13614  1.0000
  H   H7        1.0  0.16982  0.39485  0.15379  1.0000
  H   H8        1.0  0.16018  0.41861  0.06481  1.0000
  H   H9        1.0  0.14391  0.41969  0.17393  1.0000
  C   C7        1.0  0.57413  0.78256  0.25338  1.0000
  C   C8        1.0  0.57383  0.76212  0.33357  1.0000
  N   N2        1.0  0.57408  0.81684  0.26546  1.0000
  C   C9        1.0  0.57415  0.77015  0.15598  1.0000
  C   C10       1.0  0.57341  0.79986  0.08634  1.0000
  H   H10       1.0  0.54706  0.80190  0.09472  1.0000
  H   H11       1.0  0.57395  0.79107  0.01674  1.0000
  H   H12       1.0  0.59868  0.82900  0.09534  1.0000
  C   C11       1.0  0.53756  0.72957  0.13439  1.0000
  H   H13       1.0  0.51099  0.72832  0.15933  1.0000
  H   H14       1.0  0.53986  0.70569  0.16416  1.0000
  H   H15       1.0  0.53421  0.72393  0.06187  1.0000
  C   C12       1.0  0.61225  0.76876  0.13619  1.0000
  H   H16       1.0  0.63804  0.79647  0.15380  1.0000
  H   H17       1.0  0.61426  0.76305  0.06486  1.0000
  H   H18       1.0  0.61319  0.74573  0.17400  1.0000
  C   C13       1.0  0.25031  0.81306  0.25346  1.0000
  C   C14       1.0  0.27076  0.83316  0.33368  1.0000
  N   N3        1.0  0.21603  0.77874  0.26550  1.0000
  C   C15       1.0  0.26273  0.82550  0.15606  1.0000
  C   C16       1.0  0.23303  0.79506  0.08640  1.0000
  H   H19       1.0  0.23099  0.76667  0.09478  1.0000
  H   H20       1.0  0.24183  0.80440  0.01682  1.0000
  H   H21       1.0  0.20389  0.79119  0.09539  1.0000
  C   C17       1.0  0.30332  0.82950  0.13448  1.0000
  H   H22       1.0  0.30457  0.80418  0.15940  1.0000
  H   H23       1.0  0.32719  0.85568  0.16428  1.0000
  H   H24       1.0  0.30896  0.83181  0.06198  1.0000
  C   C18       1.0  0.26411  0.86499  0.13629  1.0000
  H   H25       1.0  0.23641  0.86308  0.15393  1.0000
  H   H26       1.0  0.26981  0.87271  0.06497  1.0000
  H   H27       1.0  0.28715  0.88897  0.17409  1.0000
  C   C19       1.0  0.80969  0.57751  0.25334  1.0000
  C   C20       1.0  0.82987  0.57729  0.33356  1.0000
  N   N4        1.0  0.77534  0.57741  0.26534  1.0000
  C   C21       1.0  0.82216  0.57756  0.15596  1.0000
  C   C22       1.0  0.79171  0.57678  0.08626  1.0000
  H   H28       1.0  0.76333  0.55039  0.09461  1.0000
  H   H29       1.0  0.80107  0.57733  0.01669  1.0000
  H   H30       1.0  0.78779  0.60201  0.09524  1.0000
  C   C23       1.0  0.82623  0.54102  0.13439  1.0000
  H   H31       1.0  0.80093  0.51442  0.15932  1.0000
  H   H32       1.0  0.85243  0.54337  0.16420  1.0000
  H   H33       1.0  0.82855  0.53768  0.06189  1.0000
  C   C24       1.0  0.86162  0.61570  0.13622  1.0000
  H   H34       1.0  0.85966  0.64147  0.15380  1.0000
  H   H35       1.0  0.86937  0.61772  0.06492  1.0000
  H   H36       1.0  0.88561  0.61669  0.17409  1.0000
  C   C25       1.0  0.45536  0.25369  0.25342  1.0000
  C   C26       1.0  0.45566  0.27414  0.33361  1.0000
  N   N5        1.0  0.45542  0.21942  0.26546  1.0000
  C   C27       1.0  0.45532  0.26609  0.15601  1.0000
  C   C28       1.0  0.45606  0.23639  0.08637  1.0000
  H   H37       1.0  0.48243  0.23437  0.09473  1.0000
  H   H38       1.0  0.45552  0.24518  0.01678  1.0000
  H   H39       1.0  0.43081  0.20725  0.09538  1.0000
  C   C29       1.0  0.49188  0.30668  0.13439  1.0000
  H   H40       1.0  0.51846  0.30796  0.15931  1.0000
  H   H41       1.0  0.48956  0.33055  0.16416  1.0000
  H   H42       1.0  0.49521  0.31232  0.06187  1.0000
  C   C30       1.0  0.41719  0.26744  0.13626  1.0000
  H   H43       1.0  0.39141  0.23973  0.15390  1.0000
  H   H44       1.0  0.41516  0.27314  0.06494  1.0000
  H   H45       1.0  0.41624  0.29047  0.17406  1.0000
  C   C31       1.0  0.77914  0.22320  0.25336  1.0000
  C   C32       1.0  0.75869  0.20308  0.33356  1.0000
  N   N6        1.0  0.81342  0.25753  0.26539  1.0000
  C   C33       1.0  0.76673  0.21075  0.15595  1.0000
  C   C34       1.0  0.79644  0.24120  0.08630  1.0000
  H   H46       1.0  0.79846  0.26959  0.09466  1.0000
  H   H47       1.0  0.78765  0.23186  0.01671  1.0000
  H   H48       1.0  0.82558  0.24508  0.09531  1.0000
  C   C35       1.0  0.72614  0.20673  0.13433  1.0000
  H   H49       1.0  0.72488  0.23205  0.15925  1.0000
  H   H50       1.0  0.70228  0.18055  0.16412  1.0000
  H   H51       1.0  0.72051  0.20442  0.06182  1.0000
  C   C36       1.0  0.76537  0.17128  0.13621  1.0000
  H   H52       1.0  0.79308  0.17320  0.15387  1.0000
  H   H53       1.0  0.75969  0.16355  0.06488  1.0000
  H   H54       1.0  0.74234  0.14729  0.17400  1.0000
  C   C37       1.0  0.15053  0.60420  0.27564  1.0000
  N   N7        1.0  0.15047  0.56982  0.27155  1.0000
  C   C38       1.0  0.14910  0.55012  0.34774  1.0000
  H   H55       1.0  0.14705  0.59091  0.00992  1.0000
  O   O1        1.0  0.15000  0.62115  0.19656  1.0000
  H   H56       1.0  0.14984  0.55847  0.21277  1.0000
  C   C39       1.0  0.42866  0.56784  0.27558  1.0000
  N   N8        1.0  0.46302  0.60218  0.27151  1.0000
  C   C40       1.0  0.48269  0.62055  0.34768  1.0000
  H   H57       1.0  0.44194  0.57767  0.00986  1.0000
  O   O2        1.0  0.41172  0.55034  0.19650  1.0000
  H   H58       1.0  0.47438  0.61289  0.21273  1.0000
  C   C41       1.0  0.46501  0.88225  0.27559  1.0000
  N   N9        1.0  0.43068  0.88230  0.27152  1.0000
  C   C42       1.0  0.41233  0.88360  0.34772  1.0000
  H   H59       1.0  0.45524  0.88576  0.00988  1.0000
  O   O3        1.0  0.48249  0.88279  0.19651  1.0000
  H   H60       1.0  0.41994  0.88291  0.21275  1.0000
  C   C43       1.0  0.87890  0.43205  0.27558  1.0000
  N   N10       1.0  0.87895  0.46643  0.27153  1.0000
  C   C44       1.0  0.88022  0.48607  0.34771  1.0000
  H   H61       1.0  0.88239  0.44532  0.00986  1.0000
  O   O4        1.0  0.87947  0.41513  0.19649  1.0000
  H   H62       1.0  0.87958  0.47778  0.21276  1.0000
  C   C45       1.0  0.60080  0.46838  0.27558  1.0000
  N   N11       1.0  0.56642  0.43406  0.27149  1.0000
  C   C46       1.0  0.54676  0.41572  0.34768  1.0000
  H   H63       1.0  0.58751  0.45858  0.00986  1.0000
  O   O5        1.0  0.61775  0.48586  0.19651  1.0000
  H   H64       1.0  0.55508  0.42331  0.21272  1.0000
  C   C47       1.0  0.56442  0.15387  0.27560  1.0000
  N   N12       1.0  0.59875  0.15383  0.27154  1.0000
  C   C48       1.0  0.61708  0.15248  0.34774  1.0000
  H   H65       1.0  0.57421  0.15041  0.00989  1.0000
  O   O6        1.0  0.54695  0.15335  0.19651  1.0000
  H   H66       1.0  0.60949  0.15323  0.21276  1.0000
  C   C49       1.0  0.99700  0.38147  0.25556  1.0000
  C   C50       1.0  0.97384  0.36993  0.33610  1.0000
  N   N13       1.0  0.03659  0.40190  0.26697  1.0000
  C   C51       1.0  0.98233  0.37397  0.15853  1.0000
  C   C52       1.0  0.01677  0.39158  0.08812  1.0000
  H   H67       1.0  0.03427  0.42325  0.09530  1.0000
  H   H68       1.0  0.00602  0.38535  0.01878  1.0000
  H   H69       1.0  0.03597  0.37942  0.09749  1.0000
  C   C53       1.0  0.95641  0.39250  0.13655  1.0000
  H   H70       1.0  0.97047  0.42274  0.15961  1.0000
  H   H71       1.0  0.92769  0.37637  0.16741  1.0000
  H   H72       1.0  0.95139  0.39220  0.06414  1.0000
  C   C54       1.0  0.95871  0.32905  0.14040  1.0000
  H   H73       1.0  0.97627  0.31557  0.15619  1.0000
  H   H74       1.0  0.94982  0.32294  0.06978  1.0000
  H   H75       1.0  0.93227  0.31477  0.18079  1.0000
  C   C55       1.0  0.65134  0.63702  0.25558  1.0000
  C   C56       1.0  0.66293  0.62543  0.33614  1.0000
  N   N14       1.0  0.63088  0.65615  0.26692  1.0000
  C   C57       1.0  0.65886  0.62985  0.15855  1.0000
  C   C58       1.0  0.64123  0.64665  0.08810  1.0000
  H   H76       1.0  0.60955  0.63245  0.09526  1.0000
  H   H77       1.0  0.64748  0.64214  0.01878  1.0000
  H   H78       1.0  0.65336  0.67801  0.09745  1.0000
  C   C59       1.0  0.64038  0.58541  0.13658  1.0000
  H   H79       1.0  0.61013  0.56920  0.15963  1.0000
  H   H80       1.0  0.65653  0.57285  0.16746  1.0000
  H   H81       1.0  0.64069  0.58069  0.06417  1.0000
  C   C60       1.0  0.70378  0.65120  0.14044  1.0000
  H   H82       1.0  0.71724  0.68224  0.15623  1.0000
  H   H83       1.0  0.70991  0.64842  0.06983  1.0000
  H   H84       1.0  0.71809  0.63907  0.18086  1.0000
  C   C61       1.0  0.39578  0.03583  0.25539  1.0000
  C   C62       1.0  0.40731  0.05901  0.33591  1.0000
  N   N15       1.0  0.37672  0.99624  0.26667  1.0000
  C   C63       1.0  0.40292  0.05054  0.15839  1.0000
  C   C64       1.0  0.38615  0.01613  0.08788  1.0000
  H   H85       1.0  0.40039  0.99869  0.09497  1.0000
  H   H86       1.0  0.39065  0.02692  0.01858  1.0000
  H   H87       1.0  0.35480  0.99688  0.09724  1.0000
  C   C65       1.0  0.44737  0.07654  0.13642  1.0000
  H   H88       1.0  0.46359  0.06252  0.15937  1.0000
  H   H89       1.0  0.45990  0.10524  0.16740  1.0000
  H   H90       1.0  0.45207  0.08162  0.06403  1.0000
  C   C66       1.0  0.38154  0.07409  0.14037  1.0000
  H   H91       1.0  0.35050  0.05647  0.15615  1.0000
  H   H92       1.0  0.38432  0.08302  0.06978  1.0000
  H   H93       1.0  0.39365  0.10050  0.18086  1.0000
  C   C67       1.0  0.03242  0.65472  0.25547  1.0000
  C   C68       1.0  0.05560  0.66633  0.33597  1.0000
  N   N16       1.0  0.99283  0.63425  0.26687  1.0000
  C   C69       1.0  0.04709  0.66224  0.15844  1.0000
  C   C70       1.0  0.01265  0.64462  0.08801  1.0000
  H   H94       1.0  0.99517  0.61295  0.09517  1.0000
  H   H95       1.0  0.02341  0.65087  0.01870  1.0000
  H   H96       1.0  0.99344  0.65677  0.09740  1.0000
  C   C71       1.0  0.07303  0.64374  0.13646  1.0000
  H   H97       1.0  0.05898  0.61349  0.15948  1.0000
  H   H98       1.0  0.10174  0.65987  0.16737  1.0000
  H   H99       1.0  0.07807  0.64407  0.06406  1.0000
  C   C72       1.0  0.07069  0.70717  0.14035  1.0000
  H   H100      1.0  0.05311  0.72063  0.15614  1.0000
  H   H101      1.0  0.07959  0.71329  0.06973  1.0000
  H   H102      1.0  0.09713  0.72146  0.18076  1.0000
  C   C73       1.0  0.37811  0.39922  0.25558  1.0000
  C   C74       1.0  0.36653  0.41080  0.33614  1.0000
  N   N17       1.0  0.39857  0.38009  0.26692  1.0000
  C   C75       1.0  0.37059  0.40638  0.15855  1.0000
  C   C76       1.0  0.38822  0.38957  0.08810  1.0000
  H   H103      1.0  0.41989  0.40377  0.09526  1.0000
  H   H104      1.0  0.38196  0.39409  0.01878  1.0000
  H   H105      1.0  0.37608  0.35821  0.09746  1.0000
  C   C77       1.0  0.38909  0.45083  0.13657  1.0000
  H   H106      1.0  0.41933  0.46703  0.15962  1.0000
  H   H107      1.0  0.37293  0.46339  0.16745  1.0000
  H   H108      1.0  0.38877  0.45554  0.06416  1.0000
  C   C78       1.0  0.32567  0.38504  0.14045  1.0000
  H   H109      1.0  0.31221  0.35400  0.15624  1.0000
  H   H110      1.0  0.31955  0.38782  0.06983  1.0000
  H   H111      1.0  0.31137  0.39718  0.18086  1.0000
  C   C79       1.0  0.63367  0.00041  0.25559  1.0000
  C   C80       1.0  0.62205  0.97724  0.33612  1.0000
  N   N18       1.0  0.65281  0.03999  0.26701  1.0000
  C   C81       1.0  0.62649  0.98574  0.15855  1.0000
  C   C82       1.0  0.64333  0.02019  0.08815  1.0000
  H   H112      1.0  0.62915  0.03769  0.09534  1.0000
  H   H113      1.0  0.63880  0.00944  0.01882  1.0000
  H   H114      1.0  0.67469  0.03938  0.09752  1.0000
  C   C83       1.0  0.58203  0.95983  0.13658  1.0000
  H   H115      1.0  0.56586  0.97389  0.15967  1.0000
  H   H116      1.0  0.56945  0.93111  0.16743  1.0000
  H   H117      1.0  0.57732  0.95482  0.06417  1.0000
  C   C84       1.0  0.64778  0.96211  0.14040  1.0000
  H   H118      1.0  0.67883  0.97967  0.15619  1.0000
  H   H119      1.0  0.64499  0.95322  0.06977  1.0000
  H   H120      1.0  0.63562  0.93567  0.18078  1.0000
  C   C85       1.0  0.14262  0.51158  0.34618  1.0000
  C   C86       1.0  0.10400  0.48000  0.34837  1.0000
  C   C87       1.0  0.09593  0.44097  0.34653  1.0000
  C   C88       1.0  0.12767  0.43391  0.34155  1.0000
  C   C89       1.0  0.16683  0.46515  0.33571  1.0000
  C   C90       1.0  0.17375  0.50387  0.34165  1.0000
  H   H121      1.0  0.12218  0.40575  0.34031  1.0000
  H   H122      1.0  0.20181  0.52682  0.34011  1.0000
  H   H123      1.0  0.08134  0.48559  0.35107  1.0000
  C   C91       1.0  0.52125  0.65257  0.34621  1.0000
  C   C92       1.0  0.55280  0.64549  0.34837  1.0000
  C   C93       1.0  0.59185  0.67643  0.34657  1.0000
  C   C94       1.0  0.59895  0.71525  0.34166  1.0000
  C   C95       1.0  0.56774  0.72321  0.33579  1.0000
  C   C96       1.0  0.52901  0.69143  0.34172  1.0000
  H   H124      1.0  0.62712  0.73789  0.34035  1.0000
  H   H125      1.0  0.50608  0.69657  0.34016  1.0000
  H   H126      1.0  0.54719  0.61724  0.35101  1.0000
  C   C97       1.0  0.38031  0.89013  0.34627  1.0000
  C   C98       1.0  0.38739  0.92877  0.34833  1.0000
  C   C99       1.0  0.35646  0.93688  0.34650  1.0000
  C   C100      1.0  0.31764  0.90517  0.34166  1.0000
  C   C101      1.0  0.30967  0.86599  0.33594  1.0000
  C   C102      1.0  0.34144  0.85903  0.34184  1.0000
  H   H127      1.0  0.29500  0.91070  0.34030  1.0000
  H   H128      1.0  0.33630  0.83096  0.34032  1.0000
  H   H129      1.0  0.41565  0.95140  0.35089  1.0000
  C   C103      1.0  0.88677  0.52463  0.34627  1.0000
  C   C104      1.0  0.92541  0.55618  0.34843  1.0000
  C   C105      1.0  0.93354  0.59523  0.34659  1.0000
  C   C106      1.0  0.90184  0.60235  0.34165  1.0000
  C   C107      1.0  0.86265  0.57115  0.33589  1.0000
  C   C108      1.0  0.85568  0.53241  0.34175  1.0000
  H   H130      1.0  0.90738  0.63052  0.34035  1.0000
  H   H131      1.0  0.82760  0.50949  0.34022  1.0000
  H   H132      1.0  0.94804  0.55055  0.35108  1.0000
  C   C109      1.0  0.50821  0.38368  0.34622  1.0000
  C   C110      1.0  0.47664  0.39075  0.34838  1.0000
  C   C111      1.0  0.43760  0.35980  0.34659  1.0000
  C   C112      1.0  0.43051  0.32099  0.34165  1.0000
  C   C113      1.0  0.46174  0.31304  0.33583  1.0000
  C   C114      1.0  0.50047  0.34482  0.34170  1.0000
  H   H133      1.0  0.40235  0.29834  0.34038  1.0000
  H   H134      1.0  0.52340  0.33969  0.34018  1.0000
  H   H135      1.0  0.48225  0.41899  0.35102  1.0000
  C   C115      1.0  0.64915  0.14601  0.34620  1.0000
  C   C116      1.0  0.64211  0.10739  0.34841  1.0000
  C   C117      1.0  0.67308  0.09933  0.34661  1.0000
  C   C118      1.0  0.71188  0.13107  0.34160  1.0000
  C   C119      1.0  0.71979  0.17023  0.33578  1.0000
  C   C120      1.0  0.68799  0.17714  0.34165  1.0000
  H   H136      1.0  0.73455  0.12558  0.34037  1.0000
  H   H137      1.0  0.69310  0.20520  0.34014  1.0000
  H   H138      1.0  0.61387  0.08473  0.35110  1.0000
  C   C121      1.0  0.50775  0.14605  0.35721  1.0000
  C   C122      1.0  0.47631  0.10751  0.34795  1.0000
  C   C123      1.0  0.43730  0.09925  0.33902  1.0000
  C   C124      1.0  0.43011  0.13097  0.34188  1.0000
  C   C125      1.0  0.46124  0.17014  0.34659  1.0000
  C   C126      1.0  0.49993  0.17714  0.35206  1.0000
  H   H139      1.0  0.40199  0.12551  0.33900  1.0000
  H   H140      1.0  0.52275  0.20525  0.35447  1.0000
  H   H141      1.0  0.48200  0.08490  0.34810  1.0000
  C   C127      1.0  0.64964  0.52505  0.35725  1.0000
  C   C128      1.0  0.64252  0.55648  0.34799  1.0000
  C   C129      1.0  0.67325  0.59550  0.33902  1.0000
  C   C130      1.0  0.71217  0.60271  0.34189  1.0000
  C   C131      1.0  0.72023  0.57159  0.34655  1.0000
  C   C132      1.0  0.68856  0.53290  0.35202  1.0000
  H   H142      1.0  0.73482  0.63084  0.33904  1.0000
  H   H143      1.0  0.69385  0.51008  0.35435  1.0000
  H   H144      1.0  0.61422  0.55078  0.34818  1.0000
  C   C133      1.0  0.88672  0.38320  0.35717  1.0000
  C   C134      1.0  0.92527  0.39033  0.34794  1.0000
  C   C135      1.0  0.93357  0.35961  0.33900  1.0000
  C   C136      1.0  0.90187  0.32068  0.34189  1.0000
  C   C137      1.0  0.86269  0.31261  0.34656  1.0000
  C   C138      1.0  0.85566  0.34428  0.35197  1.0000
  H   H145      1.0  0.90736  0.29804  0.33907  1.0000
  H   H146      1.0  0.82754  0.33897  0.35440  1.0000
  H   H147      1.0  0.94786  0.41863  0.34813  1.0000
  C   C139      1.0  0.52168  0.89010  0.35719  1.0000
  C   C140      1.0  0.55309  0.92866  0.34796  1.0000
  C   C141      1.0  0.59212  0.93697  0.33902  1.0000
  C   C142      1.0  0.59937  0.90529  0.34196  1.0000
  C   C143      1.0  0.56827  0.86610  0.34659  1.0000
  C   C144      1.0  0.52956  0.85905  0.35200  1.0000
  H   H148      1.0  0.62750  0.91079  0.33909  1.0000
  H   H149      1.0  0.50676  0.83093  0.35443  1.0000
  H   H150      1.0  0.54736  0.95123  0.34813  1.0000
  C   C145      1.0  0.37981  0.51119  0.35725  1.0000
  C   C146      1.0  0.38694  0.47976  0.34797  1.0000
  C   C147      1.0  0.35621  0.44074  0.33902  1.0000
  C   C148      1.0  0.31728  0.43352  0.34194  1.0000
  C   C149      1.0  0.30922  0.46464  0.34653  1.0000
  C   C150      1.0  0.34090  0.50333  0.35195  1.0000
  H   H151      1.0  0.29464  0.40539  0.33906  1.0000
  H   H152      1.0  0.33560  0.52615  0.35436  1.0000
  H   H153      1.0  0.41524  0.48547  0.34817  1.0000
  C   C151      1.0  0.14272  0.65305  0.35728  1.0000
  C   C152      1.0  0.10417  0.64591  0.34794  1.0000
  C   C153      1.0  0.09586  0.67663  0.33896  1.0000
  C   C154      1.0  0.12756  0.71556  0.34190  1.0000
  C   C155      1.0  0.16674  0.72364  0.34659  1.0000
  C   C156      1.0  0.17377  0.69197  0.35206  1.0000
  H   H154      1.0  0.12207  0.73820  0.33902  1.0000
  H   H155      1.0  0.20189  0.69728  0.35448  1.0000
  H   H156      1.0  0.08158  0.61761  0.34811  1.0000
  C   C157      1.0  0.21719  0.45918  0.41731  1.0000
  N   N19       1.0  0.25159  0.45912  0.42126  1.0000
  C   C158      1.0  0.27050  0.45847  0.34532  1.0000
  O   O7        1.0  0.20104  0.46116  0.49637  1.0000
  H   H157      1.0  0.26335  0.46063  0.47999  1.0000
  C   C159      1.0  0.57370  0.77951  0.41738  1.0000
  N   N20       1.0  0.57374  0.81395  0.42135  1.0000
  C   C160      1.0  0.57448  0.83358  0.34543  1.0000
  O   O8        1.0  0.57167  0.76135  0.49643  1.0000
  H   H158      1.0  0.57222  0.82420  0.48007  1.0000
  C   C161      1.0  0.25334  0.81565  0.41746  1.0000
  N   N21       1.0  0.21890  0.78124  0.42137  1.0000
  C   C162      1.0  0.19926  0.76236  0.34543  1.0000
  O   O9        1.0  0.27149  0.83175  0.49654  1.0000
  H   H159      1.0  0.20863  0.76947  0.48008  1.0000
  C   C163      1.0  0.81229  0.57710  0.41733  1.0000
  N   N22       1.0  0.77786  0.57710  0.42123  1.0000
  C   C164      1.0  0.75895  0.57776  0.34527  1.0000
  O   O10       1.0  0.82841  0.57512  0.49642  1.0000
  H   H160      1.0  0.76609  0.57559  0.47995  1.0000
  C   C165      1.0  0.45585  0.25676  0.41739  1.0000
  N   N23       1.0  0.45583  0.22233  0.42133  1.0000
  C   C166      1.0  0.45506  0.20268  0.34541  1.0000
  O   O11       1.0  0.45788  0.27491  0.49646  1.0000
  H   H161      1.0  0.45736  0.21208  0.48006  1.0000
  C   C167      1.0  0.77611  0.22059  0.41735  1.0000
  N   N24       1.0  0.81056  0.25500  0.42131  1.0000
  C   C168      1.0  0.83015  0.27389  0.34536  1.0000
  O   O12       1.0  0.75798  0.20444  0.49642  1.0000
  H   H162      1.0  0.82083  0.26674  0.48003  1.0000
  C   C169      1.0  0.14847  0.60025  0.44001  1.0000
  C   C170      1.0  0.14922  0.62074  0.35971  1.0000
  N   N25       1.0  0.14789  0.56578  0.42788  1.0000
  C   C171      1.0  0.14779  0.61228  0.53733  1.0000
  C   C172      1.0  0.14696  0.58179  0.60699  1.0000
  H   H163      1.0  0.12078  0.55331  0.59794  1.0000
  H   H164      1.0  0.17242  0.57819  0.59867  1.0000
  C   C173      1.0  0.11079  0.61571  0.55705  1.0000
  H   H165      1.0  0.08457  0.59040  0.53069  1.0000
  H   H166      1.0  0.11314  0.64197  0.52764  1.0000
  H   H167      1.0  0.10680  0.61742  0.62935  1.0000
  C   C174      1.0  0.18553  0.65191  0.55860  1.0000
  H   H168      1.0  0.21161  0.65039  0.54176  1.0000
  H   H169      1.0  0.18700  0.65929  0.63004  1.0000
  H   H170      1.0  0.18645  0.67593  0.52106  1.0000
  C   C175      1.0  0.43260  0.56974  0.43996  1.0000
  C   C176      1.0  0.41213  0.54998  0.35965  1.0000
  N   N26       1.0  0.46705  0.60366  0.42782  1.0000
  C   C177      1.0  0.42058  0.55702  0.53728  1.0000
  C   C178      1.0  0.45105  0.58671  0.60693  1.0000
  H   H171      1.0  0.47955  0.58905  0.59787  1.0000
  H   H172      1.0  0.45462  0.61575  0.59861  1.0000
  C   C179      1.0  0.41721  0.51662  0.55701  1.0000
  H   H173      1.0  0.44253  0.51575  0.53062  1.0000
  H   H174      1.0  0.39096  0.49269  0.52760  1.0000
  H   H175      1.0  0.41552  0.51092  0.62930  1.0000
  C   C180      1.0  0.38093  0.55508  0.55857  1.0000
  H   H176      1.0  0.38240  0.58266  0.54172  1.0000
  H   H177      1.0  0.37355  0.54916  0.63001  1.0000
  H   H178      1.0  0.35691  0.53195  0.52105  1.0000
  C   C181      1.0  0.46312  0.88431  0.43996  1.0000
  C   C182      1.0  0.48287  0.88355  0.35965  1.0000
  N   N27       1.0  0.42921  0.88484  0.42786  1.0000
  C   C183      1.0  0.47585  0.88500  0.53728  1.0000
  C   C184      1.0  0.44620  0.88584  0.60695  1.0000
  H   H179      1.0  0.44388  0.91201  0.59788  1.0000
  H   H180      1.0  0.41714  0.86038  0.59866  1.0000
  C   C185      1.0  0.51628  0.92201  0.55698  1.0000
  H   H181      1.0  0.51719  0.94822  0.53058  1.0000
  H   H182      1.0  0.54019  0.91965  0.52759  1.0000
  H   H183      1.0  0.52198  0.92602  0.62928  1.0000
  C   C186      1.0  0.47775  0.84727  0.55857  1.0000
  H   H184      1.0  0.45015  0.82119  0.54177  1.0000
  H   H185      1.0  0.48368  0.84581  0.63001  1.0000
  H   H186      1.0  0.50085  0.84635  0.52101  1.0000
  C   C187      1.0  0.88093  0.43597  0.43995  1.0000
  C   C188      1.0  0.88020  0.41548  0.35963  1.0000
  N   N28       1.0  0.88147  0.47042  0.42783  1.0000
  C   C189      1.0  0.88163  0.42394  0.53726  1.0000
  C   C190      1.0  0.88246  0.45443  0.60693  1.0000
  H   H187      1.0  0.90862  0.48292  0.59785  1.0000
  H   H188      1.0  0.85699  0.45801  0.59864  1.0000
  C   C191      1.0  0.91865  0.42055  0.55695  1.0000
  H   H189      1.0  0.94486  0.44585  0.53054  1.0000
  H   H190      1.0  0.91631  0.39428  0.52756  1.0000
  H   H191      1.0  0.92267  0.41885  0.62925  1.0000
  C   C192      1.0  0.84392  0.38431  0.55856  1.0000
  H   H192      1.0  0.81782  0.38581  0.54176  1.0000
  H   H193      1.0  0.84246  0.37692  0.63000  1.0000
  H   H194      1.0  0.84300  0.36029  0.52101  1.0000
  C   C193      1.0  0.59685  0.46649  0.43995  1.0000
  C   C194      1.0  0.61733  0.48625  0.35963  1.0000
  N   N29       1.0  0.56240  0.43258  0.42783  1.0000
  C   C195      1.0  0.60888  0.47921  0.53727  1.0000
  C   C196      1.0  0.57839  0.44954  0.60693  1.0000
  H   H195      1.0  0.54990  0.44722  0.59787  1.0000
  H   H196      1.0  0.57481  0.42049  0.59862  1.0000
  C   C197      1.0  0.61227  0.51963  0.55700  1.0000
  H   H197      1.0  0.58697  0.52053  0.53060  1.0000
  H   H198      1.0  0.63853  0.54355  0.52762  1.0000
  H   H199      1.0  0.61396  0.52533  0.62930  1.0000
  C   C198      1.0  0.64851  0.48113  0.55856  1.0000
  H   H200      1.0  0.64702  0.45354  0.54173  1.0000
  H   H201      1.0  0.65590  0.48704  0.63001  1.0000
  H   H202      1.0  0.67254  0.50425  0.52104  1.0000
  C   C199      1.0  0.56630  0.15182  0.43999  1.0000
  C   C200      1.0  0.54655  0.15253  0.35965  1.0000
  N   N30       1.0  0.60021  0.15127  0.42787  1.0000
  C   C201      1.0  0.55358  0.15114  0.53730  1.0000
  C   C202      1.0  0.58325  0.15032  0.60697  1.0000
  H   H203      1.0  0.58557  0.12416  0.59792  1.0000
  H   H204      1.0  0.61230  0.17579  0.59865  1.0000
  C   C203      1.0  0.51316  0.11413  0.55702  1.0000
  H   H205      1.0  0.51226  0.08792  0.53064  1.0000
  H   H206      1.0  0.48924  0.11647  0.52760  1.0000
  H   H207      1.0  0.50746  0.11013  0.62932  1.0000
  C   C204      1.0  0.55168  0.18887  0.55857  1.0000
  H   H208      1.0  0.57927  0.21496  0.54170  1.0000
  H   H209      1.0  0.54577  0.19035  0.63001  1.0000
  H   H210      1.0  0.52855  0.18977  0.52106  1.0000
  C   C205      1.0  0.99426  0.37942  0.41954  1.0000
  N   N31       1.0  0.03402  0.39958  0.42273  1.0000
  C   C206      1.0  0.05605  0.41092  0.34645  1.0000
  O   O13       1.0  0.97477  0.37158  0.49896  1.0000
  H   H211      1.0  0.04686  0.40778  0.48122  1.0000
  C   C207      1.0  0.65345  0.63640  0.41956  1.0000
  N   N32       1.0  0.63328  0.65599  0.42280  1.0000
  C   C208      1.0  0.62188  0.66656  0.34645  1.0000
  O   O14       1.0  0.66135  0.62480  0.49898  1.0000
  H   H212      1.0  0.62510  0.66066  0.48127  1.0000
  C   C209      1.0  0.39646  0.03851  0.41930  1.0000
  N   N33       1.0  0.37688  0.99875  0.42251  1.0000
  C   C210      1.0  0.36636  0.97679  0.34613  1.0000
  O   O15       1.0  0.40808  0.05797  0.49877  1.0000
  H   H213      1.0  0.37233  0.98591  0.48097  1.0000
  C   C211      1.0  0.03519  0.65679  0.41946  1.0000
  N   N34       1.0  0.99543  0.63665  0.42276  1.0000
  C   C212      1.0  0.97345  0.62525  0.34643  1.0000
  O   O16       1.0  0.05470  0.66463  0.49887  1.0000
  H   H214      1.0  0.98260  0.62838  0.48124  1.0000
  C   C213      1.0  0.37600  0.39983  0.41955  1.0000
  N   N35       1.0  0.39614  0.38021  0.42280  1.0000
  C   C214      1.0  0.40757  0.36967  0.34645  1.0000
  O   O17       1.0  0.36811  0.41144  0.49896  1.0000
  H   H215      1.0  0.40435  0.37558  0.48128  1.0000
  C   C215      1.0  0.63299  0.99766  0.41956  1.0000
  N   N36       1.0  0.65260  0.03742  0.42279  1.0000
  C   C216      1.0  0.66325  0.05945  0.34650  1.0000
  O   O18       1.0  0.62132  0.97817  0.49898  1.0000
  H   H216      1.0  0.65721  0.05026  0.48127  1.0000
