data_image0
_chemical_formula_structural       C3NHC2HOCH3C3NHC2HOCH5NCHNC2HCNC3ONCHNC2HCNC3OH2C3O2CNH2C3O2CNC3NH3C6N2H3C6N2H4NCHNCHNCHNCHC3H2C3H2C3H2C3H2C3H2CH3C2NC2O2CH3C2NC2O2CH3C2NC2O2CH3C2NC2O2CH3C3NH3C6N2H3C6N2H4NCHNCHNCHNCHC3H2C3H2C3H2C3H2C3H2CH3C2NC2O2CH3C2NC2O2CH3C2NC2O2CH3C2NC2O2CH3C6N2H3C6N2H4C6N2H4NCHNCHNCHNCHNCHNCHC3H2C3H2C3H2C3H2C3H2C3H2C2NC2O2CH3C2NC2O2CH3C2NC2O2CH3C2NC2O2CH3C2NC2O2CH3C2NC2O2CH3C6N2H3C6N2H4C6N2H4NCHNCHNCHNCHNCHNCHC3H2C3H2C3H2C3H2C3H2C3H2C2NC2O2CH3C2NC2O2CH3C2NC2O2CH3C2NC2O2CH3C2NC2O2CH3C2NC2O2CH3
_chemical_formula_sum              "C288 N72 H192 O48"
_cell_length_a       45.9503
_cell_length_b       45.9504
_cell_length_c       14.8805
_cell_angle_alpha    90
_cell_angle_beta     90
_cell_angle_gamma    120

_space_group_name_H-M_alt    "P 1"
_space_group_IT_number       1

loop_
  _space_group_symop_operation_xyz
  'x, y, z'

loop_
  _atom_site_type_symbol
  _atom_site_label
  _atom_site_symmetry_multiplicity
  _atom_site_fract_x
  _atom_site_fract_y
  _atom_site_fract_z
  _atom_site_occupancy
  C   C1        1.0  0.02437  0.26317  0.30680  1.0000
  C   C2        1.0  0.04489  0.29945  0.30261  1.0000
  C   C3        1.0  0.07651  0.31654  0.34888  1.0000
  N   N1        1.0  0.03490  0.31765  0.25218  1.0000
  H   H1        1.0  0.04794  0.34192  0.24787  1.0000
  C   C4        1.0  0.07617  0.26254  0.35579  1.0000
  C   C5        1.0  0.04254  0.24606  0.32627  1.0000
  H   H2        1.0  0.03069  0.22060  0.33116  1.0000
  O   O1        1.0  0.07575  0.34094  0.55355  1.0000
  C   C6        1.0  0.05610  0.30750  0.58931  1.0000
  H   H3        1.0  0.03177  0.30400  0.60971  1.0000
  H   H4        1.0  0.06803  0.30384  0.64841  1.0000
  H   H5        1.0  0.05171  0.28840  0.53903  1.0000
  C   C7        1.0  0.02438  0.76317  0.30680  1.0000
  C   C8        1.0  0.04489  0.79945  0.30261  1.0000
  C   C9        1.0  0.07651  0.81654  0.34888  1.0000
  N   N2        1.0  0.03489  0.81764  0.25218  1.0000
  H   H6        1.0  0.04794  0.84192  0.24787  1.0000
  C   C10       1.0  0.07617  0.76254  0.35579  1.0000
  C   C11       1.0  0.04254  0.74606  0.32627  1.0000
  H   H7        1.0  0.03069  0.72060  0.33116  1.0000
  O   O2        1.0  0.07575  0.84094  0.55355  1.0000
  C   C12       1.0  0.05610  0.80749  0.58931  1.0000
  H   H8        1.0  0.03177  0.80400  0.60971  1.0000
  H   H9        1.0  0.06804  0.80384  0.64841  1.0000
  H   H10       1.0  0.05171  0.78840  0.53903  1.0000
  H   H11       1.0  0.01695  0.30653  0.20828  1.0000
  H   H12       1.0  0.01695  0.80652  0.20828  1.0000
  N   N3        1.0  0.13796  0.24003  0.28889  1.0000
  C   C13       1.0  0.10683  0.23695  0.28790  1.0000
  H   H13       1.0  0.09542  0.23444  0.22716  1.0000
  N   N4        1.0  0.11014  0.37206  0.28778  1.0000
  C   C14       1.0  0.13825  0.40312  0.28694  1.0000
  C   C15       1.0  0.09118  0.29703  0.37418  1.0000
  H   H14       1.0  0.11574  0.30912  0.39538  1.0000
  C   C16       1.0  0.09616  0.24717  0.36482  1.0000
  N   N5        1.0  0.11614  0.25470  0.43840  1.0000
  C   C17       1.0  0.09782  0.35190  0.36171  1.0000
  C   C18       1.0  0.11632  0.36517  0.44303  1.0000
  C   C19       1.0  0.10635  0.34846  0.52497  1.0000
  O   O3        1.0  0.12766  0.35644  0.58387  1.0000
  N   N6        1.0  0.13796  0.74002  0.28889  1.0000
  C   C20       1.0  0.10683  0.73695  0.28790  1.0000
  H   H15       1.0  0.09542  0.73444  0.22716  1.0000
  N   N7        1.0  0.11014  0.87206  0.28778  1.0000
  C   C21       1.0  0.13826  0.90312  0.28694  1.0000
  C   C22       1.0  0.09118  0.79703  0.37418  1.0000
  H   H16       1.0  0.11574  0.80912  0.39538  1.0000
  C   C23       1.0  0.09616  0.74717  0.36482  1.0000
  N   N8        1.0  0.11614  0.75470  0.43840  1.0000
  C   C24       1.0  0.09782  0.85190  0.36171  1.0000
  C   C25       1.0  0.11632  0.86517  0.44303  1.0000
  C   C26       1.0  0.10635  0.84846  0.52497  1.0000
  O   O4        1.0  0.12766  0.85644  0.58387  1.0000
  H   H17       1.0  0.16802  0.20792  0.24879  1.0000
  H   H18       1.0  0.14705  0.41472  0.22633  1.0000
  C   C27       1.0  0.15813  0.24787  0.36284  1.0000
  C   C28       1.0  0.14488  0.25319  0.44403  1.0000
  C   C29       1.0  0.16164  0.26017  0.52583  1.0000
  O   O5        1.0  0.15353  0.27307  0.58556  1.0000
  O   O6        1.0  0.16865  0.23671  0.55454  1.0000
  C   C30       1.0  0.15901  0.41406  0.36407  1.0000
  N   N9        1.0  0.14648  0.39403  0.43757  1.0000
  H   H19       1.0  0.16802  0.70792  0.24879  1.0000
  H   H20       1.0  0.14705  0.91472  0.22633  1.0000
  C   C31       1.0  0.15813  0.74787  0.36284  1.0000
  C   C32       1.0  0.14488  0.75319  0.44403  1.0000
  C   C33       1.0  0.16164  0.76017  0.52583  1.0000
  O   O7        1.0  0.15353  0.77307  0.58556  1.0000
  O   O8        1.0  0.16866  0.73671  0.55454  1.0000
  C   C34       1.0  0.15901  0.91405  0.36407  1.0000
  N   N10       1.0  0.14648  0.89402  0.43757  1.0000
  C   C35       1.0  0.48774  0.24479  0.30692  1.0000
  C   C36       1.0  0.43551  0.19149  0.34907  1.0000
  C   C37       1.0  0.46719  0.20851  0.30298  1.0000
  N   N11       1.0  0.47725  0.19024  0.25303  1.0000
  H   H21       1.0  0.99508  0.20134  0.20884  1.0000
  H   H22       1.0  0.46401  0.16599  0.24847  1.0000
  H   H23       1.0  0.51695  0.30653  0.20828  1.0000
  C   C38       1.0  0.26525  0.24494  0.30709  1.0000
  C   C39       1.0  0.31863  0.24601  0.34804  1.0000
  C   C40       1.0  0.30153  0.26070  0.30254  1.0000
  C   C41       1.0  0.24682  0.26315  0.30727  1.0000
  C   C42       1.0  0.21053  0.24737  0.30323  1.0000
  C   C43       1.0  0.19347  0.26195  0.34946  1.0000
  N   N12       1.0  0.31971  0.28901  0.25251  1.0000
  N   N13       1.0  0.19230  0.21914  0.25299  1.0000
  H   H24       1.0  0.30852  0.29573  0.20855  1.0000
  H   H25       1.0  0.34394  0.29992  0.24737  1.0000
  H   H26       1.0  0.20338  0.21229  0.20906  1.0000
  C   C44       1.0  0.26520  0.02241  0.30731  1.0000
  C   C45       1.0  0.26405  0.07459  0.34929  1.0000
  C   C46       1.0  0.24945  0.04293  0.30313  1.0000
  C   C47       1.0  0.24695  0.48577  0.30732  1.0000
  C   C48       1.0  0.26267  0.46521  0.30294  1.0000
  C   C49       1.0  0.24793  0.43342  0.34847  1.0000
  N   N14       1.0  0.22122  0.03291  0.25287  1.0000
  N   N15       1.0  0.29101  0.47532  0.25306  1.0000
  H   H27       1.0  0.21451  0.51504  0.20877  1.0000
  H   H28       1.0  0.21011  0.04606  0.24818  1.0000
  H   H29       1.0  0.30192  0.46201  0.24797  1.0000
  H   H30       1.0  0.29770  0.99318  0.20898  1.0000
  N   N16       1.0  0.27015  0.39997  0.28822  1.0000
  C   C50       1.0  0.27312  0.37186  0.28763  1.0000
  H   H31       1.0  0.27614  0.36313  0.22719  1.0000
  N   N17       1.0  0.37415  0.26793  0.28766  1.0000
  C   C51       1.0  0.40525  0.27094  0.28692  1.0000
  H   H32       1.0  0.41665  0.27349  0.22615  1.0000
  N   N18       1.0  0.24211  0.10809  0.28848  1.0000
  C   C52       1.0  0.23900  0.13612  0.28727  1.0000
  H   H33       1.0  0.23652  0.14498  0.22646  1.0000
  N   N19       1.0  0.40199  0.13577  0.28877  1.0000
  C   C53       1.0  0.37388  0.10470  0.28813  1.0000
  H   H34       1.0  0.36515  0.09293  0.22771  1.0000
  C   C54       1.0  0.46960  0.26195  0.32618  1.0000
  C   C55       1.0  0.43595  0.24554  0.35544  1.0000
  C   C56       1.0  0.42089  0.21107  0.37409  1.0000
  H   H35       1.0  0.48146  0.28742  0.33057  1.0000
  H   H36       1.0  0.39628  0.19899  0.39483  1.0000
  C   C57       1.0  0.24812  0.20967  0.32656  1.0000
  C   C58       1.0  0.26460  0.19243  0.35530  1.0000
  C   C59       1.0  0.29914  0.21182  0.37310  1.0000
  H   H37       1.0  0.22266  0.19607  0.33131  1.0000
  H   H38       1.0  0.31126  0.19934  0.39396  1.0000
  C   C60       1.0  0.21300  0.29614  0.37462  1.0000
  C   C61       1.0  0.24749  0.31560  0.35622  1.0000
  C   C62       1.0  0.26394  0.29842  0.32676  1.0000
  H   H39       1.0  0.20091  0.30862  0.39570  1.0000
  H   H40       1.0  0.28942  0.31206  0.33100  1.0000
  C   C63       1.0  0.30048  0.04054  0.32673  1.0000
  C   C64       1.0  0.31763  0.07414  0.35650  1.0000
  C   C65       1.0  0.29817  0.08916  0.37498  1.0000
  H   H41       1.0  0.31408  0.02868  0.33150  1.0000
  H   H42       1.0  0.31066  0.11374  0.39605  1.0000
  C   C66       1.0  0.21372  0.41876  0.37333  1.0000
  C   C67       1.0  0.19437  0.43394  0.35532  1.0000
  C   C68       1.0  0.21167  0.46767  0.32673  1.0000
  H   H43       1.0  0.20117  0.39413  0.39389  1.0000
  H   H44       1.0  0.19810  0.47956  0.33139  1.0000
  C   C69       1.0  0.20219  0.25003  0.58926  1.0000
  H   H45       1.0  0.20524  0.22896  0.60996  1.0000
  H   H46       1.0  0.20643  0.26596  0.64799  1.0000
  H   H47       1.0  0.22117  0.26425  0.53829  1.0000
  C   C70       1.0  0.26200  0.41215  0.36188  1.0000
  C   C71       1.0  0.26287  0.35099  0.36449  1.0000
  N   N20       1.0  0.25514  0.36340  0.43785  1.0000
  C   C72       1.0  0.25651  0.39359  0.44322  1.0000
  C   C73       1.0  0.24933  0.40338  0.52487  1.0000
  O   O9        1.0  0.23567  0.38201  0.58338  1.0000
  O   O10       1.0  0.27308  0.43369  0.55359  1.0000
  C   C74       1.0  0.26012  0.45416  0.58865  1.0000
  H   H48       1.0  0.28138  0.47817  0.60935  1.0000
  H   H49       1.0  0.24420  0.44258  0.64745  1.0000
  H   H50       1.0  0.24601  0.45916  0.53786  1.0000
  C   C75       1.0  0.35397  0.26019  0.36159  1.0000
  C   C76       1.0  0.41598  0.26094  0.36412  1.0000
  N   N21       1.0  0.39597  0.25348  0.43760  1.0000
  C   C77       1.0  0.36718  0.25492  0.44292  1.0000
  C   C78       1.0  0.35036  0.24799  0.52462  1.0000
  O   O11       1.0  0.35848  0.23519  0.58461  1.0000
  O   O12       1.0  0.34322  0.27140  0.55294  1.0000
  C   C79       1.0  0.30966  0.25801  0.58755  1.0000
  H   H51       1.0  0.30649  0.27905  0.60789  1.0000
  H   H52       1.0  0.30547  0.24219  0.64649  1.0000
  H   H53       1.0  0.29071  0.24365  0.53663  1.0000
  C   C80       1.0  0.24994  0.09582  0.36255  1.0000
  C   C81       1.0  0.24915  0.15707  0.36403  1.0000
  N   N22       1.0  0.25669  0.14467  0.43774  1.0000
  C   C82       1.0  0.25522  0.11445  0.44363  1.0000
  C   C83       1.0  0.26218  0.10473  0.52556  1.0000
  O   O13       1.0  0.27506  0.12580  0.58518  1.0000
  O   O14       1.0  0.23871  0.07428  0.55439  1.0000
  C   C84       1.0  0.25202  0.05410  0.58942  1.0000
  H   H54       1.0  0.23094  0.02999  0.61024  1.0000
  H   H55       1.0  0.26794  0.06584  0.64814  1.0000
  H   H56       1.0  0.26625  0.04929  0.53860  1.0000
  C   C85       1.0  0.41419  0.15614  0.36236  1.0000
  C   C86       1.0  0.35302  0.09415  0.36501  1.0000
  N   N23       1.0  0.36541  0.11425  0.43840  1.0000
  C   C87       1.0  0.39562  0.14306  0.44371  1.0000
  C   C88       1.0  0.40544  0.16001  0.52539  1.0000
  O   O15       1.0  0.38407  0.15233  0.58390  1.0000
  O   O16       1.0  0.43572  0.16650  0.55410  1.0000
  C   C89       1.0  0.45625  0.19991  0.58920  1.0000
  H   H57       1.0  0.48023  0.20260  0.60989  1.0000
  H   H58       1.0  0.44469  0.20427  0.64801  1.0000
  H   H59       1.0  0.46129  0.21904  0.53843  1.0000
  C   C90       1.0  0.48774  0.74479  0.30692  1.0000
  C   C91       1.0  0.43551  0.69149  0.34907  1.0000
  C   C92       1.0  0.46719  0.70851  0.30298  1.0000
  N   N24       1.0  0.47725  0.69024  0.25303  1.0000
  H   H60       1.0  0.99508  0.70134  0.20884  1.0000
  H   H61       1.0  0.46401  0.66599  0.24847  1.0000
  H   H62       1.0  0.51695  0.80652  0.20828  1.0000
  C   C93       1.0  0.26525  0.74494  0.30709  1.0000
  C   C94       1.0  0.31863  0.74601  0.34804  1.0000
  C   C95       1.0  0.30153  0.76070  0.30254  1.0000
  C   C96       1.0  0.24682  0.76315  0.30727  1.0000
  C   C97       1.0  0.21053  0.74737  0.30323  1.0000
  C   C98       1.0  0.19347  0.76195  0.34946  1.0000
  N   N25       1.0  0.31971  0.78901  0.25251  1.0000
  N   N26       1.0  0.19230  0.71914  0.25299  1.0000
  H   H63       1.0  0.30852  0.79572  0.20855  1.0000
  H   H64       1.0  0.34394  0.79992  0.24737  1.0000
  H   H65       1.0  0.20338  0.71229  0.20906  1.0000
  C   C99       1.0  0.26520  0.52241  0.30731  1.0000
  C   C100      1.0  0.26405  0.57459  0.34929  1.0000
  C   C101      1.0  0.24945  0.54293  0.30313  1.0000
  C   C102      1.0  0.24695  0.98577  0.30732  1.0000
  C   C103      1.0  0.26267  0.96521  0.30294  1.0000
  C   C104      1.0  0.24793  0.93341  0.34847  1.0000
  N   N27       1.0  0.22122  0.53291  0.25287  1.0000
  N   N28       1.0  0.29101  0.97532  0.25306  1.0000
  H   H66       1.0  0.21451  0.01504  0.20877  1.0000
  H   H67       1.0  0.21011  0.54606  0.24818  1.0000
  H   H68       1.0  0.30192  0.96201  0.24797  1.0000
  H   H69       1.0  0.29770  0.49318  0.20898  1.0000
  N   N29       1.0  0.27015  0.89997  0.28822  1.0000
  C   C105      1.0  0.27312  0.87186  0.28763  1.0000
  H   H70       1.0  0.27614  0.86313  0.22719  1.0000
  N   N30       1.0  0.37414  0.76792  0.28766  1.0000
  C   C106      1.0  0.40524  0.77094  0.28692  1.0000
  H   H71       1.0  0.41665  0.77348  0.22615  1.0000
  N   N31       1.0  0.24211  0.60809  0.28848  1.0000
  C   C107      1.0  0.23900  0.63612  0.28727  1.0000
  H   H72       1.0  0.23652  0.64498  0.22646  1.0000
  N   N32       1.0  0.40199  0.63577  0.28877  1.0000
  C   C108      1.0  0.37388  0.60470  0.28813  1.0000
  H   H73       1.0  0.36515  0.59293  0.22771  1.0000
  C   C109      1.0  0.46960  0.76195  0.32618  1.0000
  C   C110      1.0  0.43595  0.74554  0.35544  1.0000
  C   C111      1.0  0.42089  0.71107  0.37409  1.0000
  H   H74       1.0  0.48146  0.78742  0.33057  1.0000
  H   H75       1.0  0.39628  0.69899  0.39483  1.0000
  C   C112      1.0  0.24812  0.70967  0.32656  1.0000
  C   C113      1.0  0.26460  0.69243  0.35530  1.0000
  C   C114      1.0  0.29914  0.71182  0.37310  1.0000
  H   H76       1.0  0.22266  0.69607  0.33131  1.0000
  H   H77       1.0  0.31126  0.69934  0.39396  1.0000
  C   C115      1.0  0.21300  0.79613  0.37462  1.0000
  C   C116      1.0  0.24749  0.81560  0.35622  1.0000
  C   C117      1.0  0.26394  0.79842  0.32676  1.0000
  H   H78       1.0  0.20091  0.80862  0.39570  1.0000
  H   H79       1.0  0.28942  0.81206  0.33100  1.0000
  C   C118      1.0  0.30048  0.54054  0.32673  1.0000
  C   C119      1.0  0.31763  0.57414  0.35650  1.0000
  C   C120      1.0  0.29817  0.58916  0.37498  1.0000
  H   H80       1.0  0.31408  0.52868  0.33150  1.0000
  H   H81       1.0  0.31067  0.61374  0.39605  1.0000
  C   C121      1.0  0.21372  0.91876  0.37333  1.0000
  C   C122      1.0  0.19437  0.93394  0.35532  1.0000
  C   C123      1.0  0.21167  0.96767  0.32673  1.0000
  H   H82       1.0  0.20117  0.89413  0.39389  1.0000
  H   H83       1.0  0.19810  0.97956  0.33139  1.0000
  C   C124      1.0  0.20219  0.75003  0.58926  1.0000
  H   H84       1.0  0.20524  0.72896  0.60996  1.0000
  H   H85       1.0  0.20643  0.76596  0.64799  1.0000
  H   H86       1.0  0.22117  0.76425  0.53829  1.0000
  C   C125      1.0  0.26200  0.91215  0.36188  1.0000
  C   C126      1.0  0.26287  0.85099  0.36449  1.0000
  N   N33       1.0  0.25514  0.86340  0.43785  1.0000
  C   C127      1.0  0.25651  0.89359  0.44322  1.0000
  C   C128      1.0  0.24933  0.90338  0.52487  1.0000
  O   O17       1.0  0.23567  0.88201  0.58338  1.0000
  O   O18       1.0  0.27308  0.93369  0.55359  1.0000
  C   C129      1.0  0.26012  0.95417  0.58865  1.0000
  H   H87       1.0  0.28138  0.97817  0.60935  1.0000
  H   H88       1.0  0.24420  0.94258  0.64745  1.0000
  H   H89       1.0  0.24601  0.95916  0.53786  1.0000
  C   C130      1.0  0.35397  0.76019  0.36159  1.0000
  C   C131      1.0  0.41598  0.76094  0.36412  1.0000
  N   N34       1.0  0.39597  0.75348  0.43760  1.0000
  C   C132      1.0  0.36718  0.75492  0.44292  1.0000
  C   C133      1.0  0.35036  0.74799  0.52462  1.0000
  O   O19       1.0  0.35848  0.73519  0.58461  1.0000
  O   O20       1.0  0.34322  0.77140  0.55294  1.0000
  C   C134      1.0  0.30966  0.75801  0.58755  1.0000
  H   H90       1.0  0.30649  0.77905  0.60789  1.0000
  H   H91       1.0  0.30547  0.74219  0.64649  1.0000
  H   H92       1.0  0.29071  0.74365  0.53663  1.0000
  C   C135      1.0  0.24994  0.59583  0.36255  1.0000
  C   C136      1.0  0.24915  0.65707  0.36403  1.0000
  N   N35       1.0  0.25669  0.64467  0.43774  1.0000
  C   C137      1.0  0.25522  0.61445  0.44363  1.0000
  C   C138      1.0  0.26218  0.60473  0.52556  1.0000
  O   O21       1.0  0.27506  0.62580  0.58518  1.0000
  O   O22       1.0  0.23871  0.57428  0.55439  1.0000
  C   C139      1.0  0.25202  0.55410  0.58942  1.0000
  H   H93       1.0  0.23094  0.52999  0.61024  1.0000
  H   H94       1.0  0.26793  0.56584  0.64814  1.0000
  H   H95       1.0  0.26625  0.54929  0.53860  1.0000
  C   C140      1.0  0.41419  0.65614  0.36236  1.0000
  C   C141      1.0  0.35302  0.59415  0.36501  1.0000
  N   N36       1.0  0.36541  0.61425  0.43840  1.0000
  C   C142      1.0  0.39562  0.64306  0.44371  1.0000
  C   C143      1.0  0.40544  0.66001  0.52539  1.0000
  O   O23       1.0  0.38407  0.65233  0.58390  1.0000
  O   O24       1.0  0.43572  0.66650  0.55410  1.0000
  C   C144      1.0  0.45625  0.69991  0.58920  1.0000
  H   H96       1.0  0.48024  0.70260  0.60989  1.0000
  H   H97       1.0  0.44469  0.70427  0.64801  1.0000
  H   H98       1.0  0.46129  0.71905  0.53843  1.0000
  C   C145      1.0  0.98774  0.24479  0.30692  1.0000
  C   C146      1.0  0.93551  0.19149  0.34907  1.0000
  C   C147      1.0  0.96719  0.20851  0.30298  1.0000
  C   C148      1.0  0.52437  0.26317  0.30680  1.0000
  C   C149      1.0  0.54489  0.29945  0.30261  1.0000
  C   C150      1.0  0.57652  0.31654  0.34888  1.0000
  N   N37       1.0  0.97725  0.19024  0.25303  1.0000
  N   N38       1.0  0.53490  0.31765  0.25218  1.0000
  H   H99       1.0  0.49508  0.20134  0.20884  1.0000
  H   H100      1.0  0.96401  0.16599  0.24847  1.0000
  H   H101      1.0  0.54794  0.34192  0.24787  1.0000
  C   C151      1.0  0.76525  0.24494  0.30709  1.0000
  C   C152      1.0  0.81863  0.24601  0.34804  1.0000
  C   C153      1.0  0.80153  0.26070  0.30254  1.0000
  C   C154      1.0  0.74682  0.26315  0.30727  1.0000
  C   C155      1.0  0.71053  0.24737  0.30323  1.0000
  C   C156      1.0  0.69347  0.26195  0.34946  1.0000
  N   N39       1.0  0.81971  0.28901  0.25251  1.0000
  N   N40       1.0  0.69230  0.21914  0.25299  1.0000
  H   H102      1.0  0.80853  0.29573  0.20855  1.0000
  H   H103      1.0  0.84394  0.29992  0.24737  1.0000
  H   H104      1.0  0.66802  0.20792  0.24879  1.0000
  H   H105      1.0  0.70338  0.21229  0.20906  1.0000
  C   C157      1.0  0.76520  0.02241  0.30731  1.0000
  C   C158      1.0  0.76405  0.07459  0.34929  1.0000
  C   C159      1.0  0.74945  0.04293  0.30313  1.0000
  C   C160      1.0  0.74695  0.48577  0.30732  1.0000
  C   C161      1.0  0.76267  0.46521  0.30294  1.0000
  C   C162      1.0  0.74793  0.43342  0.34847  1.0000
  N   N41       1.0  0.72122  0.03291  0.25287  1.0000
  N   N42       1.0  0.79101  0.47532  0.25306  1.0000
  H   H106      1.0  0.71451  0.51504  0.20877  1.0000
  H   H107      1.0  0.71011  0.04606  0.24818  1.0000
  H   H108      1.0  0.80192  0.46201  0.24797  1.0000
  H   H109      1.0  0.79770  0.99318  0.20898  1.0000
  N   N43       1.0  0.63796  0.24003  0.28889  1.0000
  C   C163      1.0  0.60683  0.23695  0.28790  1.0000
  H   H110      1.0  0.59542  0.23444  0.22716  1.0000
  N   N44       1.0  0.77015  0.39997  0.28822  1.0000
  C   C164      1.0  0.77312  0.37186  0.28763  1.0000
  H   H111      1.0  0.77614  0.36313  0.22719  1.0000
  N   N45       1.0  0.61015  0.37206  0.28778  1.0000
  C   C165      1.0  0.63826  0.40312  0.28694  1.0000
  H   H112      1.0  0.64705  0.41472  0.22633  1.0000
  N   N46       1.0  0.87415  0.26793  0.28766  1.0000
  C   C166      1.0  0.90525  0.27094  0.28692  1.0000
  H   H113      1.0  0.91665  0.27349  0.22615  1.0000
  N   N47       1.0  0.74211  0.10809  0.28848  1.0000
  C   C167      1.0  0.73900  0.13612  0.28727  1.0000
  H   H114      1.0  0.73652  0.14498  0.22646  1.0000
  N   N48       1.0  0.90199  0.13577  0.28877  1.0000
  C   C168      1.0  0.87388  0.10470  0.28813  1.0000
  H   H115      1.0  0.86515  0.09293  0.22771  1.0000
  C   C169      1.0  0.96961  0.26195  0.32618  1.0000
  C   C170      1.0  0.93595  0.24554  0.35544  1.0000
  C   C171      1.0  0.92089  0.21107  0.37409  1.0000
  H   H116      1.0  0.98145  0.28742  0.33057  1.0000
  H   H117      1.0  0.89628  0.19899  0.39483  1.0000
  C   C172      1.0  0.59118  0.29703  0.37418  1.0000
  C   C173      1.0  0.57617  0.26254  0.35579  1.0000
  C   C174      1.0  0.54254  0.24606  0.32627  1.0000
  H   H118      1.0  0.61574  0.30912  0.39538  1.0000
  H   H119      1.0  0.53069  0.22060  0.33116  1.0000
  C   C175      1.0  0.74812  0.20967  0.32656  1.0000
  C   C176      1.0  0.76460  0.19243  0.35530  1.0000
  C   C177      1.0  0.79914  0.21182  0.37310  1.0000
  H   H120      1.0  0.72266  0.19607  0.33131  1.0000
  H   H121      1.0  0.81126  0.19934  0.39396  1.0000
  C   C178      1.0  0.71300  0.29614  0.37462  1.0000
  C   C179      1.0  0.74750  0.31560  0.35622  1.0000
  C   C180      1.0  0.76395  0.29842  0.32676  1.0000
  H   H122      1.0  0.70091  0.30862  0.39570  1.0000
  H   H123      1.0  0.78942  0.31206  0.33100  1.0000
  C   C181      1.0  0.80048  0.04054  0.32673  1.0000
  C   C182      1.0  0.81763  0.07414  0.35650  1.0000
  C   C183      1.0  0.79817  0.08916  0.37498  1.0000
  H   H124      1.0  0.81408  0.02868  0.33150  1.0000
  H   H125      1.0  0.81066  0.11374  0.39605  1.0000
  C   C184      1.0  0.71372  0.41876  0.37333  1.0000
  C   C185      1.0  0.69437  0.43394  0.35532  1.0000
  C   C186      1.0  0.71167  0.46767  0.32673  1.0000
  H   H126      1.0  0.70117  0.39413  0.39389  1.0000
  H   H127      1.0  0.69810  0.47956  0.33139  1.0000
  C   C187      1.0  0.65813  0.24787  0.36284  1.0000
  C   C188      1.0  0.59616  0.24717  0.36482  1.0000
  N   N49       1.0  0.61614  0.25470  0.43840  1.0000
  C   C189      1.0  0.64488  0.25319  0.44403  1.0000
  C   C190      1.0  0.66164  0.26017  0.52583  1.0000
  O   O25       1.0  0.65353  0.27307  0.58556  1.0000
  O   O26       1.0  0.66865  0.23671  0.55454  1.0000
  C   C191      1.0  0.70219  0.25003  0.58926  1.0000
  H   H128      1.0  0.70524  0.22896  0.60996  1.0000
  H   H129      1.0  0.70643  0.26596  0.64799  1.0000
  H   H130      1.0  0.72117  0.26425  0.53829  1.0000
  C   C192      1.0  0.76200  0.41215  0.36188  1.0000
  C   C193      1.0  0.76287  0.35099  0.36449  1.0000
  N   N50       1.0  0.75514  0.36340  0.43785  1.0000
  C   C194      1.0  0.75651  0.39359  0.44322  1.0000
  C   C195      1.0  0.74933  0.40338  0.52487  1.0000
  O   O27       1.0  0.73567  0.38201  0.58338  1.0000
  O   O28       1.0  0.77308  0.43369  0.55359  1.0000
  C   C196      1.0  0.76012  0.45416  0.58865  1.0000
  H   H131      1.0  0.78138  0.47817  0.60935  1.0000
  H   H132      1.0  0.74420  0.44258  0.64745  1.0000
  H   H133      1.0  0.74601  0.45916  0.53786  1.0000
  C   C197      1.0  0.59782  0.35190  0.36171  1.0000
  C   C198      1.0  0.65901  0.41406  0.36407  1.0000
  N   N51       1.0  0.64648  0.39403  0.43757  1.0000
  C   C199      1.0  0.61633  0.36517  0.44303  1.0000
  C   C200      1.0  0.60635  0.34846  0.52497  1.0000
  O   O29       1.0  0.62766  0.35644  0.58387  1.0000
  O   O30       1.0  0.57575  0.34094  0.55355  1.0000
  C   C201      1.0  0.55610  0.30750  0.58931  1.0000
  H   H134      1.0  0.53177  0.30400  0.60971  1.0000
  H   H135      1.0  0.56803  0.30384  0.64841  1.0000
  H   H136      1.0  0.55171  0.28840  0.53903  1.0000
  C   C202      1.0  0.85398  0.26019  0.36159  1.0000
  C   C203      1.0  0.91598  0.26094  0.36412  1.0000
  N   N52       1.0  0.89597  0.25348  0.43760  1.0000
  C   C204      1.0  0.86718  0.25492  0.44292  1.0000
  C   C205      1.0  0.85036  0.24799  0.52462  1.0000
  O   O31       1.0  0.85848  0.23519  0.58461  1.0000
  O   O32       1.0  0.84322  0.27140  0.55294  1.0000
  C   C206      1.0  0.80966  0.25801  0.58755  1.0000
  H   H137      1.0  0.80649  0.27905  0.60789  1.0000
  H   H138      1.0  0.80547  0.24219  0.64649  1.0000
  H   H139      1.0  0.79071  0.24365  0.53663  1.0000
  C   C207      1.0  0.74994  0.09582  0.36255  1.0000
  C   C208      1.0  0.74915  0.15707  0.36403  1.0000
  N   N53       1.0  0.75669  0.14467  0.43774  1.0000
  C   C209      1.0  0.75522  0.11445  0.44363  1.0000
  C   C210      1.0  0.76218  0.10473  0.52556  1.0000
  O   O33       1.0  0.77506  0.12580  0.58518  1.0000
  O   O34       1.0  0.73871  0.07428  0.55439  1.0000
  C   C211      1.0  0.75202  0.05410  0.58942  1.0000
  H   H140      1.0  0.73094  0.02999  0.61024  1.0000
  H   H141      1.0  0.76794  0.06584  0.64814  1.0000
  H   H142      1.0  0.76625  0.04929  0.53860  1.0000
  C   C212      1.0  0.91419  0.15614  0.36236  1.0000
  C   C213      1.0  0.85302  0.09415  0.36501  1.0000
  N   N54       1.0  0.86541  0.11425  0.43840  1.0000
  C   C214      1.0  0.89562  0.14306  0.44371  1.0000
  C   C215      1.0  0.90544  0.16001  0.52539  1.0000
  O   O35       1.0  0.88407  0.15233  0.58390  1.0000
  O   O36       1.0  0.93572  0.16650  0.55410  1.0000
  C   C216      1.0  0.95625  0.19991  0.58920  1.0000
  H   H143      1.0  0.98024  0.20260  0.60989  1.0000
  H   H144      1.0  0.94469  0.20427  0.64801  1.0000
  H   H145      1.0  0.96129  0.21904  0.53843  1.0000
  C   C217      1.0  0.98774  0.74479  0.30692  1.0000
  C   C218      1.0  0.93551  0.69149  0.34907  1.0000
  C   C219      1.0  0.96719  0.70851  0.30298  1.0000
  C   C220      1.0  0.52438  0.76317  0.30680  1.0000
  C   C221      1.0  0.54489  0.79945  0.30261  1.0000
  C   C222      1.0  0.57652  0.81654  0.34888  1.0000
  N   N55       1.0  0.97725  0.69024  0.25303  1.0000
  N   N56       1.0  0.53489  0.81764  0.25218  1.0000
  H   H146      1.0  0.49508  0.70134  0.20884  1.0000
  H   H147      1.0  0.96401  0.66599  0.24847  1.0000
  H   H148      1.0  0.54794  0.84192  0.24787  1.0000
  C   C223      1.0  0.76525  0.74494  0.30709  1.0000
  C   C224      1.0  0.81863  0.74601  0.34804  1.0000
  C   C225      1.0  0.80153  0.76070  0.30254  1.0000
  C   C226      1.0  0.74682  0.76315  0.30727  1.0000
  C   C227      1.0  0.71054  0.74737  0.30323  1.0000
  C   C228      1.0  0.69347  0.76195  0.34946  1.0000
  N   N57       1.0  0.81971  0.78901  0.25251  1.0000
  N   N58       1.0  0.69230  0.71914  0.25299  1.0000
  H   H149      1.0  0.80852  0.79572  0.20855  1.0000
  H   H150      1.0  0.84394  0.79992  0.24737  1.0000
  H   H151      1.0  0.66802  0.70792  0.24879  1.0000
  H   H152      1.0  0.70338  0.71229  0.20906  1.0000
  C   C229      1.0  0.76520  0.52241  0.30731  1.0000
  C   C230      1.0  0.76405  0.57459  0.34929  1.0000
  C   C231      1.0  0.74945  0.54293  0.30313  1.0000
  C   C232      1.0  0.74695  0.98577  0.30732  1.0000
  C   C233      1.0  0.76267  0.96521  0.30294  1.0000
  C   C234      1.0  0.74793  0.93341  0.34847  1.0000
  N   N59       1.0  0.72122  0.53291  0.25287  1.0000
  N   N60       1.0  0.79101  0.97532  0.25306  1.0000
  H   H153      1.0  0.71451  0.01504  0.20877  1.0000
  H   H154      1.0  0.71011  0.54606  0.24818  1.0000
  H   H155      1.0  0.80192  0.96201  0.24797  1.0000
  H   H156      1.0  0.79770  0.49318  0.20898  1.0000
  N   N61       1.0  0.63796  0.74002  0.28889  1.0000
  C   C235      1.0  0.60683  0.73695  0.28790  1.0000
  H   H157      1.0  0.59542  0.73444  0.22716  1.0000
  N   N62       1.0  0.77015  0.89997  0.28822  1.0000
  C   C236      1.0  0.77312  0.87186  0.28763  1.0000
  H   H158      1.0  0.77614  0.86313  0.22719  1.0000
  N   N63       1.0  0.61015  0.87206  0.28778  1.0000
  C   C237      1.0  0.63826  0.90312  0.28694  1.0000
  H   H159      1.0  0.64705  0.91472  0.22633  1.0000
  N   N64       1.0  0.87415  0.76792  0.28766  1.0000
  C   C238      1.0  0.90525  0.77094  0.28692  1.0000
  H   H160      1.0  0.91665  0.77348  0.22615  1.0000
  N   N65       1.0  0.74211  0.60809  0.28848  1.0000
  C   C239      1.0  0.73900  0.63612  0.28727  1.0000
  H   H161      1.0  0.73652  0.64498  0.22646  1.0000
  N   N66       1.0  0.90199  0.63577  0.28877  1.0000
  C   C240      1.0  0.87388  0.60470  0.28813  1.0000
  H   H162      1.0  0.86515  0.59293  0.22771  1.0000
  C   C241      1.0  0.96961  0.76195  0.32618  1.0000
  C   C242      1.0  0.93595  0.74554  0.35544  1.0000
  C   C243      1.0  0.92089  0.71107  0.37409  1.0000
  H   H163      1.0  0.98146  0.78742  0.33057  1.0000
  H   H164      1.0  0.89628  0.69899  0.39483  1.0000
  C   C244      1.0  0.59118  0.79703  0.37418  1.0000
  C   C245      1.0  0.57617  0.76254  0.35579  1.0000
  C   C246      1.0  0.54254  0.74606  0.32627  1.0000
  H   H165      1.0  0.61574  0.80912  0.39538  1.0000
  H   H166      1.0  0.53069  0.72060  0.33116  1.0000
  C   C247      1.0  0.74812  0.70967  0.32656  1.0000
  C   C248      1.0  0.76460  0.69243  0.35530  1.0000
  C   C249      1.0  0.79914  0.71182  0.37310  1.0000
  H   H167      1.0  0.72266  0.69607  0.33131  1.0000
  H   H168      1.0  0.81126  0.69934  0.39396  1.0000
  C   C250      1.0  0.71300  0.79613  0.37462  1.0000
  C   C251      1.0  0.74750  0.81560  0.35622  1.0000
  C   C252      1.0  0.76395  0.79842  0.32676  1.0000
  H   H169      1.0  0.70091  0.80862  0.39570  1.0000
  H   H170      1.0  0.78942  0.81206  0.33100  1.0000
  C   C253      1.0  0.80048  0.54054  0.32673  1.0000
  C   C254      1.0  0.81763  0.57414  0.35650  1.0000
  C   C255      1.0  0.79817  0.58916  0.37498  1.0000
  H   H171      1.0  0.81408  0.52868  0.33150  1.0000
  H   H172      1.0  0.81066  0.61374  0.39605  1.0000
  C   C256      1.0  0.71372  0.91876  0.37333  1.0000
  C   C257      1.0  0.69437  0.93394  0.35532  1.0000
  C   C258      1.0  0.71167  0.96767  0.32673  1.0000
  H   H173      1.0  0.70117  0.89413  0.39389  1.0000
  H   H174      1.0  0.69810  0.97956  0.33139  1.0000
  C   C259      1.0  0.65813  0.74787  0.36284  1.0000
  C   C260      1.0  0.59616  0.74717  0.36482  1.0000
  N   N67       1.0  0.61614  0.75470  0.43840  1.0000
  C   C261      1.0  0.64488  0.75319  0.44403  1.0000
  C   C262      1.0  0.66164  0.76017  0.52583  1.0000
  O   O37       1.0  0.65353  0.77307  0.58556  1.0000
  O   O38       1.0  0.66865  0.73671  0.55454  1.0000
  C   C263      1.0  0.70218  0.75003  0.58926  1.0000
  H   H175      1.0  0.70524  0.72896  0.60996  1.0000
  H   H176      1.0  0.70643  0.76596  0.64799  1.0000
  H   H177      1.0  0.72117  0.76425  0.53829  1.0000
  C   C264      1.0  0.76200  0.91215  0.36188  1.0000
  C   C265      1.0  0.76287  0.85099  0.36449  1.0000
  N   N68       1.0  0.75514  0.86340  0.43785  1.0000
  C   C266      1.0  0.75651  0.89359  0.44322  1.0000
  C   C267      1.0  0.74933  0.90338  0.52487  1.0000
  O   O39       1.0  0.73567  0.88201  0.58338  1.0000
  O   O40       1.0  0.77308  0.93369  0.55359  1.0000
  C   C268      1.0  0.76012  0.95417  0.58865  1.0000
  H   H178      1.0  0.78138  0.97817  0.60935  1.0000
  H   H179      1.0  0.74420  0.94258  0.64745  1.0000
  H   H180      1.0  0.74601  0.95916  0.53786  1.0000
  C   C269      1.0  0.59782  0.85190  0.36171  1.0000
  C   C270      1.0  0.65901  0.91405  0.36407  1.0000
  N   N69       1.0  0.64648  0.89402  0.43757  1.0000
  C   C271      1.0  0.61633  0.86517  0.44303  1.0000
  C   C272      1.0  0.60635  0.84846  0.52497  1.0000
  O   O41       1.0  0.62766  0.85644  0.58387  1.0000
  O   O42       1.0  0.57575  0.84094  0.55355  1.0000
  C   C273      1.0  0.55610  0.80749  0.58931  1.0000
  H   H181      1.0  0.53177  0.80400  0.60971  1.0000
  H   H182      1.0  0.56804  0.80384  0.64841  1.0000
  H   H183      1.0  0.55171  0.78840  0.53903  1.0000
  C   C274      1.0  0.85397  0.76019  0.36159  1.0000
  C   C275      1.0  0.91598  0.76094  0.36412  1.0000
  N   N70       1.0  0.89597  0.75348  0.43760  1.0000
  C   C276      1.0  0.86718  0.75492  0.44292  1.0000
  C   C277      1.0  0.85036  0.74799  0.52462  1.0000
  O   O43       1.0  0.85848  0.73519  0.58461  1.0000
  O   O44       1.0  0.84322  0.77140  0.55294  1.0000
  C   C278      1.0  0.80966  0.75801  0.58755  1.0000
  H   H184      1.0  0.80649  0.77905  0.60789  1.0000
  H   H185      1.0  0.80547  0.74219  0.64649  1.0000
  H   H186      1.0  0.79071  0.74365  0.53663  1.0000
  C   C279      1.0  0.74994  0.59583  0.36255  1.0000
  C   C280      1.0  0.74915  0.65707  0.36403  1.0000
  N   N71       1.0  0.75669  0.64467  0.43774  1.0000
  C   C281      1.0  0.75522  0.61445  0.44363  1.0000
  C   C282      1.0  0.76218  0.60473  0.52556  1.0000
  O   O45       1.0  0.77506  0.62580  0.58518  1.0000
  O   O46       1.0  0.73871  0.57428  0.55439  1.0000
  C   C283      1.0  0.75202  0.55410  0.58942  1.0000
  H   H187      1.0  0.73094  0.52999  0.61024  1.0000
  H   H188      1.0  0.76794  0.56584  0.64814  1.0000
  H   H189      1.0  0.76625  0.54929  0.53860  1.0000
  C   C284      1.0  0.91419  0.65614  0.36236  1.0000
  C   C285      1.0  0.85302  0.59415  0.36501  1.0000
  N   N72       1.0  0.86541  0.61425  0.43840  1.0000
  C   C286      1.0  0.89562  0.64306  0.44371  1.0000
  C   C287      1.0  0.90544  0.66001  0.52539  1.0000
  O   O47       1.0  0.88407  0.65233  0.58390  1.0000
  O   O48       1.0  0.93572  0.66650  0.55410  1.0000
  C   C288      1.0  0.95625  0.69991  0.58920  1.0000
  H   H190      1.0  0.98024  0.70260  0.60989  1.0000
  H   H191      1.0  0.94469  0.70427  0.64801  1.0000
  H   H192      1.0  0.96129  0.71905  0.53843  1.0000
