data_image0
_chemical_formula_structural       C3NC3NC5NC5NC36H26N4C2NHCHC2NHCHC16H16CNCHCHCNCHCH
_chemical_formula_sum              "C80 N12 H50"
_cell_length_a       34.3959
_cell_length_b       34.394
_cell_length_c       14.7664
_cell_angle_alpha    90
_cell_angle_beta     90
_cell_angle_gamma    90.066

_space_group_name_H-M_alt    "P 1"
_space_group_IT_number       1

loop_
  _space_group_symop_operation_xyz
  'x, y, z'

loop_
  _atom_site_type_symbol
  _atom_site_label
  _atom_site_symmetry_multiplicity
  _atom_site_fract_x
  _atom_site_fract_y
  _atom_site_fract_z
  _atom_site_occupancy
  C   C1        1.0  0.93317  0.90623  0.32693  1.0000
  C   C2        1.0  0.90448  0.93434  0.32687  1.0000
  C   C3        1.0  0.92225  0.97090  0.32635  1.0000
  N   N1        1.0  0.96106  0.96340  0.32634  1.0000
  C   C4        1.0  0.96936  0.92474  0.32686  1.0000
  C   C5        1.0  0.00598  0.90522  0.32707  1.0000
  C   C6        1.0  0.04261  0.92459  0.32681  1.0000
  N   N2        1.0  0.04992  0.96333  0.32664  1.0000
  C   C7        1.0  0.08850  0.97142  0.32705  1.0000
  C   C8        1.0  0.10716  0.93536  0.32720  1.0000
  C   C9        1.0  0.07902  0.90665  0.32732  1.0000
  C   C10       1.0  0.10714  0.00844  0.32713  1.0000
  C   C11       1.0  0.08689  0.04465  0.32676  1.0000
  N   N3        1.0  0.04807  0.05217  0.32661  1.0000
  C   C12       1.0  0.03977  0.09082  0.32671  1.0000
  C   C13       1.0  0.07597  0.10933  0.32662  1.0000
  C   C14       1.0  0.10466  0.08121  0.32699  1.0000
  C   C15       1.0  0.00315  0.11034  0.32655  1.0000
  C   C16       1.0  0.96651  0.09096  0.32638  1.0000
  N   N4        1.0  0.95920  0.05222  0.32654  1.0000
  C   C17       1.0  0.92062  0.04413  0.32653  1.0000
  C   C18       1.0  0.90195  0.08017  0.32625  1.0000
  C   C19       1.0  0.93009  0.10889  0.32648  1.0000
  C   C20       1.0  0.90199  0.00711  0.32640  1.0000
  C   C21       1.0  0.86019  0.00635  0.32611  1.0000
  C   C22       1.0  0.77625  0.00543  0.32511  1.0000
  C   C23       1.0  0.79817  0.00116  0.24425  1.0000
  C   C24       1.0  0.83921  0.00165  0.24455  1.0000
  C   C25       1.0  0.73420  0.00522  0.32449  1.0000
  C   C26       1.0  0.71272  0.98051  0.26589  1.0000
  C   C27       1.0  0.67167  0.98075  0.26422  1.0000
  C   C28       1.0  0.65010  0.00528  0.32202  1.0000
  C   C29       1.0  0.00304  0.15215  0.32628  1.0000
  C   C30       1.0  0.00242  0.23609  0.32565  1.0000
  C   C31       1.0  0.99796  0.21424  0.24472  1.0000
  C   C32       1.0  0.99828  0.17320  0.24486  1.0000
  C   C33       1.0  0.00218  0.27814  0.32525  1.0000
  C   C34       1.0  0.00214  0.36224  0.32323  1.0000
  C   C35       1.0  0.97748  0.34064  0.26568  1.0000
  C   C36       1.0  0.97729  0.29959  0.26713  1.0000
  C   C37       1.0  0.14893  0.00914  0.32864  1.0000
  C   C38       1.0  0.17070  0.01345  0.24809  1.0000
  C   C39       1.0  0.21174  0.01350  0.24982  1.0000
  C   C40       1.0  0.23287  0.00910  0.33180  1.0000
  C   C41       1.0  0.27492  0.00873  0.33339  1.0000
  C   C42       1.0  0.35899  0.00797  0.33714  1.0000
  C   C43       1.0  0.33839  0.03290  0.27794  1.0000
  C   C44       1.0  0.29734  0.03317  0.27611  1.0000
  C   C45       1.0  0.00603  0.86342  0.32862  1.0000
  C   C46       1.0  0.00993  0.84160  0.24807  1.0000
  C   C47       1.0  0.00570  0.77949  0.33214  1.0000
  C   C48       1.0  0.00980  0.80055  0.24997  1.0000
  C   C49       1.0  0.00534  0.73744  0.33394  1.0000
  C   C50       1.0  0.02955  0.71504  0.27619  1.0000
  C   C51       1.0  0.02929  0.67398  0.27818  1.0000
  C   C52       1.0  0.00464  0.65336  0.33804  1.0000
  H   H1        1.0  0.04790  0.65921  0.23661  1.0000
  H   H2        1.0  0.04860  0.72849  0.23318  1.0000
  H   H3        1.0  0.01189  0.78612  0.18963  1.0000
  H   H4        1.0  0.01267  0.85552  0.18713  1.0000
  H   H5        1.0  0.92791  0.87698  0.32717  1.0000
  H   H6        1.0  0.87534  0.92848  0.32730  1.0000
  H   H7        1.0  0.98061  0.98334  0.32611  1.0000
  H   H8        1.0  0.02852  0.03222  0.32663  1.0000
  H   H9        1.0  0.08468  0.87748  0.32773  1.0000
  H   H10       1.0  0.13643  0.93028  0.32732  1.0000
  H   H11       1.0  0.15673  0.01628  0.18725  1.0000
  H   H12       1.0  0.22613  0.01582  0.18946  1.0000
  H   H13       1.0  0.13379  0.08706  0.32728  1.0000
  H   H14       1.0  0.08123  0.13858  0.32648  1.0000
  H   H15       1.0  0.87268  0.08525  0.32601  1.0000
  H   H16       1.0  0.92442  0.13805  0.32661  1.0000
  H   H17       1.0  0.99514  0.15870  0.18476  1.0000
  H   H18       1.0  0.99519  0.22807  0.18377  1.0000
  H   H19       1.0  0.95817  0.28546  0.22549  1.0000
  H   H20       1.0  0.95908  0.35479  0.22232  1.0000
  H   H21       1.0  0.85376  0.99878  0.18445  1.0000
  H   H22       1.0  0.78439  0.99854  0.18319  1.0000
  H   H23       1.0  0.65751  0.96248  0.22051  1.0000
  H   H24       1.0  0.72683  0.96151  0.22401  1.0000
  H   H25       1.0  0.28390  0.05242  0.23360  1.0000
  H   H26       1.0  0.35319  0.05167  0.23671  1.0000
  N   N5        1.0  0.61116  0.00505  0.31505  1.0000
  N   N6        1.0  0.00396  0.61445  0.34549  1.0000
  N   N7        1.0  0.39791  0.00722  0.34438  1.0000
  N   N8        1.0  0.00187  0.40118  0.31637  1.0000
  C   C53       1.0  0.00827  0.54772  0.30867  1.0000
  C   C54       1.0  0.00692  0.51856  0.24107  1.0000
  N   N9        1.0  0.00693  0.48037  0.26543  1.0000
  H   H27       1.0  0.00631  0.52553  0.17378  1.0000
  C   C55       1.0  0.00998  0.58719  0.28713  1.0000
  H   H28       1.0  0.01568  0.59459  0.22337  1.0000
  C   C56       1.0  0.46463  0.01163  0.30756  1.0000
  C   C57       1.0  0.49377  0.01046  0.23990  1.0000
  N   N10       1.0  0.53196  0.01035  0.26421  1.0000
  H   H29       1.0  0.48679  0.01011  0.17261  1.0000
  C   C58       1.0  0.42516  0.01350  0.28612  1.0000
  H   H30       1.0  0.41776  0.01951  0.22253  1.0000
  C   C59       1.0  0.83877  0.01054  0.40717  1.0000
  C   C60       1.0  0.79772  0.01011  0.40652  1.0000
  C   C61       1.0  0.67117  0.03019  0.38044  1.0000
  C   C62       1.0  0.71223  0.03006  0.38168  1.0000
  C   C63       1.0  0.00748  0.17350  0.40740  1.0000
  C   C64       1.0  0.00722  0.21455  0.40690  1.0000
  C   C65       1.0  0.02716  0.30013  0.38216  1.0000
  C   C66       1.0  0.02723  0.34119  0.38119  1.0000
  C   C67       1.0  0.21059  0.00494  0.41218  1.0000
  C   C68       1.0  0.16956  0.00496  0.41081  1.0000
  C   C69       1.0  0.29594  0.98402  0.39277  1.0000
  C   C70       1.0  0.33697  0.98387  0.39509  1.0000
  C   C71       1.0  0.00208  0.84287  0.41097  1.0000
  C   C72       1.0  0.00190  0.80184  0.41251  1.0000
  C   C73       1.0  0.98082  0.67536  0.39657  1.0000
  C   C74       1.0  0.98094  0.71640  0.39407  1.0000
  H   H31       1.0  0.96274  0.66152  0.44125  1.0000
  H   H32       1.0  0.96233  0.73081  0.43636  1.0000
  H   H33       1.0  0.99969  0.78838  0.47405  1.0000
  H   H34       1.0  0.99938  0.85773  0.47070  1.0000
  H   H35       1.0  0.15476  0.00188  0.47052  1.0000
  H   H36       1.0  0.22410  0.00248  0.47360  1.0000
  H   H37       1.0  0.01076  0.15922  0.46772  1.0000
  H   H38       1.0  0.00980  0.22863  0.46762  1.0000
  H   H39       1.0  0.04644  0.35565  0.42196  1.0000
  H   H40       1.0  0.04656  0.28638  0.42370  1.0000
  H   H41       1.0  0.72601  0.04936  0.42350  1.0000
  H   H42       1.0  0.65675  0.04930  0.42144  1.0000
  H   H43       1.0  0.78360  0.01260  0.46718  1.0000
  H   H44       1.0  0.85299  0.01388  0.46757  1.0000
  H   H45       1.0  0.28151  0.96523  0.43467  1.0000
  H   H46       1.0  0.35080  0.96556  0.43925  1.0000
  C   C75       1.0  0.00927  0.49697  0.42052  1.0000
  N   N11       1.0  0.00944  0.53516  0.39614  1.0000
  C   C76       1.0  0.00800  0.46780  0.35290  1.0000
  H   H47       1.0  0.01046  0.49000  0.48775  1.0000
  C   C77       1.0  0.00948  0.42830  0.37413  1.0000
  H   H48       1.0  0.01641  0.42076  0.43712  1.0000
  C   C78       1.0  0.51540  0.01217  0.41936  1.0000
  N   N12       1.0  0.47721  0.01248  0.39503  1.0000
  C   C79       1.0  0.54455  0.01112  0.35169  1.0000
  H   H49       1.0  0.52239  0.01313  0.48660  1.0000
  C   C80       1.0  0.58406  0.01246  0.37294  1.0000
  H   H50       1.0  0.59161  0.01915  0.43607  1.0000
