data_image0
_chemical_formula_structural       C3NC3NC5NC5NC20H18C4H4C3NC2NH2NC3NC2NH2NC8H8C3H2NC3H2N
_chemical_formula_sum              "C64 N12 H38"
_cell_length_a       25.6387
_cell_length_b       25.6385
_cell_length_c       14.5903
_cell_angle_alpha    90
_cell_angle_beta     90
_cell_angle_gamma    90.0372

_space_group_name_H-M_alt    "P 1"
_space_group_IT_number       1

loop_
  _space_group_symop_operation_xyz
  'x, y, z'

loop_
  _atom_site_type_symbol
  _atom_site_label
  _atom_site_symmetry_multiplicity
  _atom_site_fract_x
  _atom_site_fract_y
  _atom_site_fract_z
  _atom_site_occupancy
  C   C1        1.0  0.91847  0.87665  0.34807  1.0000
  C   C2        1.0  0.87946  0.91375  0.34843  1.0000
  C   C3        1.0  0.90260  0.96314  0.34995  1.0000
  N   N1        1.0  0.95474  0.95392  0.35252  1.0000
  C   C4        1.0  0.96656  0.90228  0.35058  1.0000
  C   C5        1.0  0.01606  0.87701  0.34950  1.0000
  C   C6        1.0  0.06481  0.90360  0.35064  1.0000
  N   N2        1.0  0.07374  0.95564  0.35228  1.0000
  C   C7        1.0  0.12529  0.96711  0.35097  1.0000
  C   C8        1.0  0.15114  0.91920  0.34874  1.0000
  C   C9        1.0  0.11401  0.88019  0.34932  1.0000
  C   C10       1.0  0.14932  0.01712  0.34992  1.0000
  C   C11       1.0  0.12150  0.06529  0.35080  1.0000
  N   N3        1.0  0.06935  0.07452  0.35275  1.0000
  C   C12       1.0  0.05754  0.12615  0.35023  1.0000
  C   C13       1.0  0.10564  0.15178  0.34818  1.0000
  C   C14       1.0  0.14464  0.11467  0.34923  1.0000
  C   C15       1.0  0.00805  0.15143  0.34825  1.0000
  C   C16       1.0  0.95929  0.12484  0.34905  1.0000
  N   N4        1.0  0.95035  0.07280  0.35103  1.0000
  C   C17       1.0  0.89881  0.06133  0.34936  1.0000
  C   C18       1.0  0.87297  0.10923  0.34638  1.0000
  C   C19       1.0  0.91010  0.14824  0.34698  1.0000
  C   C20       1.0  0.87478  0.01131  0.34841  1.0000
  C   C21       1.0  0.81910  0.00930  0.34030  1.0000
  C   C22       1.0  0.70817  0.00044  0.32364  1.0000
  C   C23       1.0  0.74131  0.99165  0.24754  1.0000
  C   C24       1.0  0.79582  0.99638  0.25548  1.0000
  C   C25       1.0  0.00694  0.20712  0.34002  1.0000
  C   C26       1.0  0.99880  0.31809  0.32340  1.0000
  C   C27       1.0  0.99043  0.28503  0.24702  1.0000
  C   C28       1.0  0.99481  0.23050  0.25495  1.0000
  C   C29       1.0  0.20500  0.01912  0.34193  1.0000
  C   C30       1.0  0.22832  0.03182  0.25705  1.0000
  C   C31       1.0  0.28283  0.03660  0.24919  1.0000
  C   C32       1.0  0.31593  0.02797  0.32540  1.0000
  C   C33       1.0  0.01722  0.82131  0.34141  1.0000
  C   C34       1.0  0.02968  0.79790  0.25650  1.0000
  C   C35       1.0  0.02576  0.71037  0.32510  1.0000
  C   C36       1.0  0.03426  0.74338  0.24873  1.0000
  H   H1        1.0  0.04453  0.72804  0.18647  1.0000
  H   H2        1.0  0.03686  0.82056  0.20009  1.0000
  H   H3        1.0  0.91199  0.83734  0.34570  1.0000
  H   H4        1.0  0.84053  0.90524  0.34672  1.0000
  H   H5        1.0  0.98055  0.98106  0.35385  1.0000
  H   H6        1.0  0.04353  0.04738  0.35358  1.0000
  H   H7        1.0  0.12226  0.84121  0.34788  1.0000
  H   H8        1.0  0.19048  0.91293  0.34662  1.0000
  H   H9        1.0  0.20562  0.03893  0.20069  1.0000
  H   H10       1.0  0.29812  0.04692  0.18691  1.0000
  H   H11       1.0  0.18358  0.12318  0.34784  1.0000
  H   H12       1.0  0.11214  0.19108  0.34540  1.0000
  H   H13       1.0  0.83364  0.11549  0.34372  1.0000
  H   H14       1.0  0.90185  0.18722  0.34505  1.0000
  H   H15       1.0  0.98779  0.20783  0.19851  1.0000
  H   H16       1.0  0.98045  0.30037  0.18461  1.0000
  H   H17       1.0  0.81856  0.98918  0.19919  1.0000
  H   H18       1.0  0.72605  0.98118  0.18530  1.0000
  C   C37       1.0  0.99093  0.37155  0.31396  1.0000
  C   C38       1.0  0.36938  0.03595  0.31596  1.0000
  C   C39       1.0  0.03385  0.65694  0.31585  1.0000
  C   C40       1.0  0.65470  0.99249  0.31418  1.0000
  H   H19       1.0  0.96400  0.38337  0.26940  1.0000
  H   H20       1.0  0.38118  0.06319  0.27192  1.0000
  H   H21       1.0  0.06118  0.64520  0.27195  1.0000
  H   H22       1.0  0.64287  0.96546  0.26977  1.0000
  C   C41       1.0  0.01430  0.45827  0.35356  1.0000
  C   C42       1.0  0.01379  0.48659  0.27003  1.0000
  C   C43       1.0  0.01106  0.54211  0.27030  1.0000
  N   N5        1.0  0.00924  0.56704  0.18793  1.0000
  C   C44       1.0  0.01080  0.54192  0.10619  1.0000
  C   C45       1.0  0.01476  0.48734  0.10594  1.0000
  N   N6        1.0  0.01597  0.46195  0.18743  1.0000
  H   H23       1.0  0.00952  0.56253  0.04634  1.0000
  H   H24       1.0  0.01631  0.46693  0.04589  1.0000
  N   N7        1.0  0.01712  0.40619  0.35847  1.0000
  C   C46       1.0  0.56799  0.01598  0.35357  1.0000
  C   C47       1.0  0.53965  0.01533  0.27006  1.0000
  C   C48       1.0  0.48412  0.01273  0.27039  1.0000
  N   N8        1.0  0.45917  0.01079  0.18805  1.0000
  C   C49       1.0  0.48427  0.01211  0.10629  1.0000
  C   C50       1.0  0.53887  0.01593  0.10597  1.0000
  N   N9        1.0  0.56429  0.01726  0.18743  1.0000
  H   H25       1.0  0.46364  0.01074  0.04646  1.0000
  H   H26       1.0  0.55926  0.01728  0.04589  1.0000
  N   N10       1.0  0.62006  0.01877  0.35846  1.0000
  C   C51       1.0  0.78623  0.01868  0.41636  1.0000
  C   C52       1.0  0.73154  0.01455  0.40805  1.0000
  C   C53       1.0  0.01594  0.23990  0.41637  1.0000
  C   C54       1.0  0.01214  0.29461  0.40809  1.0000
  C   C55       1.0  0.29253  0.01409  0.40990  1.0000
  C   C56       1.0  0.23784  0.00995  0.41814  1.0000
  C   C57       1.0  0.00804  0.78855  0.41772  1.0000
  C   C58       1.0  0.01199  0.73384  0.40957  1.0000
  H   H27       1.0  0.00639  0.71139  0.46675  1.0000
  H   H28       1.0  0.99939  0.80443  0.48026  1.0000
  H   H29       1.0  0.22203  0.00097  0.48060  1.0000
  H   H30       1.0  0.31503  0.00830  0.46693  1.0000
  H   H31       1.0  0.02438  0.22404  0.47902  1.0000
  H   H32       1.0  0.01769  0.31708  0.46526  1.0000
  H   H33       1.0  0.70901  0.02043  0.46504  1.0000
  H   H34       1.0  0.80200  0.02777  0.47880  1.0000
  C   C59       1.0  0.01019  0.57016  0.35409  1.0000
  C   C60       1.0  0.01067  0.54154  0.43674  1.0000
  C   C61       1.0  0.01343  0.48663  0.43648  1.0000
  H   H35       1.0  0.01405  0.46729  0.49787  1.0000
  H   H36       1.0  0.00971  0.56068  0.49830  1.0000
  N   N11       1.0  0.00724  0.62222  0.35938  1.0000
  C   C62       1.0  0.45609  0.01213  0.35420  1.0000
  C   C63       1.0  0.48473  0.01272  0.43683  1.0000
  C   C64       1.0  0.53964  0.01536  0.43651  1.0000
  H   H37       1.0  0.55900  0.01610  0.49789  1.0000
  H   H38       1.0  0.46559  0.01196  0.49841  1.0000
  N   N12       1.0  0.40403  0.00932  0.35955  1.0000
