data_image0
_chemical_formula_structural       C4N2O4C2H2C2H2C2H2C4N2O4C4N2O4C4N2O4C4N2O4C2H2C2H2C4N2O4C4N2O4C2H2C2H2C4N2O4C4N2O4C2H2C2H2C4N2O4C4N2O4C2H2C2H2C2H2C4N2O4CNCNCNCNCNCNCNCNCNCNCNCNCNCNCNCNCNCNCNCNCNCNCNCNCNCNCNCNCNCNCNCNCNCNCNCNCNCNCNCNCNCNCNCNCNCNCNCNC2H2C4N2O4C4N2O4C4N2O4C2H2C2H2C2H2C2H2C4N2O4C4N2O4C2H2C2H2C4N2O4C4N2O4C2H2C2H2C4N2O4C4N2O4C2H2C2H2C4N2O4C4N2O4C4N2O4C2H2
_chemical_formula_sum              "C192 N96 O96 H48"
_cell_length_a       54.2321
_cell_length_b       27.9609
_cell_length_c       14.8247
_cell_angle_alpha    90
_cell_angle_beta     90
_cell_angle_gamma    90

_space_group_name_H-M_alt    "P 1"
_space_group_IT_number       1

loop_
  _space_group_symop_operation_xyz
  'x, y, z'

loop_
  _atom_site_type_symbol
  _atom_site_label
  _atom_site_symmetry_multiplicity
  _atom_site_fract_x
  _atom_site_fract_y
  _atom_site_fract_z
  _atom_site_occupancy
  C   C1        1.0  0.51831  0.55102  0.34281  1.0000
  C   C2        1.0  0.49394  0.45977  0.33264  1.0000
  C   C3        1.0  0.51614  0.46852  0.28309  1.0000
  C   C4        1.0  0.52839  0.51386  0.28871  1.0000
  N   N1        1.0  0.52468  0.43158  0.22531  1.0000
  N   N2        1.0  0.55015  0.52499  0.23985  1.0000
  O   O1        1.0  0.52318  0.44099  0.14275  1.0000
  O   O2        1.0  0.54755  0.52535  0.15578  1.0000
  O   O3        1.0  0.54552  0.41519  0.24523  1.0000
  O   O4        1.0  0.56862  0.50086  0.26268  1.0000
  C   C5        1.0  0.98449  0.01467  0.30163  1.0000
  C   C6        1.0  0.99648  0.97022  0.29699  1.0000
  H   H1        1.0  0.98944  0.94483  0.25442  1.0000
  H   H2        1.0  0.96944  0.02019  0.26131  1.0000
  C   C7        1.0  0.40381  0.37617  0.31157  1.0000
  C   C8        1.0  0.37877  0.36250  0.31140  1.0000
  H   H3        1.0  0.36696  0.38037  0.26941  1.0000
  H   H4        1.0  0.40923  0.40316  0.26937  1.0000
  C   C9        1.0  0.60639  0.63719  0.31272  1.0000
  C   C10       1.0  0.63147  0.65055  0.31140  1.0000
  H   H5        1.0  0.64316  0.63202  0.27002  1.0000
  H   H6        1.0  0.60085  0.60962  0.27209  1.0000
  C   C11       1.0  0.08881  0.84935  0.32673  1.0000
  C   C12       1.0  0.14018  0.82192  0.32950  1.0000
  C   C13       1.0  0.12294  0.79742  0.27310  1.0000
  C   C14       1.0  0.09761  0.81096  0.27171  1.0000
  N   N3        1.0  0.12960  0.75951  0.21406  1.0000
  N   N4        1.0  0.08236  0.78497  0.21103  1.0000
  O   O5        1.0  0.13258  0.72010  0.25317  1.0000
  O   O6        1.0  0.06985  0.81044  0.15827  1.0000
  O   O7        1.0  0.14719  0.76896  0.16184  1.0000
  O   O8        1.0  0.06945  0.75339  0.24835  1.0000
  C   C15       1.0  0.92153  0.16098  0.32619  1.0000
  C   C16       1.0  0.87026  0.18921  0.32669  1.0000
  C   C17       1.0  0.88776  0.21331  0.27074  1.0000
  C   C18       1.0  0.91303  0.19933  0.27038  1.0000
  N   N5        1.0  0.88143  0.25134  0.21149  1.0000
  N   N6        1.0  0.92857  0.22499  0.21016  1.0000
  O   O9        1.0  0.87851  0.29077  0.25061  1.0000
  O   O10       1.0  0.94143  0.19930  0.15891  1.0000
  O   O11       1.0  0.86393  0.24222  0.15869  1.0000
  O   O12       1.0  0.94118  0.25705  0.24745  1.0000
  C   C19       1.0  0.50311  0.28926  0.32090  1.0000
  C   C20       1.0  0.53395  0.20684  0.31151  1.0000
  C   C21       1.0  0.51386  0.21228  0.25045  1.0000
  C   C22       1.0  0.49835  0.25328  0.25514  1.0000
  N   N7        1.0  0.50983  0.17566  0.18557  1.0000
  N   N8        1.0  0.47897  0.25603  0.19097  1.0000
  O   O13       1.0  0.51229  0.19035  0.10600  1.0000
  O   O14       1.0  0.47926  0.29370  0.14476  1.0000
  O   O15       1.0  0.48916  0.15587  0.19459  1.0000
  O   O16       1.0  0.45800  0.24905  0.22429  1.0000
  C   C23       1.0  0.50631  0.72117  0.32682  1.0000
  C   C24       1.0  0.47564  0.80387  0.31884  1.0000
  C   C25       1.0  0.49510  0.79768  0.25536  1.0000
  C   C26       1.0  0.51052  0.75655  0.25938  1.0000
  N   N9        1.0  0.49861  0.83378  0.18905  1.0000
  N   N10       1.0  0.52931  0.75315  0.19296  1.0000
  O   O17       1.0  0.49542  0.81852  0.11021  1.0000
  O   O18       1.0  0.52874  0.71490  0.14852  1.0000
  O   O19       1.0  0.51938  0.85351  0.19507  1.0000
  O   O20       1.0  0.55056  0.76094  0.22311  1.0000
  C   C27       1.0  0.98590  0.78556  0.30481  1.0000
  C   C28       1.0  0.97093  0.74456  0.30834  1.0000
  H   H7        1.0  0.95741  0.74042  0.26077  1.0000
  H   H8        1.0  0.98254  0.81034  0.25548  1.0000
  C   C29       1.0  0.02423  0.22635  0.31393  1.0000
  C   C30       1.0  0.03930  0.26719  0.31793  1.0000
  H   H9        1.0  0.05320  0.27076  0.27171  1.0000
  H   H10       1.0  0.02791  0.20112  0.26574  1.0000
  C   C31       1.0  0.30656  0.09017  0.32993  1.0000
  C   C32       1.0  0.31218  0.19291  0.33228  1.0000
  C   C33       1.0  0.32352  0.16482  0.26338  1.0000
  C   C34       1.0  0.32074  0.11410  0.26224  1.0000
  N   N11       1.0  0.33766  0.18506  0.19231  1.0000
  N   N12       1.0  0.33233  0.08978  0.18947  1.0000
  O   O21       1.0  0.35839  0.19996  0.21737  1.0000
  O   O22       1.0  0.31832  0.06192  0.14704  1.0000
  O   O23       1.0  0.32638  0.21681  0.14877  1.0000
  O   O24       1.0  0.35208  0.06933  0.21084  1.0000
  C   C35       1.0  0.70385  0.92236  0.32533  1.0000
  C   C36       1.0  0.69851  0.81962  0.32786  1.0000
  C   C37       1.0  0.68716  0.84752  0.25873  1.0000
  C   C38       1.0  0.68979  0.89826  0.25749  1.0000
  N   N13       1.0  0.67312  0.82708  0.18756  1.0000
  N   N14       1.0  0.67821  0.92242  0.18454  1.0000
  O   O25       1.0  0.65241  0.81201  0.21243  1.0000
  O   O26       1.0  0.69220  0.95033  0.14216  1.0000
  O   O27       1.0  0.68452  0.79536  0.14433  1.0000
  O   O28       1.0  0.65842  0.94279  0.20572  1.0000
  C   C39       1.0  0.21605  0.61826  0.29989  1.0000
  C   C40       1.0  0.21354  0.66852  0.29898  1.0000
  H   H11       1.0  0.22191  0.68736  0.24834  1.0000
  H   H12       1.0  0.22601  0.60240  0.24946  1.0000
  C   C41       1.0  0.79420  0.39343  0.29580  1.0000
  C   C42       1.0  0.79685  0.34319  0.29478  1.0000
  H   H13       1.0  0.78840  0.32428  0.24441  1.0000
  H   H14       1.0  0.78412  0.40922  0.24562  1.0000
  C   C43       1.0  0.24240  0.42847  0.32732  1.0000
  C   C44       1.0  0.28180  0.35820  0.33395  1.0000
  C   C45       1.0  0.26035  0.35035  0.27989  1.0000
  C   C46       1.0  0.24108  0.38521  0.27631  1.0000
  N   N15       1.0  0.25699  0.30949  0.22444  1.0000
  N   N16       1.0  0.22024  0.37834  0.21969  1.0000
  O   O29       1.0  0.25155  0.27222  0.26736  1.0000
  O   O30       1.0  0.20760  0.34244  0.24147  1.0000
  O   O31       1.0  0.27404  0.30233  0.16864  1.0000
  O   O32       1.0  0.22571  0.37646  0.13740  1.0000
  C   C47       1.0  0.76786  0.58348  0.32305  1.0000
  C   C48       1.0  0.72858  0.65406  0.33010  1.0000
  C   C49       1.0  0.75001  0.66175  0.27584  1.0000
  C   C50       1.0  0.76922  0.62676  0.27207  1.0000
  N   N17       1.0  0.75345  0.70263  0.22050  1.0000
  N   N18       1.0  0.79004  0.63352  0.21529  1.0000
  O   O33       1.0  0.75903  0.73980  0.26344  1.0000
  O   O34       1.0  0.80276  0.66932  0.23706  1.0000
  O   O35       1.0  0.73641  0.70998  0.16477  1.0000
  O   O36       1.0  0.78452  0.63549  0.13303  1.0000
  C   C51       1.0  0.24605  0.93664  0.31679  1.0000
  C   C52       1.0  0.22695  0.90241  0.31377  1.0000
  H   H15       1.0  0.21198  0.90971  0.27410  1.0000
  H   H16       1.0  0.24427  0.96692  0.27859  1.0000
  C   C53       1.0  0.76423  0.07566  0.31179  1.0000
  C   C54       1.0  0.78338  0.10979  0.30889  1.0000
  H   H17       1.0  0.79832  0.10249  0.26910  1.0000
  H   H18       1.0  0.76596  0.04545  0.27337  1.0000
  C   C55       1.0  0.15459  0.44829  0.34011  1.0000
  C   C56       1.0  0.10594  0.41036  0.34551  1.0000
  C   C57       1.0  0.11791  0.41739  0.26104  1.0000
  C   C58       1.0  0.14229  0.43608  0.25834  1.0000
  N   N19       1.0  0.10641  0.40721  0.17715  1.0000
  N   N20       1.0  0.15272  0.44379  0.17179  1.0000
  O   O37       1.0  0.08811  0.43358  0.16208  1.0000
  O   O38       1.0  0.17160  0.41886  0.15889  1.0000
  O   O39       1.0  0.10009  0.36411  0.17085  1.0000
  O   O40       1.0  0.15764  0.48703  0.15732  1.0000
  C   C59       1.0  0.85566  0.56337  0.33489  1.0000
  C   C60       1.0  0.90438  0.60094  0.33999  1.0000
  C   C61       1.0  0.89231  0.59425  0.25560  1.0000
  C   C62       1.0  0.86790  0.57569  0.25306  1.0000
  N   N21       1.0  0.90375  0.60455  0.17167  1.0000
  N   N22       1.0  0.85740  0.56815  0.16657  1.0000
  O   O41       1.0  0.92206  0.57822  0.15636  1.0000
  O   O42       1.0  0.83855  0.59319  0.15397  1.0000
  O   O43       1.0  0.91005  0.64767  0.16550  1.0000
  O   O44       1.0  0.85242  0.52496  0.15191  1.0000
  C   C63       1.0  0.36790  0.94209  0.27240  1.0000
  C   C64       1.0  0.39195  0.92359  0.27002  1.0000
  H   H19       1.0  0.40068  0.92082  0.20899  1.0000
  H   H20       1.0  0.35964  0.95159  0.21291  1.0000
  C   C65       1.0  0.64253  0.07102  0.26686  1.0000
  C   C66       1.0  0.61845  0.08940  0.26451  1.0000
  H   H21       1.0  0.60979  0.09248  0.20341  1.0000
  H   H22       1.0  0.65087  0.06192  0.20732  1.0000
  C   C67       1.0  0.99636  0.52353  0.27351  1.0000
  C   C68       1.0  0.01476  0.48844  0.27471  1.0000
  H   H23       1.0  0.02131  0.47549  0.21469  1.0000
  H   H24       1.0  0.99027  0.53620  0.21265  1.0000
  C   C69       1.0  0.52394  0.04021  0.33340  1.0000
  C   C70       1.0  0.48661  0.97042  0.33596  1.0000
  C   C71       1.0  0.49548  0.98736  0.25166  1.0000
  C   C72       1.0  0.51425  0.02318  0.25038  1.0000
  N   N23       1.0  0.48448  0.96785  0.17293  1.0000
  N   N24       1.0  0.52454  0.04252  0.17020  1.0000
  O   O45       1.0  0.47211  0.99776  0.12901  1.0000
  O   O46       1.0  0.50923  0.06362  0.12086  1.0000
  O   O47       1.0  0.49934  0.94657  0.12207  1.0000
  O   O48       1.0  0.53654  0.01251  0.12517  1.0000
  C   C73       1.0  0.44722  0.36186  0.35232  1.0000
  N   N25       1.0  0.45726  0.40677  0.34762  1.0000
  C   C74       1.0  0.48214  0.41383  0.33617  1.0000
  N   N26       1.0  0.49665  0.37431  0.33043  1.0000
  C   C75       1.0  0.48751  0.32941  0.33198  1.0000
  N   N27       1.0  0.46289  0.32440  0.34257  1.0000
  C   C76       1.0  0.56316  0.65156  0.35575  1.0000
  N   N28       1.0  0.55373  0.60623  0.35395  1.0000
  C   C77       1.0  0.52890  0.59779  0.34712  1.0000
  N   N29       1.0  0.51355  0.63607  0.33956  1.0000
  C   C78       1.0  0.52221  0.68148  0.33827  1.0000
  N   N30       1.0  0.54684  0.68798  0.34649  1.0000
  C   C79       1.0  0.06313  0.86075  0.33470  1.0000
  N   N31       1.0  0.05364  0.90605  0.33658  1.0000
  C   C80       1.0  0.02877  0.91422  0.34292  1.0000
  N   N32       1.0  0.01345  0.87589  0.35013  1.0000
  C   C81       1.0  0.02220  0.83054  0.35153  1.0000
  N   N33       1.0  0.04685  0.82424  0.34364  1.0000
  C   C82       1.0  0.94720  0.15002  0.33718  1.0000
  N   N34       1.0  0.95706  0.10497  0.34180  1.0000
  C   C83       1.0  0.98189  0.09763  0.35381  1.0000
  N   N35       1.0  0.99659  0.13686  0.36022  1.0000
  C   C84       1.0  0.98759  0.18188  0.35857  1.0000
  N   N36       1.0  0.96300  0.18724  0.34741  1.0000
  C   C85       1.0  0.31631  0.24332  0.34070  1.0000
  N   N37       1.0  0.29778  0.27610  0.33814  1.0000
  C   C86       1.0  0.30177  0.32437  0.34115  1.0000
  N   N38       1.0  0.32572  0.33920  0.34917  1.0000
  C   C87       1.0  0.34504  0.30800  0.35429  1.0000
  N   N39       1.0  0.33959  0.26062  0.34848  1.0000
  C   C88       1.0  0.69436  0.76926  0.33671  1.0000
  N   N40       1.0  0.71280  0.73630  0.33400  1.0000
  C   C89       1.0  0.70868  0.68807  0.33754  1.0000
  N   N41       1.0  0.68470  0.67351  0.34641  1.0000
  C   C90       1.0  0.66548  0.70495  0.35178  1.0000
  N   N42       1.0  0.67106  0.75223  0.34531  1.0000
  C   C91       1.0  0.19429  0.74291  0.35338  1.0000
  N   N43       1.0  0.21274  0.77585  0.35602  1.0000
  C   C92       1.0  0.20865  0.82409  0.35253  1.0000
  N   N44       1.0  0.18467  0.83869  0.34381  1.0000
  C   C93       1.0  0.16543  0.80729  0.33851  1.0000
  N   N45       1.0  0.17099  0.76000  0.34489  1.0000
  C   C94       1.0  0.81631  0.26892  0.34881  1.0000
  N   N46       1.0  0.79779  0.23613  0.35132  1.0000
  C   C95       1.0  0.80179  0.18787  0.34811  1.0000
  N   N47       1.0  0.82574  0.17306  0.33994  1.0000
  C   C96       1.0  0.84506  0.20427  0.33484  1.0000
  N   N48       1.0  0.83959  0.25163  0.34086  1.0000
  C   C97       1.0  0.04607  0.34923  0.36870  1.0000
  N   N49       1.0  0.07094  0.35572  0.36052  1.0000
  C   C98       1.0  0.08046  0.40070  0.35107  1.0000
  N   N50       1.0  0.06506  0.43900  0.34931  1.0000
  C   C99       1.0  0.04040  0.43274  0.35506  1.0000
  N   N51       1.0  0.03127  0.38823  0.36499  1.0000
  C   C100      1.0  0.96404  0.66285  0.36092  1.0000
  N   N52       1.0  0.93919  0.65602  0.35306  1.0000
  C   C101      1.0  0.92982  0.61085  0.34521  1.0000
  N   N53       1.0  0.94533  0.57270  0.34498  1.0000
  C   C102      1.0  0.96998  0.57932  0.35037  1.0000
  N   N54       1.0  0.97898  0.62402  0.35877  1.0000
  C   C103      1.0  0.46387  0.84886  0.32937  1.0000
  N   N55       1.0  0.43903  0.85579  0.33715  1.0000
  C   C104      1.0  0.42971  0.90099  0.34528  1.0000
  N   N56       1.0  0.44527  0.93907  0.34586  1.0000
  C   C105      1.0  0.46991  0.93233  0.34060  1.0000
  N   N57       1.0  0.47885  0.88761  0.33188  1.0000
  C   C106      1.0  0.54605  0.16212  0.32198  1.0000
  N   N58       1.0  0.57092  0.15574  0.33006  1.0000
  C   C107      1.0  0.58050  0.11082  0.33968  1.0000
  N   N59       1.0  0.56515  0.07244  0.34152  1.0000
  C   C108      1.0  0.54047  0.07861  0.33578  1.0000
  N   N60       1.0  0.53130  0.12307  0.32581  1.0000
  C   C109      1.0  0.20340  0.53870  0.35425  1.0000
  N   N61       1.0  0.22382  0.51000  0.34512  1.0000
  C   C110      1.0  0.22194  0.46126  0.33442  1.0000
  N   N62       1.0  0.19880  0.44237  0.33425  1.0000
  C   C111      1.0  0.17824  0.46941  0.34133  1.0000
  N   N63       1.0  0.18093  0.51723  0.35100  1.0000
  C   C112      1.0  0.80683  0.47311  0.34971  1.0000
  N   N64       1.0  0.78641  0.50184  0.34080  1.0000
  C   C113      1.0  0.78829  0.55058  0.32998  1.0000
  N   N65       1.0  0.81145  0.56941  0.32947  1.0000
  C   C114      1.0  0.83200  0.54234  0.33626  1.0000
  N   N66       1.0  0.82930  0.49455  0.34608  1.0000
  C   C115      1.0  0.30678  0.03913  0.34028  1.0000
  N   N67       1.0  0.28636  0.01038  0.34911  1.0000
  C   C116      1.0  0.28826  0.96164  0.35994  1.0000
  N   N68       1.0  0.31141  0.94284  0.36054  1.0000
  C   C117      1.0  0.33197  0.96992  0.35379  1.0000
  N   N69       1.0  0.32926  0.01772  0.34395  1.0000
  C   C118      1.0  0.70354  0.97339  0.33543  1.0000
  N   N70       1.0  0.72395  0.00212  0.34436  1.0000
  C   C119      1.0  0.72204  0.05085  0.35498  1.0000
  N   N71       1.0  0.69889  0.06971  0.35524  1.0000
  C   C120      1.0  0.67835  0.04262  0.34830  1.0000
  N   N72       1.0  0.68106  0.99480  0.33874  1.0000
  C   C121      1.0  0.49584  0.54228  0.38844  1.0000
  C   C122      1.0  0.48400  0.49769  0.38387  1.0000
  H   H25       1.0  0.46824  0.49291  0.42074  1.0000
  H   H26       1.0  0.48801  0.56831  0.42766  1.0000
  C   C123      1.0  0.99347  0.05159  0.35758  1.0000
  C   C124      1.0  0.01809  0.96082  0.34734  1.0000
  C   C125      1.0  0.02709  0.99686  0.40637  1.0000
  C   C126      1.0  0.01471  0.04206  0.41191  1.0000
  N   N73       1.0  0.04783  0.98465  0.46001  1.0000
  N   N74       1.0  0.02200  0.07805  0.47394  1.0000
  O   O49       1.0  0.06666  0.00930  0.44411  1.0000
  O   O50       1.0  0.04316  0.09473  0.46055  1.0000
  O   O51       1.0  0.04351  0.98268  0.54305  1.0000
  O   O52       1.0  0.01897  0.06706  0.55523  1.0000
  C   C127      1.0  0.42152  0.35117  0.36323  1.0000
  C   C128      1.0  0.37024  0.32308  0.36249  1.0000
  C   C129      1.0  0.38763  0.29933  0.41935  1.0000
  C   C130      1.0  0.41291  0.31324  0.41983  1.0000
  N   N75       1.0  0.38119  0.26171  0.47937  1.0000
  N   N76       1.0  0.42836  0.28797  0.48097  1.0000
  O   O53       1.0  0.37827  0.22205  0.44110  1.0000
  O   O54       1.0  0.44118  0.31399  0.53171  1.0000
  O   O55       1.0  0.36362  0.27125  0.53159  1.0000
  O   O56       1.0  0.44098  0.25559  0.44473  1.0000
  C   C131      1.0  0.58884  0.66300  0.36371  1.0000
  C   C132      1.0  0.64022  0.69037  0.36088  1.0000
  C   C133      1.0  0.62297  0.71500  0.41704  1.0000
  C   C134      1.0  0.59764  0.70150  0.41845  1.0000
  N   N77       1.0  0.62963  0.75302  0.47584  1.0000
  N   N78       1.0  0.58237  0.72765  0.47882  1.0000
  O   O57       1.0  0.63262  0.79236  0.43647  1.0000
  O   O58       1.0  0.56985  0.70231  0.53177  1.0000
  O   O59       1.0  0.64721  0.74366  0.52818  1.0000
  O   O60       1.0  0.56945  0.75909  0.44111  1.0000
  C   C135      1.0  0.10635  0.87500  0.37804  1.0000
  C   C136      1.0  0.13142  0.86162  0.37930  1.0000
  H   H27       1.0  0.14313  0.88012  0.42072  1.0000
  H   H28       1.0  0.10081  0.90256  0.41871  1.0000
  C   C137      1.0  0.90373  0.13569  0.37690  1.0000
  C   C138      1.0  0.87871  0.14943  0.37698  1.0000
  H   H29       1.0  0.86682  0.13124  0.41818  1.0000
  H   H30       1.0  0.90906  0.10832  0.41838  1.0000
  C   C139      1.0  0.52419  0.28501  0.37636  1.0000
  C   C140      1.0  0.53930  0.24423  0.37229  1.0000
  H   H31       1.0  0.55324  0.24075  0.41837  1.0000
  H   H32       1.0  0.52793  0.31030  0.42440  1.0000
  C   C141      1.0  0.48582  0.72620  0.38499  1.0000
  C   C142      1.0  0.47079  0.76711  0.38153  1.0000
  H   H33       1.0  0.45737  0.77128  0.42944  1.0000
  H   H34       1.0  0.48258  0.70150  0.43458  1.0000
  C   C143      1.0  0.00638  0.79073  0.36293  1.0000
  C   C144      1.0  0.97584  0.70785  0.37104  1.0000
  C   C145      1.0  0.99532  0.71413  0.43442  1.0000
  C   C146      1.0  0.01068  0.75534  0.43031  1.0000
  N   N79       1.0  0.99889  0.67808  0.50080  1.0000
  N   N80       1.0  0.02947  0.75885  0.49670  1.0000
  O   O61       1.0  0.99570  0.69336  0.57961  1.0000
  O   O62       1.0  0.02886  0.79709  0.54116  1.0000
  O   O63       1.0  0.01968  0.65843  0.49475  1.0000
  O   O64       1.0  0.05073  0.75113  0.46653  1.0000
  C   C147      1.0  0.00325  0.22191  0.36988  1.0000
  C   C148      1.0  0.03404  0.30445  0.37909  1.0000
  C   C149      1.0  0.01404  0.29884  0.44052  1.0000
  C   C150      1.0  0.99856  0.25778  0.43593  1.0000
  N   N81       1.0  0.01007  0.33535  0.50566  1.0000
  N   N82       1.0  0.97929  0.25484  0.50048  1.0000
  O   O65       1.0  0.01266  0.32055  0.58511  1.0000
  O   O66       1.0  0.97968  0.21706  0.54637  1.0000
  O   O67       1.0  0.98937  0.35509  0.49716  1.0000
  O   O68       1.0  0.95825  0.26180  0.46763  1.0000
  C   C151      1.0  0.29426  0.11883  0.39435  1.0000
  C   C152      1.0  0.29693  0.16907  0.39526  1.0000
  H   H35       1.0  0.28862  0.18798  0.44592  1.0000
  H   H36       1.0  0.28430  0.10307  0.44490  1.0000
  C   C153      1.0  0.71617  0.89388  0.38998  1.0000
  C   C154      1.0  0.71363  0.84362  0.39100  1.0000
  H   H37       1.0  0.72190  0.82482  0.44192  1.0000
  H   H38       1.0  0.72603  0.90978  0.44062  1.0000
  C   C155      1.0  0.20369  0.58974  0.36437  1.0000
  C   C156      1.0  0.19840  0.69252  0.36208  1.0000
  C   C157      1.0  0.18698  0.66457  0.43100  1.0000
  C   C158      1.0  0.18959  0.61382  0.43212  1.0000
  N   N83       1.0  0.17292  0.68498  0.50212  1.0000
  N   N84       1.0  0.17795  0.58964  0.50492  1.0000
  O   O69       1.0  0.15221  0.70006  0.47717  1.0000
  O   O70       1.0  0.19189  0.56167  0.54738  1.0000
  O   O71       1.0  0.18430  0.71664  0.54554  1.0000
  O   O72       1.0  0.15815  0.56934  0.48354  1.0000
  C   C159      1.0  0.80663  0.42206  0.35990  1.0000
  C   C160      1.0  0.81221  0.31933  0.35739  1.0000
  C   C161      1.0  0.82367  0.34738  0.42604  1.0000
  C   C162      1.0  0.82092  0.39809  0.42730  1.0000
  N   N85       1.0  0.83793  0.32711  0.49680  1.0000
  N   N86       1.0  0.83263  0.42238  0.49983  1.0000
  O   O73       1.0  0.85864  0.31229  0.47133  1.0000
  O   O74       1.0  0.81874  0.45030  0.54256  1.0000
  O   O75       1.0  0.82673  0.29531  0.54051  1.0000
  O   O76       1.0  0.85240  0.44269  0.47812  1.0000
  C   C163      1.0  0.26419  0.43659  0.37727  1.0000
  C   C164      1.0  0.28335  0.40249  0.38016  1.0000
  H   H39       1.0  0.29831  0.40984  0.41989  1.0000
  H   H40       1.0  0.26591  0.46681  0.41567  1.0000
  C   C165      1.0  0.74609  0.57552  0.37318  1.0000
  C   C166      1.0  0.72699  0.60975  0.37625  1.0000
  H   H41       1.0  0.71205  0.60250  0.41614  1.0000
  H   H42       1.0  0.74434  0.54530  0.41158  1.0000
  C   C167      1.0  0.26784  0.92869  0.36683  1.0000
  C   C168      1.0  0.22855  0.85809  0.35990  1.0000
  C   C169      1.0  0.25001  0.85038  0.41401  1.0000
  C   C170      1.0  0.26922  0.88539  0.41777  1.0000
  N   N87       1.0  0.25347  0.80948  0.46926  1.0000
  N   N88       1.0  0.29004  0.87862  0.47451  1.0000
  O   O77       1.0  0.25902  0.77232  0.42622  1.0000
  O   O78       1.0  0.30277  0.84285  0.45267  1.0000
  O   O79       1.0  0.23645  0.80211  0.52509  1.0000
  O   O80       1.0  0.28454  0.87662  0.55677  1.0000
  C   C171      1.0  0.74248  0.08368  0.36198  1.0000
  C   C172      1.0  0.78184  0.15402  0.35533  1.0000
  C   C173      1.0  0.76041  0.16178  0.40959  1.0000
  C   C174      1.0  0.74116  0.12688  0.41319  1.0000
  N   N89       1.0  0.75706  0.20257  0.46521  1.0000
  N   N90       1.0  0.72035  0.13361  0.47003  1.0000
  O   O81       1.0  0.75159  0.23987  0.42248  1.0000
  O   O82       1.0  0.70767  0.16951  0.44853  1.0000
  O   O83       1.0  0.77414  0.20969  0.52090  1.0000
  O   O84       1.0  0.72588  0.13541  0.55229  1.0000
  C   C175      1.0  0.14241  0.44134  0.42314  1.0000
  C   C176      1.0  0.11836  0.42282  0.42577  1.0000
  H   H43       1.0  0.10968  0.42009  0.48692  1.0000
  H   H44       1.0  0.15071  0.45087  0.48253  1.0000
  C   C177      1.0  0.86794  0.56998  0.41782  1.0000
  C   C178      1.0  0.89202  0.58835  0.42030  1.0000
  H   H45       1.0  0.90076  0.59090  0.48134  1.0000
  H   H46       1.0  0.85969  0.56036  0.47724  1.0000
  C   C179      1.0  0.35562  0.94888  0.35529  1.0000
  C   C180      1.0  0.40427  0.91104  0.35042  1.0000
  C   C181      1.0  0.39222  0.91793  0.43478  1.0000
  C   C182      1.0  0.36784  0.93661  0.43719  1.0000
  N   N91       1.0  0.40365  0.90767  0.51878  1.0000
  N   N92       1.0  0.35734  0.94429  0.52363  1.0000
  O   O85       1.0  0.42197  0.93393  0.53403  1.0000
  O   O86       1.0  0.33845  0.91934  0.53630  1.0000
  O   O87       1.0  0.40989  0.86453  0.52512  1.0000
  O   O88       1.0  0.35240  0.98752  0.53809  1.0000
  C   C183      1.0  0.65469  0.06366  0.34980  1.0000
  C   C184      1.0  0.60598  0.10125  0.34500  1.0000
  C   C185      1.0  0.61796  0.09391  0.42939  1.0000
  C   C186      1.0  0.64237  0.07538  0.43178  1.0000
  N   N93       1.0  0.60643  0.10359  0.51345  1.0000
  N   N94       1.0  0.65284  0.06740  0.51819  1.0000
  O   O89       1.0  0.58820  0.07698  0.52812  1.0000
  O   O90       1.0  0.67170  0.09236  0.53132  1.0000
  O   O91       1.0  0.60000  0.14661  0.52045  1.0000
  O   O92       1.0  0.65780  0.02413  0.53206  1.0000
  C   C187      1.0  0.98662  0.54113  0.35506  1.0000
  C   C188      1.0  0.02384  0.47110  0.35749  1.0000
  C   C189      1.0  0.01426  0.48831  0.44055  1.0000
  C   C190      1.0  0.99555  0.52427  0.43932  1.0000
  N   N95       1.0  0.02457  0.46898  0.52068  1.0000
  N   N96       1.0  0.98469  0.54403  0.51809  1.0000
  O   O93       1.0  0.03663  0.49894  0.56562  1.0000
  O   O94       1.0  0.99966  0.56536  0.56844  1.0000
  O   O95       1.0  0.00926  0.44795  0.57010  1.0000
  O   O96       1.0  0.97234  0.51429  0.56252  1.0000
  C   C191      1.0  0.51492  0.02280  0.41622  1.0000
  C   C192      1.0  0.49647  0.98781  0.41747  1.0000
  H   H47       1.0  0.49041  0.97509  0.47834  1.0000
  H   H48       1.0  0.52153  0.03566  0.47622  1.0000
