data_image0
_chemical_formula_structural       C2N2C2NC2NC2NC2NC2N2C2N2C2N2C2N2C2N2C2N2C2NC24H15C24H15C24H15C24H15C24H15C24H15C2N2C2N2C2NC2NC2NC2NC2NC2NC2NC2NC2NC2NC2NC2NC2N
_chemical_formula_sum              "C198 N36 H90"
_cell_length_a       61.3723
_cell_length_b       61.3724
_cell_length_c       14.9884
_cell_angle_alpha    90
_cell_angle_beta     90
_cell_angle_gamma    120

_space_group_name_H-M_alt    "P 1"
_space_group_IT_number       1

loop_
  _space_group_symop_operation_xyz
  'x, y, z'

loop_
  _atom_site_type_symbol
  _atom_site_label
  _atom_site_symmetry_multiplicity
  _atom_site_fract_x
  _atom_site_fract_y
  _atom_site_fract_z
  _atom_site_occupancy
  C   C1        1.0  0.01059  0.50614  0.24865  1.0000
  C   C2        1.0  0.01784  0.50830  0.16603  1.0000
  N   N1        1.0  0.01577  0.50855  0.40529  1.0000
  N   N2        1.0  0.02415  0.51011  0.09295  1.0000
  C   C3        1.0  0.02693  0.51436  0.32352  1.0000
  C   C4        1.0  0.97425  0.48797  0.34503  1.0000
  N   N3        1.0  0.98541  0.49334  0.26327  1.0000
  C   C5        1.0  0.48664  0.51280  0.32348  1.0000
  C   C6        1.0  0.51301  0.48648  0.34500  1.0000
  N   N4        1.0  0.50765  0.49229  0.26324  1.0000
  C   C7        1.0  0.49489  0.50471  0.24861  1.0000
  C   C8        1.0  0.49269  0.50976  0.16598  1.0000
  N   N5        1.0  0.49084  0.51422  0.09290  1.0000
  C   C9        1.0  0.48811  0.97402  0.32354  1.0000
  C   C10       1.0  0.51441  0.02670  0.34509  1.0000
  N   N6        1.0  0.50862  0.01555  0.26332  1.0000
  C   C11       1.0  0.49620  0.99037  0.24869  1.0000
  C   C12       1.0  0.49117  0.98312  0.16604  1.0000
  N   N7        1.0  0.48672  0.97681  0.09295  1.0000
  N   N8        1.0  0.25584  0.53640  0.26627  1.0000
  C   C13       1.0  0.27776  0.53637  0.25499  1.0000
  C   C14       1.0  0.28918  0.54505  0.17925  1.0000
  N   N9        1.0  0.29917  0.55269  0.11218  1.0000
  N   N10       1.0  0.46473  0.71970  0.26616  1.0000
  C   C15       1.0  0.46477  0.74166  0.25484  1.0000
  C   C16       1.0  0.45610  0.74439  0.17907  1.0000
  N   N11       1.0  0.44847  0.74675  0.11197  1.0000
  N   N12       1.0  0.28128  0.74522  0.26622  1.0000
  C   C17       1.0  0.25932  0.72330  0.25498  1.0000
  C   C18       1.0  0.25665  0.71187  0.17930  1.0000
  N   N13       1.0  0.25434  0.70187  0.11229  1.0000
  N   N14       1.0  0.75103  0.47714  0.26252  1.0000
  C   C19       1.0  0.72976  0.47847  0.25287  1.0000
  C   C20       1.0  0.72603  0.48567  0.17558  1.0000
  N   N15       1.0  0.72275  0.49199  0.10725  1.0000
  N   N16       1.0  0.52377  0.27405  0.26258  1.0000
  C   C21       1.0  0.52244  0.25145  0.25292  1.0000
  C   C22       1.0  0.51533  0.24056  0.17554  1.0000
  N   N17       1.0  0.50908  0.23099  0.10712  1.0000
  N   N18       1.0  0.72689  0.24986  0.26272  1.0000
  C   C23       1.0  0.74946  0.27116  0.25298  1.0000
  C   C24       1.0  0.76034  0.27491  0.17557  1.0000
  N   N19       1.0  0.76990  0.27821  0.10714  1.0000
  C   C25       1.0  0.17457  0.60789  0.33232  1.0000
  C   C26       1.0  0.14811  0.59429  0.32370  1.0000
  C   C27       1.0  0.13459  0.56761  0.32145  1.0000
  C   C28       1.0  0.14833  0.55470  0.32559  1.0000
  C   C29       1.0  0.17478  0.56779  0.33422  1.0000
  C   C30       1.0  0.18755  0.59433  0.33691  1.0000
  C   C31       1.0  0.10770  0.55404  0.31975  1.0000
  C   C32       1.0  0.09402  0.56109  0.26205  1.0000
  C   C33       1.0  0.06753  0.54802  0.26242  1.0000
  C   C34       1.0  0.05375  0.52741  0.32048  1.0000
  C   C35       1.0  0.06743  0.52058  0.37902  1.0000
  C   C36       1.0  0.09388  0.53356  0.37831  1.0000
  C   C37       1.0  0.18840  0.63461  0.33810  1.0000
  C   C38       1.0  0.18744  0.64985  0.26924  1.0000
  C   C39       1.0  0.20457  0.67595  0.26783  1.0000
  C   C40       1.0  0.22292  0.68755  0.33555  1.0000
  C   C41       1.0  0.22265  0.67244  0.40736  1.0000
  C   C42       1.0  0.20576  0.64641  0.40843  1.0000
  C   C43       1.0  0.18871  0.55505  0.34235  1.0000
  C   C44       1.0  0.20581  0.56093  0.41376  1.0000
  C   C45       1.0  0.22233  0.55136  0.41628  1.0000
  C   C46       1.0  0.22227  0.53548  0.34773  1.0000
  C   C47       1.0  0.20478  0.52919  0.27720  1.0000
  C   C48       1.0  0.18794  0.53851  0.27517  1.0000
  H   H1        1.0  0.20415  0.68627  0.21494  1.0000
  H   H2        1.0  0.17552  0.64184  0.21627  1.0000
  H   H3        1.0  0.23593  0.67989  0.45675  1.0000
  H   H4        1.0  0.20709  0.63594  0.45911  1.0000
  H   H5        1.0  0.20717  0.57318  0.46276  1.0000
  H   H6        1.0  0.23561  0.55761  0.46570  1.0000
  H   H7        1.0  0.17641  0.53458  0.22100  1.0000
  H   H8        1.0  0.20477  0.51843  0.22497  1.0000
  H   H9        1.0  0.10297  0.52822  0.42289  1.0000
  H   H10       1.0  0.05822  0.50591  0.42259  1.0000
  H   H11       1.0  0.05843  0.55416  0.22121  1.0000
  H   H12       1.0  0.10324  0.57581  0.21870  1.0000
  H   H13       1.0  0.13854  0.60398  0.32353  1.0000
  H   H14       1.0  0.20681  0.60403  0.34132  1.0000
  H   H15       1.0  0.13895  0.53543  0.32406  1.0000
  C   C49       1.0  0.39313  0.56693  0.33230  1.0000
  C   C50       1.0  0.40672  0.55407  0.32368  1.0000
  C   C51       1.0  0.43340  0.56722  0.32140  1.0000
  C   C52       1.0  0.44632  0.59388  0.32554  1.0000
  C   C53       1.0  0.43322  0.60724  0.33415  1.0000
  C   C54       1.0  0.40668  0.59347  0.33686  1.0000
  C   C55       1.0  0.44697  0.55390  0.31969  1.0000
  C   C56       1.0  0.43992  0.53317  0.26200  1.0000
  C   C57       1.0  0.45299  0.51976  0.26235  1.0000
  C   C58       1.0  0.47359  0.52658  0.32042  1.0000
  C   C59       1.0  0.48042  0.54708  0.37896  1.0000
  C   C60       1.0  0.46746  0.56057  0.37825  1.0000
  C   C61       1.0  0.36640  0.55404  0.33811  1.0000
  C   C62       1.0  0.35116  0.53783  0.26927  1.0000
  C   C63       1.0  0.32505  0.52886  0.26788  1.0000
  C   C64       1.0  0.31348  0.53565  0.33556  1.0000
  C   C65       1.0  0.32858  0.55047  0.40740  1.0000
  C   C66       1.0  0.35461  0.55960  0.40844  1.0000
  C   C67       1.0  0.44596  0.63390  0.34227  1.0000
  C   C68       1.0  0.44008  0.64514  0.41363  1.0000
  C   C69       1.0  0.44964  0.67124  0.41602  1.0000
  C   C70       1.0  0.46559  0.68705  0.34761  1.0000
  C   C71       1.0  0.47192  0.67585  0.27723  1.0000
  C   C72       1.0  0.46253  0.64967  0.27515  1.0000
  H   H16       1.0  0.31473  0.51813  0.21497  1.0000
  H   H17       1.0  0.35916  0.53391  0.21630  1.0000
  H   H18       1.0  0.32114  0.55632  0.45672  1.0000
  H   H19       1.0  0.36508  0.57141  0.45910  1.0000
  H   H20       1.0  0.42777  0.63426  0.46250  1.0000
  H   H21       1.0  0.44338  0.67827  0.46540  1.0000
  H   H22       1.0  0.46651  0.64207  0.22110  1.0000
  H   H23       1.0  0.48272  0.68658  0.22505  1.0000
  H   H24       1.0  0.47280  0.57499  0.42283  1.0000
  H   H25       1.0  0.49510  0.55255  0.42253  1.0000
  H   H26       1.0  0.44683  0.50450  0.22119  1.0000
  H   H27       1.0  0.42519  0.52767  0.21868  1.0000
  H   H28       1.0  0.39703  0.53479  0.32352  1.0000
  H   H29       1.0  0.39698  0.60302  0.34126  1.0000
  H   H30       1.0  0.46558  0.60376  0.32400  1.0000
  C   C73       1.0  0.43408  0.82638  0.33204  1.0000
  C   C74       1.0  0.44694  0.85284  0.32343  1.0000
  C   C75       1.0  0.43377  0.86636  0.32127  1.0000
  C   C76       1.0  0.40712  0.85261  0.32539  1.0000
  C   C77       1.0  0.39377  0.82615  0.33392  1.0000
  C   C78       1.0  0.40755  0.81339  0.33659  1.0000
  C   C79       1.0  0.44709  0.89324  0.31965  1.0000
  C   C80       1.0  0.46782  0.90695  0.26201  1.0000
  C   C81       1.0  0.48121  0.93344  0.26240  1.0000
  C   C82       1.0  0.47437  0.94720  0.32047  1.0000
  C   C83       1.0  0.45387  0.93350  0.37899  1.0000
  C   C84       1.0  0.44041  0.90705  0.37827  1.0000
  C   C85       1.0  0.44698  0.81255  0.33782  1.0000
  C   C86       1.0  0.46324  0.81357  0.26906  1.0000
  C   C87       1.0  0.47222  0.79645  0.26767  1.0000
  C   C88       1.0  0.46546  0.77809  0.33537  1.0000
  C   C89       1.0  0.45058  0.77832  0.40708  1.0000
  C   C90       1.0  0.44142  0.79520  0.40815  1.0000
  C   C91       1.0  0.36710  0.81222  0.34206  1.0000
  C   C92       1.0  0.35587  0.79509  0.41339  1.0000
  C   C93       1.0  0.32976  0.77859  0.41595  1.0000
  C   C94       1.0  0.31396  0.77874  0.34749  1.0000
  C   C95       1.0  0.32515  0.79628  0.27712  1.0000
  C   C96       1.0  0.35133  0.81304  0.27499  1.0000
  H   H31       1.0  0.48301  0.79691  0.21487  1.0000
  H   H32       1.0  0.46717  0.82551  0.21613  1.0000
  H   H33       1.0  0.44472  0.76501  0.45637  1.0000
  H   H34       1.0  0.42956  0.79380  0.45869  1.0000
  H   H35       1.0  0.36676  0.79365  0.46220  1.0000
  H   H36       1.0  0.32274  0.76526  0.46519  1.0000
  H   H37       1.0  0.35893  0.82466  0.22103  1.0000
  H   H38       1.0  0.31440  0.79637  0.22505  1.0000
  H   H39       1.0  0.42596  0.89795  0.42277  1.0000
  H   H40       1.0  0.44837  0.94270  0.42255  1.0000
  H   H41       1.0  0.49647  0.94255  0.22124  1.0000
  H   H42       1.0  0.47334  0.89774  0.21865  1.0000
  H   H43       1.0  0.46621  0.86242  0.32338  1.0000
  H   H44       1.0  0.39799  0.79414  0.34094  1.0000
  H   H45       1.0  0.39723  0.86198  0.32390  1.0000
  C   C97       1.0  0.82641  0.39346  0.33396  1.0000
  C   C98       1.0  0.85286  0.40682  0.34271  1.0000
  C   C99       1.0  0.86659  0.43348  0.34690  1.0000
  C   C100      1.0  0.85305  0.44663  0.34461  1.0000
  C   C101      1.0  0.82659  0.43375  0.33590  1.0000
  C   C102      1.0  0.81363  0.40722  0.33122  1.0000
  C   C103      1.0  0.89347  0.44682  0.34869  1.0000
  C   C104      1.0  0.90732  0.44016  0.29016  1.0000
  C   C105      1.0  0.93377  0.45367  0.28948  1.0000
  C   C106      1.0  0.94743  0.47417  0.34807  1.0000
  C   C107      1.0  0.93362  0.48097  0.40610  1.0000
  C   C108      1.0  0.90714  0.46754  0.40640  1.0000
  C   C109      1.0  0.81250  0.36680  0.32587  1.0000
  C   C110      1.0  0.81318  0.35103  0.39327  1.0000
  C   C111      1.0  0.79635  0.32487  0.39128  1.0000
  C   C112      1.0  0.77889  0.31367  0.32070  1.0000
  C   C113      1.0  0.77888  0.32946  0.25194  1.0000
  C   C114      1.0  0.79543  0.35556  0.25438  1.0000
  C   C115      1.0  0.81274  0.44662  0.33018  1.0000
  C   C116      1.0  0.79541  0.44109  0.25979  1.0000
  C   C117      1.0  0.77850  0.45021  0.26089  1.0000
  C   C118      1.0  0.77819  0.46499  0.33280  1.0000
  C   C119      1.0  0.79652  0.47173  0.40060  1.0000
  C   C120      1.0  0.81366  0.46277  0.39917  1.0000
  H   H46       1.0  0.79635  0.31414  0.44357  1.0000
  H   H47       1.0  0.82474  0.35864  0.44738  1.0000
  H   H48       1.0  0.76558  0.32245  0.20260  1.0000
  H   H49       1.0  0.79406  0.36644  0.20539  1.0000
  H   H50       1.0  0.79412  0.42934  0.20899  1.0000
  H   H51       1.0  0.76525  0.44442  0.21140  1.0000
  H   H52       1.0  0.82560  0.46670  0.45210  1.0000
  H   H53       1.0  0.79693  0.48247  0.45349  1.0000
  H   H54       1.0  0.89790  0.47304  0.44971  1.0000
  H   H55       1.0  0.94271  0.49622  0.44729  1.0000
  H   H56       1.0  0.94300  0.44821  0.24594  1.0000
  H   H57       1.0  0.89825  0.42575  0.24554  1.0000
  H   H58       1.0  0.86225  0.39695  0.34427  1.0000
  H   H59       1.0  0.79437  0.39765  0.32677  1.0000
  H   H60       1.0  0.86261  0.46590  0.34484  1.0000
  C   C121      1.0  0.60747  0.43310  0.33406  1.0000
  C   C122      1.0  0.59410  0.44619  0.34281  1.0000
  C   C123      1.0  0.56745  0.43326  0.34696  1.0000
  C   C124      1.0  0.55430  0.40658  0.34472  1.0000
  C   C125      1.0  0.56717  0.39300  0.33598  1.0000
  C   C126      1.0  0.59371  0.40656  0.33130  1.0000
  C   C127      1.0  0.55412  0.44682  0.34869  1.0000
  C   C128      1.0  0.56078  0.46731  0.29016  1.0000
  C   C129      1.0  0.54729  0.48028  0.28948  1.0000
  C   C130      1.0  0.52679  0.47345  0.34805  1.0000
  C   C131      1.0  0.51997  0.45284  0.40609  1.0000
  C   C132      1.0  0.53339  0.43977  0.40641  1.0000
  C   C133      1.0  0.63413  0.44585  0.32597  1.0000
  C   C134      1.0  0.64989  0.46229  0.39337  1.0000
  C   C135      1.0  0.67606  0.47164  0.39132  1.0000
  C   C136      1.0  0.68727  0.46540  0.32070  1.0000
  C   C137      1.0  0.67146  0.44956  0.25205  1.0000
  C   C138      1.0  0.64536  0.44003  0.25443  1.0000
  C   C139      1.0  0.55430  0.36628  0.33026  1.0000
  C   C140      1.0  0.55982  0.35447  0.25987  1.0000
  C   C141      1.0  0.55070  0.32844  0.26100  1.0000
  C   C142      1.0  0.53590  0.31335  0.33288  1.0000
  C   C143      1.0  0.52914  0.32494  0.40062  1.0000
  C   C144      1.0  0.53814  0.35105  0.39926  1.0000
  H   H61       1.0  0.68679  0.48238  0.44359  1.0000
  H   H62       1.0  0.64228  0.46624  0.44749  1.0000
  H   H63       1.0  0.67848  0.44334  0.20252  1.0000
  H   H64       1.0  0.63448  0.42779  0.20541  1.0000
  H   H65       1.0  0.57159  0.36493  0.20912  1.0000
  H   H66       1.0  0.55649  0.32097  0.21154  1.0000
  H   H67       1.0  0.53421  0.35906  0.45215  1.0000
  H   H68       1.0  0.51842  0.31462  0.45356  1.0000
  H   H69       1.0  0.52789  0.42504  0.44973  1.0000
  H   H70       1.0  0.50472  0.44668  0.44727  1.0000
  H   H71       1.0  0.55275  0.49496  0.24592  1.0000
  H   H72       1.0  0.57520  0.47266  0.24556  1.0000
  H   H73       1.0  0.60398  0.46545  0.34431  1.0000
  H   H74       1.0  0.60327  0.39687  0.32685  1.0000
  H   H75       1.0  0.53503  0.39688  0.34487  1.0000
  C   C145      1.0  0.56788  0.17457  0.33417  1.0000
  C   C146      1.0  0.55477  0.14812  0.34290  1.0000
  C   C147      1.0  0.56768  0.13437  0.34705  1.0000
  C   C148      1.0  0.59436  0.14788  0.34479  1.0000
  C   C149      1.0  0.60796  0.17434  0.33605  1.0000
  C   C150      1.0  0.59441  0.18733  0.33142  1.0000
  C   C151      1.0  0.55410  0.10748  0.34879  1.0000
  C   C152      1.0  0.53361  0.09365  0.29025  1.0000
  C   C153      1.0  0.52063  0.06720  0.28960  1.0000
  C   C154      1.0  0.52745  0.05352  0.34816  1.0000
  C   C155      1.0  0.54806  0.06731  0.40620  1.0000
  C   C156      1.0  0.56115  0.09379  0.40649  1.0000
  C   C157      1.0  0.55514  0.18850  0.32613  1.0000
  C   C158      1.0  0.53863  0.18776  0.39338  1.0000
  C   C159      1.0  0.52926  0.20456  0.39134  1.0000
  C   C160      1.0  0.53554  0.22205  0.32084  1.0000
  C   C161      1.0  0.55146  0.22216  0.25234  1.0000
  C   C162      1.0  0.56103  0.20563  0.25479  1.0000
  C   C163      1.0  0.63468  0.18816  0.33034  1.0000
  C   C164      1.0  0.64650  0.20551  0.25999  1.0000
  C   C165      1.0  0.67253  0.22238  0.26106  1.0000
  C   C166      1.0  0.68761  0.22268  0.33300  1.0000
  C   C167      1.0  0.67601  0.20435  0.40078  1.0000
  C   C168      1.0  0.64991  0.18723  0.39934  1.0000
  H   H76       1.0  0.51846  0.20449  0.44349  1.0000
  H   H77       1.0  0.53464  0.17616  0.44739  1.0000
  H   H78       1.0  0.55769  0.23542  0.20288  1.0000
  H   H79       1.0  0.57328  0.20700  0.20575  1.0000
  H   H80       1.0  0.63604  0.20683  0.20926  1.0000
  H   H81       1.0  0.67999  0.23567  0.21170  1.0000
  H   H82       1.0  0.64189  0.17528  0.45223  1.0000
  H   H83       1.0  0.68633  0.20393  0.45368  1.0000
  H   H84       1.0  0.57588  0.10302  0.44980  1.0000
  H   H85       1.0  0.55423  0.05821  0.44733  1.0000
  H   H86       1.0  0.50595  0.05799  0.24604  1.0000
  H   H87       1.0  0.52826  0.10274  0.24570  1.0000
  H   H88       1.0  0.53551  0.13875  0.34441  1.0000
  H   H89       1.0  0.60412  0.20658  0.32701  1.0000
  H   H90       1.0  0.60404  0.13830  0.34492  1.0000
  C   C169      1.0  0.99059  0.49610  0.41991  1.0000
  C   C170      1.0  0.98333  0.49102  0.50253  1.0000
  N   N20       1.0  0.97702  0.48654  0.57561  1.0000
  N   N21       1.0  0.49243  0.50743  0.40524  1.0000
  C   C171      1.0  0.50485  0.49467  0.41986  1.0000
  C   C172      1.0  0.50993  0.49251  0.50250  1.0000
  N   N22       1.0  0.51442  0.49070  0.57558  1.0000
  N   N23       1.0  0.49346  0.98517  0.40531  1.0000
  C   C173      1.0  0.50619  0.01036  0.41994  1.0000
  C   C174      1.0  0.50840  0.01760  0.50259  1.0000
  N   N24       1.0  0.51026  0.02391  0.57568  1.0000
  C   C175      1.0  0.24210  0.52983  0.34283  1.0000
  C   C176      1.0  0.28814  0.53049  0.32960  1.0000
  N   N25       1.0  0.27422  0.52362  0.40585  1.0000
  C   C177      1.0  0.25165  0.52236  0.41556  1.0000
  C   C178      1.0  0.24078  0.51527  0.49297  1.0000
  N   N26       1.0  0.23121  0.50904  0.56141  1.0000
  C   C179      1.0  0.47131  0.71254  0.34272  1.0000
  C   C180      1.0  0.47066  0.75794  0.32940  1.0000
  N   N27       1.0  0.47748  0.75087  0.40572  1.0000
  C   C181      1.0  0.47874  0.72956  0.41547  1.0000
  C   C182      1.0  0.48575  0.72574  0.49298  1.0000
  N   N28       1.0  0.49191  0.72238  0.56150  1.0000
  C   C183      1.0  0.28845  0.75900  0.34270  1.0000
  C   C184      1.0  0.24308  0.71289  0.32964  1.0000
  N   N29       1.0  0.25017  0.72681  0.40589  1.0000
  C   C185      1.0  0.27147  0.74939  0.41554  1.0000
  C   C186      1.0  0.27529  0.76025  0.49298  1.0000
  N   N30       1.0  0.27866  0.76981  0.56145  1.0000
  C   C187      1.0  0.75802  0.47016  0.33867  1.0000
  C   C188      1.0  0.71273  0.47102  0.32557  1.0000
  N   N31       1.0  0.71982  0.46431  0.40200  1.0000
  C   C189      1.0  0.74172  0.46424  0.41319  1.0000
  C   C190      1.0  0.74442  0.45551  0.48890  1.0000
  N   N32       1.0  0.74674  0.44783  0.55592  1.0000
  C   C191      1.0  0.53068  0.28800  0.33878  1.0000
  C   C192      1.0  0.52984  0.24184  0.32567  1.0000
  N   N33       1.0  0.53654  0.25564  0.40210  1.0000
  C   C193      1.0  0.53658  0.27760  0.41331  1.0000
  C   C194      1.0  0.54536  0.28904  0.48898  1.0000
  N   N34       1.0  0.55307  0.29904  0.55597  1.0000
  C   C195      1.0  0.71296  0.24283  0.33898  1.0000
  C   C196      1.0  0.75902  0.28821  0.32563  1.0000
  N   N35       1.0  0.74527  0.28107  0.40215  1.0000
  C   C197      1.0  0.72336  0.25911  0.41351  1.0000
  C   C198      1.0  0.71192  0.25646  0.48915  1.0000
  N   N36       1.0  0.70190  0.25418  0.55612  1.0000
