data_image0
_chemical_formula_structural       C4NC4NH4N2C4NC4NH4N2C4NC4NH4N2CNCHCHCNCHCHCNCHCHCNCHCHCNCHCHCNCHCHC2HC2H3N2C2HC2H3N2C2HC2H3N2C2NHCHC2NHCHC2NHCHC2NHCHC2NHCHC2NHCH
_chemical_formula_sum              "C72 N30 H48"
_cell_length_a       31.4758
_cell_length_b       31.4758
_cell_length_c       15.0185
_cell_angle_alpha    90
_cell_angle_beta     90
_cell_angle_gamma    120

_space_group_name_H-M_alt    "P 1"
_space_group_IT_number       1

loop_
  _space_group_symop_operation_xyz
  'x, y, z'

loop_
  _atom_site_type_symbol
  _atom_site_label
  _atom_site_symmetry_multiplicity
  _atom_site_fract_x
  _atom_site_fract_y
  _atom_site_fract_z
  _atom_site_occupancy
  C   C1        1.0  0.97282  0.48589  0.33399  1.0000
  C   C2        1.0  0.86704  0.43184  0.33170  1.0000
  C   C3        1.0  0.89443  0.40744  0.31997  1.0000
  C   C4        1.0  0.94599  0.43486  0.31497  1.0000
  N   N1        1.0  0.81698  0.40621  0.33110  1.0000
  C   C5        1.0  0.02528  0.51281  0.33405  1.0000
  C   C6        1.0  0.05212  0.56385  0.31508  1.0000
  C   C7        1.0  0.10368  0.59125  0.32013  1.0000
  C   C8        1.0  0.13105  0.56683  0.33180  1.0000
  N   N2        1.0  0.18111  0.59243  0.33113  1.0000
  H   H1        1.0  0.19963  0.62688  0.31541  1.0000
  H   H2        1.0  0.79848  0.37175  0.31542  1.0000
  H   H3        1.0  0.96393  0.41622  0.30016  1.0000
  H   H4        1.0  0.03419  0.58249  0.30026  1.0000
  N   N3        1.0  0.12476  0.64077  0.31505  1.0000
  N   N4        1.0  0.87337  0.35793  0.31489  1.0000
  C   C9        1.0  0.51252  0.48662  0.33395  1.0000
  C   C10       1.0  0.56657  0.43490  0.33174  1.0000
  C   C11       1.0  0.59098  0.48669  0.32007  1.0000
  C   C12       1.0  0.56355  0.51082  0.31491  1.0000
  N   N5        1.0  0.59218  0.41046  0.33113  1.0000
  C   C13       1.0  0.48561  0.51217  0.33394  1.0000
  C   C14       1.0  0.43458  0.48797  0.31488  1.0000
  C   C15       1.0  0.40715  0.51211  0.32003  1.0000
  C   C16       1.0  0.43156  0.56390  0.33172  1.0000
  N   N6        1.0  0.40594  0.58834  0.33112  1.0000
  H   H5        1.0  0.37148  0.57239  0.31543  1.0000
  H   H6        1.0  0.62665  0.42641  0.31546  1.0000
  H   H7        1.0  0.58220  0.54742  0.30019  1.0000
  H   H8        1.0  0.41593  0.45138  0.30016  1.0000
  N   N7        1.0  0.35764  0.48366  0.31499  1.0000
  N   N8        1.0  0.64048  0.51514  0.31501  1.0000
  C   C17       1.0  0.51185  0.02564  0.33400  1.0000
  C   C18       1.0  0.56357  0.13141  0.33184  1.0000
  C   C19       1.0  0.51179  0.10403  0.32010  1.0000
  C   C20       1.0  0.48765  0.05247  0.31505  1.0000
  N   N9        1.0  0.58801  0.18146  0.33125  1.0000
  C   C21       1.0  0.48630  0.97317  0.33395  1.0000
  C   C22       1.0  0.51050  0.94634  0.31489  1.0000
  C   C23       1.0  0.48636  0.89478  0.32000  1.0000
  C   C24       1.0  0.43458  0.86740  0.33173  1.0000
  N   N10       1.0  0.41014  0.81734  0.33114  1.0000
  H   H9        1.0  0.42608  0.79883  0.31534  1.0000
  H   H10       1.0  0.57207  0.19997  0.31549  1.0000
  H   H11       1.0  0.45107  0.03453  0.30018  1.0000
  H   H12       1.0  0.54710  0.96428  0.30020  1.0000
  N   N11       1.0  0.51482  0.87373  0.31498  1.0000
  N   N12       1.0  0.48335  0.12510  0.31503  1.0000
  C   C25       1.0  0.22598  0.47415  0.24070  1.0000
  N   N13       1.0  0.26667  0.47311  0.26692  1.0000
  C   C26       1.0  0.19401  0.47471  0.30610  1.0000
  H   H13       1.0  0.22112  0.47812  0.17455  1.0000
  C   C27       1.0  0.15891  0.48812  0.28535  1.0000
  H   H14       1.0  0.16097  0.50386  0.22454  1.0000
  C   C28       1.0  0.52450  0.75167  0.24066  1.0000
  N   N14       1.0  0.52548  0.79338  0.26692  1.0000
  C   C29       1.0  0.52379  0.71908  0.30606  1.0000
  H   H15       1.0  0.52039  0.74281  0.17452  1.0000
  C   C30       1.0  0.51020  0.67050  0.28545  1.0000
  H   H16       1.0  0.49460  0.65688  0.22452  1.0000
  C   C31       1.0  0.24695  0.77241  0.24072  1.0000
  N   N15       1.0  0.20521  0.73172  0.26695  1.0000
  C   C32       1.0  0.27949  0.80438  0.30609  1.0000
  H   H17       1.0  0.25577  0.77726  0.17456  1.0000
  C   C33       1.0  0.32799  0.83951  0.28532  1.0000
  H   H18       1.0  0.34164  0.83741  0.22451  1.0000
  C   C34       1.0  0.77220  0.52479  0.24068  1.0000
  N   N16       1.0  0.73149  0.52578  0.26694  1.0000
  C   C35       1.0  0.80409  0.52407  0.30608  1.0000
  H   H19       1.0  0.77695  0.52067  0.17455  1.0000
  C   C36       1.0  0.83905  0.51046  0.28547  1.0000
  H   H20       1.0  0.83708  0.49486  0.22454  1.0000
  C   C37       1.0  0.47396  0.24729  0.24071  1.0000
  N   N17       1.0  0.47287  0.20553  0.26695  1.0000
  C   C38       1.0  0.47452  0.27981  0.30611  1.0000
  H   H21       1.0  0.47796  0.25612  0.17456  1.0000
  C   C39       1.0  0.48791  0.32831  0.28531  1.0000
  H   H22       1.0  0.50366  0.34198  0.22450  1.0000
  C   C40       1.0  0.75129  0.22622  0.24058  1.0000
  N   N18       1.0  0.79301  0.26693  0.26684  1.0000
  C   C41       1.0  0.71873  0.19434  0.30600  1.0000
  H   H23       1.0  0.74241  0.22148  0.17446  1.0000
  C   C42       1.0  0.67015  0.15934  0.28543  1.0000
  H   H24       1.0  0.65648  0.16134  0.22458  1.0000
  C   C43       1.0  0.94463  0.50878  0.35199  1.0000
  C   C44       1.0  0.89311  0.48359  0.34443  1.0000
  H   H25       1.0  0.96164  0.54533  0.36692  1.0000
  C   C45       1.0  0.10496  0.51509  0.34456  1.0000
  C   C46       1.0  0.05345  0.48991  0.35217  1.0000
  H   H26       1.0  0.03642  0.45334  0.36694  1.0000
  H   H27       1.0  0.20045  0.57750  0.34776  1.0000
  H   H28       1.0  0.79763  0.42112  0.34780  1.0000
  N   N19       1.0  0.12657  0.48704  0.34601  1.0000
  N   N20       1.0  0.87147  0.51160  0.34599  1.0000
  C   C47       1.0  0.48963  0.43556  0.35205  1.0000
  C   C48       1.0  0.51481  0.40923  0.34443  1.0000
  H   H29       1.0  0.45307  0.41601  0.36684  1.0000
  C   C49       1.0  0.48332  0.58957  0.34442  1.0000
  C   C50       1.0  0.50850  0.56324  0.35207  1.0000
  H   H30       1.0  0.54506  0.58278  0.36687  1.0000
  H   H31       1.0  0.42086  0.62260  0.34780  1.0000
  H   H32       1.0  0.57726  0.37619  0.34777  1.0000
  N   N21       1.0  0.51133  0.63923  0.34598  1.0000
  N   N22       1.0  0.48679  0.35957  0.34591  1.0000
  C   C51       1.0  0.56292  0.05381  0.35213  1.0000
  C   C52       1.0  0.58924  0.10533  0.34459  1.0000
  H   H33       1.0  0.58247  0.03679  0.36689  1.0000
  C   C53       1.0  0.40891  0.89348  0.34447  1.0000
  C   C54       1.0  0.43523  0.94499  0.35199  1.0000
  H   H34       1.0  0.41570  0.96202  0.36691  1.0000
  H   H35       1.0  0.37586  0.79800  0.34770  1.0000
  H   H36       1.0  0.62228  0.20081  0.34785  1.0000
  N   N23       1.0  0.35925  0.87185  0.34597  1.0000
  N   N24       1.0  0.63890  0.12695  0.34603  1.0000
  C   C55       1.0  0.27786  0.47135  0.35380  1.0000
  C   C56       1.0  0.24437  0.46896  0.41896  1.0000
  N   N25       1.0  0.20435  0.47133  0.39284  1.0000
  H   H37       1.0  0.25142  0.46924  0.48547  1.0000
  C   C57       1.0  0.32541  0.48210  0.37639  1.0000
  H   H38       1.0  0.33806  0.49518  0.43912  1.0000
  C   C58       1.0  0.52720  0.80630  0.35380  1.0000
  C   C59       1.0  0.52965  0.77523  0.41896  1.0000
  N   N26       1.0  0.52713  0.73277  0.39281  1.0000
  H   H39       1.0  0.52909  0.78184  0.48546  1.0000
  C   C60       1.0  0.51638  0.84305  0.37638  1.0000
  H   H40       1.0  0.50326  0.84255  0.43910  1.0000
  C   C61       1.0  0.19228  0.72054  0.35383  1.0000
  C   C62       1.0  0.22339  0.75403  0.41898  1.0000
  N   N27       1.0  0.26577  0.79405  0.39284  1.0000
  H   H41       1.0  0.21662  0.74699  0.48549  1.0000
  C   C63       1.0  0.15545  0.67300  0.37643  1.0000
  H   H42       1.0  0.15593  0.66038  0.43918  1.0000
  C   C64       1.0  0.72030  0.52752  0.35382  1.0000
  C   C65       1.0  0.75382  0.52997  0.41898  1.0000
  N   N28       1.0  0.79374  0.52743  0.39283  1.0000
  H   H43       1.0  0.74665  0.52942  0.48548  1.0000
  C   C66       1.0  0.67273  0.51671  0.37641  1.0000
  H   H44       1.0  0.66011  0.50361  0.43914  1.0000
  C   C67       1.0  0.47106  0.19256  0.35383  1.0000
  C   C68       1.0  0.46866  0.22367  0.41897  1.0000
  N   N29       1.0  0.47106  0.26608  0.39285  1.0000
  H   H45       1.0  0.46888  0.21687  0.48548  1.0000
  C   C69       1.0  0.48173  0.15571  0.37648  1.0000
  H   H46       1.0  0.49482  0.15615  0.43920  1.0000
  C   C70       1.0  0.80596  0.27811  0.35372  1.0000
  C   C71       1.0  0.77491  0.24458  0.41888  1.0000
  N   N30       1.0  0.73244  0.20465  0.39275  1.0000
  H   H47       1.0  0.78155  0.25174  0.48538  1.0000
  C   C72       1.0  0.84274  0.32568  0.37630  1.0000
  H   H48       1.0  0.84227  0.33829  0.43906  1.0000
