data_image0
_chemical_formula_structural       C3NC3NC5NC4NC35H25C2NCHC2NCHC18H17CNHCNH
_chemical_formula_sum              "C76 N8 H46"
_cell_length_a       29.9416
_cell_length_b       29.9414
_cell_length_c       14.8739
_cell_angle_alpha    90
_cell_angle_beta     90
_cell_angle_gamma    90.0717

_space_group_name_H-M_alt    "P 1"
_space_group_IT_number       1

loop_
  _space_group_symop_operation_xyz
  'x, y, z'

loop_
  _atom_site_type_symbol
  _atom_site_label
  _atom_site_symmetry_multiplicity
  _atom_site_fract_x
  _atom_site_fract_y
  _atom_site_fract_z
  _atom_site_occupancy
  C   C1        1.0  0.12278  0.08772  0.34022  1.0000
  C   C2        1.0  0.09019  0.12032  0.34051  1.0000
  C   C3        1.0  0.04846  0.09935  0.34036  1.0000
  N   N1        1.0  0.05738  0.05493  0.34036  1.0000
  C   C4        1.0  0.10181  0.04599  0.34035  1.0000
  C   C5        1.0  0.12438  0.00415  0.34023  1.0000
  C   C6        1.0  0.10285  0.96182  0.34021  1.0000
  N   N2        1.0  0.05851  0.95315  0.34021  1.0000
  C   C7        1.0  0.04983  0.90881  0.34047  1.0000
  C   C8        1.0  0.09137  0.88764  0.34049  1.0000
  C   C9        1.0  0.12401  0.92026  0.34057  1.0000
  C   C10       1.0  0.00750  0.88729  0.34046  1.0000
  C   C11       1.0  0.96566  0.90988  0.34032  1.0000
  N   N3        1.0  0.95674  0.95431  0.34034  1.0000
  C   C12       1.0  0.91231  0.96324  0.34035  1.0000
  C   C13       1.0  0.89134  0.92151  0.34020  1.0000
  C   C14       1.0  0.92392  0.88892  0.34047  1.0000
  C   C15       1.0  0.88974  0.00508  0.34021  1.0000
  N   N4        1.0  0.95560  0.05609  0.34049  1.0000
  C   C16       1.0  0.96429  0.10042  0.34052  1.0000
  C   C17       1.0  0.92273  0.12159  0.34014  1.0000
  C   C18       1.0  0.89010  0.08896  0.34021  1.0000
  C   C19       1.0  0.00662  0.12194  0.34049  1.0000
  C   C20       1.0  0.00701  0.16964  0.34022  1.0000
  C   C21       1.0  0.01147  0.19351  0.25887  1.0000
  C   C22       1.0  0.01153  0.24054  0.25863  1.0000
  C   C23       1.0  0.00690  0.26539  0.33930  1.0000
  C   C24       1.0  0.00659  0.31339  0.33867  1.0000
  C   C25       1.0  0.98479  0.38469  0.26843  1.0000
  C   C26       1.0  0.98488  0.33765  0.26954  1.0000
  C   C27       1.0  0.84204  0.00469  0.33974  1.0000
  C   C28       1.0  0.81821  0.00855  0.25824  1.0000
  C   C29       1.0  0.77117  0.00837  0.25791  1.0000
  C   C30       1.0  0.74630  0.00414  0.33865  1.0000
  C   C31       1.0  0.69829  0.00386  0.33798  1.0000
  C   C32       1.0  0.67398  0.98180  0.26932  1.0000
  C   C33       1.0  0.62694  0.98180  0.26809  1.0000
  C   C34       1.0  0.60194  0.00359  0.33593  1.0000
  C   C35       1.0  0.00709  0.83960  0.34093  1.0000
  C   C36       1.0  0.00654  0.74386  0.34202  1.0000
  C   C37       1.0  0.00265  0.76830  0.26070  1.0000
  C   C38       1.0  0.00298  0.81534  0.25997  1.0000
  C   C39       1.0  0.00626  0.69585  0.34269  1.0000
  C   C40       1.0  0.02793  0.67076  0.27474  1.0000
  C   C41       1.0  0.02751  0.62372  0.27535  1.0000
  C   C42       1.0  0.00598  0.59950  0.34474  1.0000
  C   C43       1.0  0.17209  0.00453  0.34051  1.0000
  C   C44       1.0  0.19631  0.00012  0.25959  1.0000
  C   C45       1.0  0.24335  1.00000  0.26023  1.0000
  C   C46       1.0  0.26783  0.00441  0.34141  1.0000
  C   C47       1.0  0.31584  0.00411  0.34204  1.0000
  C   C48       1.0  0.41219  0.00371  0.34390  1.0000
  C   C49       1.0  0.38802  0.02487  0.27406  1.0000
  C   C50       1.0  0.34097  0.02534  0.27352  1.0000
  H   H1        1.0  0.40451  0.04121  0.22352  1.0000
  H   H2        1.0  0.32525  0.04229  0.22293  1.0000
  H   H3        1.0  0.25957  0.99565  0.20035  1.0000
  H   H4        1.0  0.17985  0.99658  0.19969  1.0000
  H   H5        1.0  0.15632  0.09408  0.34004  1.0000
  H   H6        1.0  0.09656  0.15386  0.34071  1.0000
  H   H7        1.0  0.03470  0.03225  0.34036  1.0000
  H   H8        1.0  0.97942  0.97698  0.34034  1.0000
  H   H9        1.0  0.15757  0.91412  0.34086  1.0000
  H   H10       1.0  0.09750  0.85407  0.34054  1.0000
  H   H11       1.0  0.99996  0.83179  0.19995  1.0000
  H   H12       1.0  0.99861  0.75207  0.20075  1.0000
  H   H13       1.0  0.91756  0.85537  0.34062  1.0000
  H   H14       1.0  0.85780  0.91515  0.34004  1.0000
  H   H15       1.0  0.85654  0.09510  0.34014  1.0000
  H   H16       1.0  0.83496  0.01183  0.19860  1.0000
  H   H17       1.0  0.75526  0.01226  0.19759  1.0000
  H   H18       1.0  0.61116  0.96452  0.21798  1.0000
  H   H19       1.0  0.69032  0.96455  0.21995  1.0000
  H   H20       1.0  0.96790  0.32126  0.21980  1.0000
  H   H21       1.0  0.96775  0.40041  0.21796  1.0000
  H   H22       1.0  0.01572  0.25648  0.19839  1.0000
  H   H23       1.0  0.01487  0.17678  0.19924  1.0000
  H   H24       1.0  0.04514  0.68653  0.22450  1.0000
  H   H25       1.0  0.04416  0.60727  0.22524  1.0000
  C   C51       1.0  0.00593  0.45751  0.33698  1.0000
  C   C52       1.0  0.00620  0.48387  0.25805  1.0000
  N   N5        1.0  0.00644  0.52909  0.26515  1.0000
  C   C53       1.0  0.00583  0.55173  0.34460  1.0000
  H   H26       1.0  0.00746  0.46986  0.19553  1.0000
  C   C54       1.0  0.55417  0.00344  0.33608  1.0000
  C   C55       1.0  0.52781  0.00326  0.25716  1.0000
  N   N6        1.0  0.48259  0.00360  0.26425  1.0000
  C   C56       1.0  0.45996  0.00350  0.34371  1.0000
  H   H27       1.0  0.54182  0.00412  0.19463  1.0000
  C   C57       1.0  0.91127  0.04741  0.34022  1.0000
  C   C58       1.0  0.00248  0.24092  0.42049  1.0000
  C   C59       1.0  0.00258  0.19387  0.42113  1.0000
  C   C60       1.0  0.02780  0.33854  0.40719  1.0000
  C   C61       1.0  0.02732  0.38559  0.40664  1.0000
  C   C62       1.0  0.00614  0.40974  0.33680  1.0000
  C   C63       1.0  0.77075  0.00022  0.41997  1.0000
  C   C64       1.0  0.81779  0.00057  0.42070  1.0000
  C   C65       1.0  0.62616  0.02510  0.40533  1.0000
  C   C66       1.0  0.67321  0.02550  0.40596  1.0000
  C   C67       1.0  0.01095  0.81576  0.42243  1.0000
  C   C68       1.0  0.01076  0.76873  0.42277  1.0000
  C   C69       1.0  0.98418  0.62450  0.41255  1.0000
  C   C70       1.0  0.98420  0.67154  0.41135  1.0000
  C   C71       1.0  0.19595  0.00896  0.42186  1.0000
  C   C72       1.0  0.24298  0.00901  0.42210  1.0000
  C   C73       1.0  0.34010  0.98240  0.41113  1.0000
  C   C74       1.0  0.38714  0.98235  0.41228  1.0000
  H   H28       1.0  0.40287  0.96528  0.46269  1.0000
  H   H29       1.0  0.32372  0.96541  0.46088  1.0000
  H   H30       1.0  0.25893  0.01321  0.48233  1.0000
  H   H31       1.0  0.17922  0.01235  0.48149  1.0000
  H   H32       1.0  0.01422  0.83251  0.48208  1.0000
  H   H33       1.0  0.01464  0.75281  0.48309  1.0000
  H   H34       1.0  0.91660  0.15515  0.33985  1.0000
  H   H35       1.0  0.83423  0.99755  0.48073  1.0000
  H   H36       1.0  0.75451  0.99621  0.47993  1.0000
  H   H37       1.0  0.68897  0.04272  0.45619  1.0000
  H   H38       1.0  0.60971  0.04174  0.45546  1.0000
  H   H39       1.0  0.99903  0.17741  0.48102  1.0000
  H   H40       1.0  0.99809  0.25713  0.48036  1.0000
  H   H41       1.0  0.04363  0.40209  0.45720  1.0000
  H   H42       1.0  0.04473  0.32282  0.45782  1.0000
  H   H43       1.0  0.96691  0.68788  0.46068  1.0000
  H   H44       1.0  0.96689  0.60872  0.46265  1.0000
  C   C75       1.0  0.00567  0.52537  0.42352  1.0000
  N   N7        1.0  0.00600  0.48015  0.41644  1.0000
  H   H45       1.0  0.00649  0.53939  0.48607  1.0000
  C   C76       1.0  0.48632  0.00378  0.42262  1.0000
  N   N8        1.0  0.53153  0.00402  0.41552  1.0000
  H   H46       1.0  0.47231  0.00499  0.48515  1.0000
