data_image0
_chemical_formula_structural       C5NC2HNHNHCNC2HNHNHCNC2HNHNHC5H3C2O3C5H3C2O3C4HC5HOHOHNHC4HC5HOHOHNHC4HC5HOHOHNH
_chemical_formula_sum              "C54 N12 H30 O12"
_cell_length_a       29.2526
_cell_length_b       29.2526
_cell_length_c       15.1364
_cell_angle_alpha    90
_cell_angle_beta     90
_cell_angle_gamma    120

_space_group_name_H-M_alt    "P 1"
_space_group_IT_number       1

loop_
  _space_group_symop_operation_xyz
  'x, y, z'

loop_
  _atom_site_type_symbol
  _atom_site_label
  _atom_site_symmetry_multiplicity
  _atom_site_fract_x
  _atom_site_fract_y
  _atom_site_fract_z
  _atom_site_occupancy
  C   C1        1.0  0.36586  0.64739  0.31405  1.0000
  C   C2        1.0  0.40482  0.63248  0.31529  1.0000
  C   C3        1.0  0.61893  0.34129  0.32796  1.0000
  C   C4        1.0  0.57827  0.35389  0.33139  1.0000
  C   C5        1.0  0.43984  0.55462  0.27641  1.0000
  N   N1        1.0  0.46407  0.52580  0.27063  1.0000
  C   C6        1.0  0.53734  0.43955  0.23139  1.0000
  C   C7        1.0  0.55291  0.41909  0.30212  1.0000
  H   H1        1.0  0.42823  0.56444  0.21931  1.0000
  N   N2        1.0  0.51321  0.46776  0.24781  1.0000
  H   H2        1.0  0.54435  0.43380  0.16738  1.0000
  N   N3        1.0  0.58204  0.39557  0.28564  1.0000
  H   H3        1.0  0.60886  0.41144  0.23951  1.0000
  C   C8        1.0  0.43408  0.88301  0.27608  1.0000
  N   N4        1.0  0.46289  0.93606  0.27031  1.0000
  C   C9        1.0  0.54917  0.09558  0.23110  1.0000
  C   C10       1.0  0.56963  0.13160  0.30183  1.0000
  H   H4        1.0  0.42422  0.86159  0.21898  1.0000
  N   N5        1.0  0.52095  0.04324  0.24750  1.0000
  H   H5        1.0  0.55491  0.10836  0.16709  1.0000
  N   N6        1.0  0.59321  0.18425  0.28538  1.0000
  H   H6        1.0  0.57725  0.19523  0.23946  1.0000
  C   C11       1.0  0.10578  0.54890  0.27632  1.0000
  N   N7        1.0  0.05274  0.52464  0.27048  1.0000
  C   C12       1.0  0.89324  0.45137  0.23104  1.0000
  C   C13       1.0  0.85717  0.43580  0.30172  1.0000
  H   H7        1.0  0.12724  0.56049  0.21924  1.0000
  N   N8        1.0  0.94557  0.47548  0.24752  1.0000
  H   H8        1.0  0.88050  0.44436  0.16701  1.0000
  N   N9        1.0  0.80453  0.40671  0.28521  1.0000
  H   H9        1.0  0.79357  0.37978  0.23928  1.0000
  C   C14       1.0  0.34132  0.71620  0.31391  1.0000
  C   C15       1.0  0.28765  0.67687  0.31311  1.0000
  C   C16       1.0  0.27252  0.62286  0.31408  1.0000
  C   C17       1.0  0.31185  0.60852  0.31324  1.0000
  C   C18       1.0  0.38020  0.70107  0.31305  1.0000
  H   H10       1.0  0.30098  0.56934  0.31291  1.0000
  H   H11       1.0  0.41938  0.72937  0.31264  1.0000
  H   H12       1.0  0.25934  0.68774  0.31270  1.0000
  C   C19       1.0  0.35623  0.77008  0.31505  1.0000
  C   C20       1.0  0.21865  0.58390  0.31533  1.0000
  O   O1        1.0  0.44855  0.66029  0.26500  1.0000
  O   O2        1.0  0.32844  0.78596  0.26466  1.0000
  O   O3        1.0  0.20274  0.54015  0.26512  1.0000
  C   C21       1.0  0.64748  0.27540  0.32790  1.0000
  C   C22       1.0  0.70047  0.31643  0.32851  1.0000
  C   C23       1.0  0.71338  0.36984  0.32774  1.0000
  C   C24       1.0  0.67235  0.38180  0.32858  1.0000
  C   C25       1.0  0.60698  0.28830  0.32874  1.0000
  H   H13       1.0  0.68159  0.42050  0.33068  1.0000
  H   H14       1.0  0.56827  0.25885  0.33094  1.0000
  H   H15       1.0  0.72993  0.30718  0.33059  1.0000
  C   C26       1.0  0.63488  0.22213  0.33121  1.0000
  C   C27       1.0  0.76664  0.41052  0.33098  1.0000
  O   O4        1.0  0.53581  0.32405  0.38324  1.0000
  O   O5        1.0  0.66477  0.20948  0.38286  1.0000
  O   O6        1.0  0.77930  0.45305  0.38268  1.0000
  C   C28       1.0  0.42838  0.56789  0.35995  1.0000
  C   C29       1.0  0.47869  0.50853  0.34254  1.0000
  C   C30       1.0  0.46833  0.52018  0.42879  1.0000
  C   C31       1.0  0.44226  0.54963  0.43605  1.0000
  H   H16       1.0  0.43327  0.55811  0.49699  1.0000
  C   C32       1.0  0.50333  0.47834  0.33076  1.0000
  C   C33       1.0  0.54358  0.42993  0.38926  1.0000
  C   C34       1.0  0.51845  0.45957  0.40525  1.0000
  C   C35       1.0  0.50894  0.47173  0.49148  1.0000
  C   C36       1.0  0.48377  0.50182  0.50322  1.0000
  H   H17       1.0  0.55718  0.41790  0.44142  1.0000
  O   O7        1.0  0.52214  0.45339  0.56420  1.0000
  H   H18       1.0  0.55806  0.48088  0.58055  1.0000
  O   O8        1.0  0.47362  0.51155  0.58683  1.0000
  H   H19       1.0  0.50468  0.54490  0.60508  1.0000
  N   N10       1.0  0.39942  0.59234  0.36766  1.0000
  H   H20       1.0  0.37182  0.57862  0.41273  1.0000
  C   C37       1.0  0.42078  0.85825  0.35962  1.0000
  C   C38       1.0  0.48018  0.96795  0.34222  1.0000
  C   C39       1.0  0.46856  0.94592  0.42846  1.0000
  C   C40       1.0  0.43910  0.89041  0.43570  1.0000
  H   H21       1.0  0.43066  0.87293  0.49664  1.0000
  C   C41       1.0  0.51040  0.02277  0.33045  1.0000
  C   C42       1.0  0.55890  0.11142  0.38898  1.0000
  C   C43       1.0  0.52920  0.05666  0.40496  1.0000
  C   C44       1.0  0.51707  0.03497  0.49117  1.0000
  C   C45       1.0  0.48696  0.97972  0.50290  1.0000
  H   H22       1.0  0.57089  0.13706  0.44115  1.0000
  O   O9        1.0  0.53545  0.06651  0.56390  1.0000
  H   H23       1.0  0.50797  0.07495  0.58030  1.0000
  O   O10       1.0  0.47725  0.95983  0.58651  1.0000
  H   H24       1.0  0.44391  0.95754  0.60481  1.0000
  N   N11       1.0  0.39644  0.80486  0.36727  1.0000
  H   H25       1.0  0.41012  0.79101  0.41244  1.0000
  C   C46       1.0  0.13049  0.56034  0.35990  1.0000
  C   C47       1.0  0.02081  0.51000  0.34235  1.0000
  C   C48       1.0  0.04279  0.52036  0.42862  1.0000
  C   C49       1.0  0.09831  0.54644  0.43595  1.0000
  H   H26       1.0  0.11576  0.55544  0.49691  1.0000
  C   C50       1.0  0.96599  0.48536  0.33049  1.0000
  C   C51       1.0  0.87731  0.44513  0.38888  1.0000
  C   C52       1.0  0.93207  0.47023  0.40495  1.0000
  C   C53       1.0  0.95371  0.47973  0.49120  1.0000
  C   C54       1.0  0.00895  0.50490  0.50301  1.0000
  H   H27       1.0  0.85165  0.43149  0.44101  1.0000
  O   O11       1.0  0.92213  0.46652  0.56388  1.0000
  H   H28       1.0  0.91369  0.43059  0.58022  1.0000
  O   O12       1.0  0.02880  0.51503  0.58664  1.0000
  H   H29       1.0  0.03108  0.48397  0.60491  1.0000
  N   N12       1.0  0.18388  0.58933  0.36760  1.0000
  H   H30       1.0  0.19775  0.61694  0.41265  1.0000
