data_image0
_chemical_formula_structural       C2NCOCHC2NOCHC2NOCHC4H2C4H2C4H2C4H2C4H2C4H2C24H15C24H15C24H15C24H15C24H15C24H15C3H2C4H2C4H2C2NOCHC2NOCHC2NOCHC2NOCHC2NOCHC2NOCH
_chemical_formula_sum              "C207 N9 O9 H117"
_cell_length_a       61.6591
_cell_length_b       61.6592
_cell_length_c       14.9894
_cell_angle_alpha    90
_cell_angle_beta     90
_cell_angle_gamma    120

_space_group_name_H-M_alt    "P 1"
_space_group_IT_number       1

loop_
  _space_group_symop_operation_xyz
  'x, y, z'

loop_
  _atom_site_type_symbol
  _atom_site_label
  _atom_site_symmetry_multiplicity
  _atom_site_fract_x
  _atom_site_fract_y
  _atom_site_fract_z
  _atom_site_occupancy
  C   C1        1.0  0.01346  0.50689  0.24014  1.0000
  C   C2        1.0  0.01369  0.50682  0.40076  1.0000
  N   N1        1.0  0.02088  0.51037  0.15529  1.0000
  C   C3        1.0  0.98734  0.49383  0.23954  1.0000
  O   O1        1.0  0.97814  0.48965  0.15471  1.0000
  C   C4        1.0  0.99984  0.50005  0.10645  1.0000
  H   H1        1.0  0.00003  0.50015  0.03833  1.0000
  C   C5        1.0  0.50705  0.49371  0.23969  1.0000
  C   C6        1.0  0.49400  0.50678  0.24032  1.0000
  N   N2        1.0  0.49050  0.51072  0.15548  1.0000
  O   O2        1.0  0.51122  0.48869  0.15486  1.0000
  C   C7        1.0  0.50082  0.50000  0.10662  1.0000
  H   H2        1.0  0.50068  0.50006  0.03849  1.0000
  C   C8        1.0  0.50716  0.01350  0.23966  1.0000
  C   C9        1.0  0.49410  0.98738  0.24026  1.0000
  N   N3        1.0  0.49014  0.97996  0.15542  1.0000
  O   O3        1.0  0.51216  0.02270  0.15483  1.0000
  C   C10       1.0  0.50085  0.00099  0.10658  1.0000
  H   H3        1.0  0.50074  0.00081  0.03845  1.0000
  C   C11       1.0  0.28870  0.52991  0.33763  1.0000
  C   C12       1.0  0.24223  0.53034  0.33679  1.0000
  C   C13       1.0  0.25775  0.53733  0.26014  1.0000
  C   C14       1.0  0.28055  0.53715  0.26056  1.0000
  H   H4        1.0  0.29216  0.54450  0.20658  1.0000
  H   H5        1.0  0.25374  0.54475  0.20579  1.0000
  C   C15       1.0  0.47106  0.75901  0.33703  1.0000
  C   C16       1.0  0.47060  0.71211  0.33626  1.0000
  C   C17       1.0  0.46366  0.72066  0.25955  1.0000
  C   C18       1.0  0.46387  0.74365  0.25990  1.0000
  H   H6        1.0  0.45645  0.74786  0.20600  1.0000
  H   H7        1.0  0.45620  0.70919  0.20529  1.0000
  C   C19       1.0  0.24185  0.71218  0.33749  1.0000
  C   C20       1.0  0.28879  0.75864  0.33679  1.0000
  C   C21       1.0  0.28026  0.74313  0.26011  1.0000
  C   C22       1.0  0.25727  0.72034  0.26049  1.0000
  H   H8        1.0  0.25302  0.70874  0.20649  1.0000
  H   H9        1.0  0.29170  0.74714  0.20577  1.0000
  C   C23       1.0  0.71243  0.47094  0.33718  1.0000
  C   C24       1.0  0.75891  0.47053  0.33642  1.0000
  C   C25       1.0  0.74343  0.46360  0.25969  1.0000
  C   C26       1.0  0.72063  0.46379  0.26002  1.0000
  H   H10       1.0  0.70902  0.45639  0.20607  1.0000
  H   H11       1.0  0.74745  0.45616  0.20539  1.0000
  C   C27       1.0  0.53003  0.24171  0.33739  1.0000
  C   C28       1.0  0.53046  0.28862  0.33663  1.0000
  C   C29       1.0  0.53745  0.28009  0.25998  1.0000
  C   C30       1.0  0.53727  0.25711  0.26035  1.0000
  H   H12       1.0  0.54461  0.25286  0.20634  1.0000
  H   H13       1.0  0.54488  0.29153  0.20563  1.0000
  C   C31       1.0  0.75919  0.28846  0.33724  1.0000
  C   C32       1.0  0.71231  0.24196  0.33643  1.0000
  C   C33       1.0  0.72085  0.25747  0.25976  1.0000
  C   C34       1.0  0.74384  0.28027  0.26011  1.0000
  H   H14       1.0  0.74804  0.29189  0.20620  1.0000
  H   H15       1.0  0.70939  0.25346  0.20547  1.0000
  C   C35       1.0  0.17440  0.60755  0.33921  1.0000
  C   C36       1.0  0.14808  0.59395  0.33005  1.0000
  C   C37       1.0  0.13473  0.56741  0.32583  1.0000
  C   C38       1.0  0.14853  0.55467  0.32856  1.0000
  C   C39       1.0  0.17485  0.56777  0.33782  1.0000
  C   C40       1.0  0.18744  0.59416  0.34261  1.0000
  C   C41       1.0  0.10796  0.55381  0.32266  1.0000
  C   C42       1.0  0.09451  0.56128  0.26600  1.0000
  C   C43       1.0  0.06816  0.54811  0.26462  1.0000
  C   C44       1.0  0.05424  0.52701  0.32009  1.0000
  C   C45       1.0  0.06768  0.51958  0.37693  1.0000
  C   C46       1.0  0.09402  0.53270  0.37808  1.0000
  C   C47       1.0  0.18804  0.63413  0.34555  1.0000
  C   C48       1.0  0.18723  0.64928  0.27630  1.0000
  C   C49       1.0  0.20415  0.67528  0.27535  1.0000
  C   C50       1.0  0.22196  0.68693  0.34442  1.0000
  C   C51       1.0  0.22185  0.67181  0.41567  1.0000
  C   C52       1.0  0.20519  0.64586  0.41621  1.0000
  C   C53       1.0  0.18885  0.55517  0.34329  1.0000
  C   C54       1.0  0.20605  0.56069  0.41384  1.0000
  C   C55       1.0  0.22261  0.55127  0.41373  1.0000
  C   C56       1.0  0.22256  0.53605  0.34300  1.0000
  C   C57       1.0  0.20479  0.52990  0.27381  1.0000
  C   C58       1.0  0.18795  0.53908  0.27442  1.0000
  H   H16       1.0  0.20404  0.68552  0.22179  1.0000
  H   H17       1.0  0.17563  0.64128  0.22269  1.0000
  H   H18       1.0  0.23509  0.67921  0.46496  1.0000
  H   H19       1.0  0.20657  0.63541  0.46666  1.0000
  H   H20       1.0  0.20742  0.57251  0.46428  1.0000
  H   H21       1.0  0.23583  0.55710  0.46305  1.0000
  H   H22       1.0  0.17625  0.53534  0.22101  1.0000
  H   H23       1.0  0.20455  0.51936  0.22068  1.0000
  H   H24       1.0  0.10291  0.52692  0.42155  1.0000
  H   H25       1.0  0.05840  0.50434  0.41778  1.0000
  H   H26       1.0  0.05921  0.55446  0.22383  1.0000
  H   H27       1.0  0.10382  0.57635  0.22445  1.0000
  H   H28       1.0  0.13848  0.60354  0.33052  1.0000
  H   H29       1.0  0.20660  0.60389  0.34711  1.0000
  H   H30       1.0  0.13930  0.53552  0.32514  1.0000
  C   C59       1.0  0.39332  0.56704  0.33940  1.0000
  C   C60       1.0  0.40692  0.55432  0.33030  1.0000
  C   C61       1.0  0.43346  0.56751  0.32604  1.0000
  C   C62       1.0  0.44619  0.59405  0.32868  1.0000
  C   C63       1.0  0.43309  0.60727  0.33787  1.0000
  C   C64       1.0  0.40670  0.59346  0.34270  1.0000
  C   C65       1.0  0.44707  0.55436  0.32288  1.0000
  C   C66       1.0  0.43959  0.53342  0.26628  1.0000
  C   C67       1.0  0.45278  0.52025  0.26487  1.0000
  C   C68       1.0  0.47388  0.52745  0.32029  1.0000
  C   C69       1.0  0.48132  0.54833  0.37709  1.0000
  C   C70       1.0  0.46819  0.56154  0.37825  1.0000
  C   C71       1.0  0.36674  0.55410  0.34575  1.0000
  C   C72       1.0  0.35159  0.53814  0.27650  1.0000
  C   C73       1.0  0.32559  0.52906  0.27554  1.0000
  C   C74       1.0  0.31395  0.53524  0.34458  1.0000
  C   C75       1.0  0.32906  0.55023  0.41588  1.0000
  C   C76       1.0  0.35501  0.55952  0.41640  1.0000
  C   C77       1.0  0.44568  0.63387  0.34322  1.0000
  C   C78       1.0  0.44017  0.64559  0.41366  1.0000
  C   C79       1.0  0.44956  0.67156  0.41330  1.0000
  C   C80       1.0  0.46483  0.68671  0.34262  1.0000
  C   C81       1.0  0.47103  0.67507  0.27365  1.0000
  C   C82       1.0  0.46179  0.64904  0.27433  1.0000
  H   H31       1.0  0.31535  0.51872  0.22194  1.0000
  H   H32       1.0  0.35959  0.53454  0.22289  1.0000
  H   H33       1.0  0.32166  0.55609  0.46508  1.0000
  H   H34       1.0  0.36546  0.57135  0.46683  1.0000
  H   H35       1.0  0.42830  0.63515  0.46402  1.0000
  H   H36       1.0  0.44373  0.67898  0.46253  1.0000
  H   H37       1.0  0.46558  0.64107  0.22108  1.0000
  H   H38       1.0  0.48159  0.68535  0.22050  1.0000
  H   H39       1.0  0.47398  0.57622  0.42168  1.0000
  H   H40       1.0  0.49657  0.55430  0.41790  1.0000
  H   H41       1.0  0.44642  0.50494  0.22416  1.0000
  H   H42       1.0  0.42451  0.52763  0.22478  1.0000
  H   H43       1.0  0.39734  0.53514  0.33083  1.0000
  H   H44       1.0  0.39697  0.60290  0.34715  1.0000
  H   H45       1.0  0.46535  0.60398  0.32522  1.0000
  C   C83       1.0  0.43383  0.82643  0.33907  1.0000
  C   C84       1.0  0.44656  0.85276  0.32991  1.0000
  C   C85       1.0  0.43338  0.86611  0.32586  1.0000
  C   C86       1.0  0.40684  0.85231  0.32865  1.0000
  C   C87       1.0  0.39361  0.82600  0.33784  1.0000
  C   C88       1.0  0.40741  0.81340  0.34255  1.0000
  C   C89       1.0  0.44654  0.89288  0.32274  1.0000
  C   C90       1.0  0.46745  0.90633  0.26605  1.0000
  C   C91       1.0  0.48063  0.93269  0.26467  1.0000
  C   C92       1.0  0.47346  0.94660  0.32022  1.0000
  C   C93       1.0  0.45261  0.93315  0.37713  1.0000
  C   C94       1.0  0.43940  0.90682  0.37829  1.0000
  C   C95       1.0  0.44677  0.81279  0.34529  1.0000
  C   C96       1.0  0.46276  0.81365  0.27605  1.0000
  C   C97       1.0  0.47185  0.79673  0.27500  1.0000
  C   C98       1.0  0.46572  0.77892  0.34404  1.0000
  C   C99       1.0  0.45068  0.77898  0.41527  1.0000
  C   C100      1.0  0.44137  0.79563  0.41591  1.0000
  C   C101      1.0  0.36702  0.81200  0.34335  1.0000
  C   C102      1.0  0.35532  0.79480  0.41391  1.0000
  C   C103      1.0  0.32935  0.77825  0.41377  1.0000
  C   C104      1.0  0.31417  0.77830  0.34302  1.0000
  C   C105      1.0  0.32580  0.79608  0.27388  1.0000
  C   C106      1.0  0.35183  0.81288  0.27442  1.0000
  H   H46       1.0  0.48223  0.79689  0.22148  1.0000
  H   H47       1.0  0.46635  0.82526  0.22248  1.0000
  H   H48       1.0  0.44482  0.76571  0.46443  1.0000
  H   H49       1.0  0.42950  0.79419  0.46628  1.0000
  H   H50       1.0  0.36578  0.79340  0.46424  1.0000
  H   H51       1.0  0.32196  0.76499  0.46298  1.0000
  H   H52       1.0  0.35978  0.82463  0.22114  1.0000
  H   H53       1.0  0.31550  0.79634  0.22076  1.0000
  H   H54       1.0  0.42472  0.89793  0.42173  1.0000
  H   H55       1.0  0.44666  0.94243  0.41802  1.0000
  H   H56       1.0  0.49592  0.94163  0.22387  1.0000
  H   H57       1.0  0.47321  0.89703  0.22443  1.0000
  H   H58       1.0  0.46574  0.86234  0.33042  1.0000
  H   H59       1.0  0.39797  0.79424  0.34700  1.0000
  H   H60       1.0  0.39692  0.86155  0.32531  1.0000
  C   C107      1.0  0.82660  0.39311  0.33920  1.0000
  C   C108      1.0  0.85292  0.40671  0.33005  1.0000
  C   C109      1.0  0.86626  0.43325  0.32593  1.0000
  C   C110      1.0  0.85245  0.44598  0.32867  1.0000
  C   C111      1.0  0.82613  0.43288  0.33783  1.0000
  C   C112      1.0  0.81355  0.40649  0.34259  1.0000
  C   C113      1.0  0.89303  0.44686  0.32277  1.0000
  C   C114      1.0  0.90648  0.43939  0.26608  1.0000
  C   C115      1.0  0.93284  0.45259  0.26461  1.0000
  C   C116      1.0  0.94675  0.47369  0.32007  1.0000
  C   C117      1.0  0.93331  0.48110  0.37699  1.0000
  C   C118      1.0  0.90697  0.46796  0.37822  1.0000
  C   C119      1.0  0.81296  0.36652  0.34543  1.0000
  C   C120      1.0  0.81379  0.35140  0.27614  1.0000
  C   C121      1.0  0.79691  0.32538  0.27518  1.0000
  C   C122      1.0  0.77910  0.31371  0.34423  1.0000
  C   C123      1.0  0.77917  0.32881  0.41549  1.0000
  C   C124      1.0  0.79579  0.35477  0.41603  1.0000
  C   C125      1.0  0.81213  0.44547  0.34322  1.0000
  C   C126      1.0  0.79483  0.43990  0.41350  1.0000
  C   C127      1.0  0.77830  0.44934  0.41325  1.0000
  C   C128      1.0  0.77849  0.46469  0.34271  1.0000
  C   C129      1.0  0.79635  0.47090  0.27380  1.0000
  C   C130      1.0  0.81313  0.46165  0.27448  1.0000
  H   H61       1.0  0.79707  0.31515  0.22168  1.0000
  H   H62       1.0  0.82545  0.35940  0.22270  1.0000
  H   H63       1.0  0.76587  0.32141  0.46456  1.0000
  H   H64       1.0  0.79436  0.36521  0.46638  1.0000
  H   H65       1.0  0.79339  0.42802  0.46384  1.0000
  H   H66       1.0  0.76504  0.44351  0.46244  1.0000
  H   H67       1.0  0.82493  0.46549  0.22134  1.0000
  H   H68       1.0  0.79670  0.48155  0.22084  1.0000
  H   H69       1.0  0.89808  0.47375  0.42167  1.0000
  H   H70       1.0  0.94259  0.49634  0.41782  1.0000
  H   H71       1.0  0.94179  0.44625  0.22381  1.0000
  H   H72       1.0  0.89718  0.42433  0.22451  1.0000
  H   H73       1.0  0.86251  0.39713  0.33059  1.0000
  H   H74       1.0  0.79439  0.39675  0.34699  1.0000
  H   H75       1.0  0.86168  0.46513  0.32528  1.0000
  C   C131      1.0  0.60777  0.43368  0.33909  1.0000
  C   C132      1.0  0.59418  0.44641  0.32991  1.0000
  C   C133      1.0  0.56764  0.43323  0.32586  1.0000
  C   C134      1.0  0.55490  0.40668  0.32861  1.0000
  C   C135      1.0  0.56799  0.39346  0.33779  1.0000
  C   C136      1.0  0.59438  0.40726  0.34252  1.0000
  C   C137      1.0  0.55404  0.44639  0.32277  1.0000
  C   C138      1.0  0.56149  0.46730  0.26606  1.0000
  C   C139      1.0  0.54831  0.48048  0.26467  1.0000
  C   C140      1.0  0.52723  0.47329  0.32018  1.0000
  C   C141      1.0  0.51982  0.45245  0.37711  1.0000
  C   C142      1.0  0.53295  0.43924  0.37828  1.0000
  C   C143      1.0  0.63436  0.44662  0.34531  1.0000
  C   C144      1.0  0.64949  0.46259  0.27607  1.0000
  C   C145      1.0  0.67550  0.47173  0.27514  1.0000
  C   C146      1.0  0.68717  0.46557  0.34414  1.0000
  C   C147      1.0  0.67206  0.45049  0.41525  1.0000
  C   C148      1.0  0.64610  0.44119  0.41589  1.0000
  C   C149      1.0  0.55539  0.36687  0.34326  1.0000
  C   C150      1.0  0.56091  0.35516  0.41374  1.0000
  C   C151      1.0  0.55150  0.32919  0.41353  1.0000
  C   C152      1.0  0.53624  0.31402  0.34287  1.0000
  C   C153      1.0  0.53004  0.32564  0.27381  1.0000
  C   C154      1.0  0.53929  0.35167  0.27438  1.0000
  H   H76       1.0  0.68575  0.48215  0.22170  1.0000
  H   H77       1.0  0.64149  0.46627  0.22267  1.0000
  H   H78       1.0  0.67947  0.44462  0.46444  1.0000
  H   H79       1.0  0.63567  0.42931  0.46624  1.0000
  H   H80       1.0  0.57276  0.36561  0.46413  1.0000
  H   H81       1.0  0.55732  0.32178  0.46284  1.0000
  H   H82       1.0  0.53550  0.35964  0.22112  1.0000
  H   H83       1.0  0.51948  0.31535  0.22070  1.0000
  H   H84       1.0  0.52717  0.42457  0.42176  1.0000
  H   H85       1.0  0.50459  0.44650  0.41800  1.0000
  H   H86       1.0  0.55463  0.49575  0.22380  1.0000
  H   H87       1.0  0.57655  0.47306  0.22443  1.0000
  H   H88       1.0  0.60376  0.46559  0.33050  1.0000
  H   H89       1.0  0.60411  0.39782  0.34695  1.0000
  H   H90       1.0  0.53574  0.39676  0.32529  1.0000
  C   C155      1.0  0.56724  0.17427  0.33918  1.0000
  C   C156      1.0  0.55451  0.14795  0.33000  1.0000
  C   C157      1.0  0.56768  0.13458  0.32592  1.0000
  C   C158      1.0  0.59423  0.14838  0.32863  1.0000
  C   C159      1.0  0.60746  0.17470  0.33781  1.0000
  C   C160      1.0  0.59366  0.18730  0.34256  1.0000
  C   C161      1.0  0.55452  0.10782  0.32281  1.0000
  C   C162      1.0  0.53359  0.09436  0.26616  1.0000
  C   C163      1.0  0.52042  0.06801  0.26477  1.0000
  C   C164      1.0  0.52762  0.05410  0.32018  1.0000
  C   C165      1.0  0.54848  0.06754  0.37706  1.0000
  C   C166      1.0  0.56168  0.09387  0.37824  1.0000
  C   C167      1.0  0.55431  0.18792  0.34542  1.0000
  C   C168      1.0  0.53836  0.18711  0.27615  1.0000
  C   C169      1.0  0.52924  0.20400  0.27522  1.0000
  C   C170      1.0  0.53541  0.22182  0.34426  1.0000
  C   C171      1.0  0.55045  0.22175  0.41545  1.0000
  C   C172      1.0  0.55976  0.20511  0.41599  1.0000
  C   C173      1.0  0.63405  0.18868  0.34322  1.0000
  C   C174      1.0  0.64578  0.20595  0.41359  1.0000
  C   C175      1.0  0.67175  0.22248  0.41339  1.0000
  C   C176      1.0  0.68690  0.22236  0.34270  1.0000
  C   C177      1.0  0.67527  0.20454  0.27370  1.0000
  C   C178      1.0  0.64923  0.18774  0.27437  1.0000
  H   H91       1.0  0.51883  0.20384  0.22178  1.0000
  H   H92       1.0  0.53467  0.17543  0.22273  1.0000
  H   H93       1.0  0.55630  0.23500  0.46471  1.0000
  H   H94       1.0  0.57158  0.20648  0.46646  1.0000
  H   H95       1.0  0.63533  0.20737  0.46395  1.0000
  H   H96       1.0  0.67916  0.23576  0.46255  1.0000
  H   H97       1.0  0.64126  0.17596  0.22118  1.0000
  H   H98       1.0  0.68556  0.20422  0.22066  1.0000
  H   H99       1.0  0.57636  0.10277  0.42168  1.0000
  H   H100      1.0  0.55445  0.05826  0.41786  1.0000
  H   H101      1.0  0.50513  0.05905  0.22395  1.0000
  H   H102      1.0  0.52782  0.10366  0.22462  1.0000
  H   H103      1.0  0.53533  0.13836  0.33062  1.0000
  H   H104      1.0  0.60311  0.20646  0.34698  1.0000
  H   H105      1.0  0.60414  0.13914  0.32527  1.0000
  C   C179      1.0  0.97346  0.48691  0.31992  1.0000
  C   C180      1.0  0.02752  0.51380  0.32003  1.0000
  C   C181      1.0  0.98727  0.49376  0.40073  1.0000
  H   H106      1.0  0.97818  0.48896  0.46083  1.0000
  H   H107      1.0  0.02276  0.51152  0.46089  1.0000
  C   C182      1.0  0.51401  0.48679  0.32006  1.0000
  C   C183      1.0  0.48710  0.51394  0.32023  1.0000
  C   C184      1.0  0.49411  0.50711  0.40094  1.0000
  C   C185      1.0  0.50718  0.49376  0.40088  1.0000
  H   H108      1.0  0.51199  0.48949  0.46098  1.0000
  H   H109      1.0  0.48942  0.51150  0.46108  1.0000
  C   C186      1.0  0.51412  0.02738  0.32003  1.0000
  C   C187      1.0  0.48697  0.97333  0.32017  1.0000
  C   C188      1.0  0.49384  0.98716  0.40088  1.0000
  C   C189      1.0  0.50719  0.01358  0.40085  1.0000
  H   H110      1.0  0.51149  0.02267  0.46095  1.0000
  H   H111      1.0  0.48948  0.97808  0.46103  1.0000
  C   C190      1.0  0.27233  0.52132  0.41174  1.0000
  C   C191      1.0  0.24996  0.52179  0.41108  1.0000
  N   N4        1.0  0.23972  0.51444  0.49159  1.0000
  O   O4        1.0  0.27646  0.51385  0.49245  1.0000
  C   C192      1.0  0.25542  0.50954  0.53769  1.0000
  H   H112      1.0  0.25236  0.50394  0.60283  1.0000
  C   C193      1.0  0.47968  0.75126  0.41111  1.0000
  C   C194      1.0  0.47915  0.72839  0.41055  1.0000
  N   N5        1.0  0.48642  0.72546  0.49115  1.0000
  O   O5        1.0  0.48707  0.76282  0.49193  1.0000
  C   C195      1.0  0.49129  0.74604  0.53729  1.0000
  H   H113      1.0  0.49692  0.74860  0.60238  1.0000
  C   C196      1.0  0.24967  0.72854  0.41166  1.0000
  C   C197      1.0  0.27250  0.75090  0.41106  1.0000
  N   N6        1.0  0.27541  0.76112  0.49161  1.0000
  O   O6        1.0  0.23806  0.72440  0.49237  1.0000
  C   C198      1.0  0.25480  0.74543  0.53767  1.0000
  H   H114      1.0  0.25226  0.74847  0.60282  1.0000
  C   C199      1.0  0.72879  0.47953  0.41133  1.0000
  C   C200      1.0  0.75113  0.47901  0.41077  1.0000
  N   N7        1.0  0.76130  0.48622  0.49144  1.0000
  O   O7        1.0  0.72458  0.48685  0.49222  1.0000
  C   C201      1.0  0.74556  0.49104  0.53763  1.0000
  H   H115      1.0  0.74860  0.49663  0.60277  1.0000
  C   C202      1.0  0.52148  0.24951  0.41155  1.0000
  C   C203      1.0  0.52195  0.27234  0.41093  1.0000
  N   N8        1.0  0.51465  0.27526  0.49151  1.0000
  O   O8        1.0  0.51405  0.23792  0.49230  1.0000
  C   C204      1.0  0.50976  0.25466  0.53761  1.0000
  H   H116      1.0  0.50420  0.25213  0.60277  1.0000
  C   C205      1.0  0.75144  0.27208  0.41134  1.0000
  C   C206      1.0  0.72858  0.24974  0.41076  1.0000
  N   N9        1.0  0.72564  0.23954  0.49138  1.0000
  O   O9        1.0  0.76298  0.27627  0.49219  1.0000
  C   C207      1.0  0.74621  0.25527  0.53756  1.0000
  H   H117      1.0  0.74876  0.25221  0.60267  1.0000
