data_image0
_chemical_formula_structural       C4NC4NH4N2C3NC2NH2CHC3NC2NH2CHC2HC2H3N2C3H2CHC3H2CHC4NC4NH4N2C3NC2NH2CHC3NC2NH2CHC2HC2H3N2C3H2CHC3H2CHC4NC4NH4N2C3NC2NH2CHC3NC2NH2CHC2HC2H3N2C3H2CHC3H2CHC4NC4NH4N2C3NC2NH2CHC3NC2NH2CHC2HC2H3N2C3H2CHC3H2CH
_chemical_formula_sum              "C128 N40 H80"
_cell_length_a       31.5204
_cell_length_b       31.5204
_cell_length_c       14.9735
_cell_angle_alpha    90
_cell_angle_beta     90
_cell_angle_gamma    90

_space_group_name_H-M_alt    "P 1"
_space_group_IT_number       1

loop_
  _space_group_symop_operation_xyz
  'x, y, z'

loop_
  _atom_site_type_symbol
  _atom_site_label
  _atom_site_symmetry_multiplicity
  _atom_site_fract_x
  _atom_site_fract_y
  _atom_site_fract_z
  _atom_site_occupancy
  C   C1        1.0  0.00806  0.49371  0.31059  1.0000
  C   C2        1.0  0.07344  0.42839  0.31375  1.0000
  C   C3        1.0  0.08450  0.47191  0.30923  1.0000
  C   C4        1.0  0.05238  0.50322  0.30861  1.0000
  N   N1        1.0  0.10394  0.39795  0.32493  1.0000
  C   C5        1.0  0.47559  0.02618  0.31359  1.0000
  C   C6        1.0  0.43130  0.01678  0.31437  1.0000
  C   C7        1.0  0.39923  0.04794  0.32297  1.0000
  C   C8        1.0  0.41040  0.09129  0.33189  1.0000
  N   N2        1.0  0.37994  0.12172  0.34387  1.0000
  H   H1        1.0  0.35016  0.11465  0.35078  1.0000
  H   H2        1.0  0.13322  0.40536  0.33656  1.0000
  H   H3        1.0  0.06275  0.03366  0.30581  1.0000
  H   H4        1.0  0.42102  0.48641  0.30905  1.0000
  N   N3        1.0  0.35729  0.03842  0.31917  1.0000
  N   N4        1.0  0.12637  0.48152  0.30489  1.0000
  C   C9        1.0  0.99576  0.21340  0.30601  1.0000
  C   C10       1.0  0.03111  0.23838  0.28009  1.0000
  C   C11       1.0  0.02844  0.28356  0.27806  1.0000
  N   N5        1.0  0.06313  0.30498  0.24791  1.0000
  C   C12       1.0  0.09982  0.28637  0.22176  1.0000
  C   C13       1.0  0.10257  0.24204  0.22542  1.0000
  N   N6        1.0  0.06824  0.22000  0.25381  1.0000
  H   H5        1.0  0.12471  0.30437  0.20007  1.0000
  H   H6        1.0  0.12951  0.22653  0.20626  1.0000
  C   C14       1.0  0.99816  0.16857  0.30838  1.0000
  H   H7        1.0  0.02609  0.15365  0.29384  1.0000
  C   C15       1.0  0.28831  0.00612  0.30263  1.0000
  C   C16       1.0  0.26332  0.97073  0.27704  1.0000
  C   C17       1.0  0.21815  0.97338  0.27514  1.0000
  N   N7        1.0  0.19670  0.93863  0.24539  1.0000
  C   C18       1.0  0.21529  0.90189  0.21954  1.0000
  C   C19       1.0  0.25963  0.89914  0.22313  1.0000
  N   N8        1.0  0.28169  0.93354  0.25108  1.0000
  H   H8        1.0  0.19729  0.87695  0.19812  1.0000
  H   H9        1.0  0.27514  0.87217  0.20412  1.0000
  C   C20       1.0  0.33315  0.00370  0.30513  1.0000
  H   H10       1.0  0.34806  0.97574  0.29093  1.0000
  C   C21       1.0  0.99856  0.44937  0.31022  1.0000
  C   C22       1.0  0.02990  0.41728  0.31057  1.0000
  H   H11       1.0  0.46811  0.43897  0.30951  1.0000
  C   C23       1.0  0.45381  0.10249  0.32439  1.0000
  C   C24       1.0  0.48501  0.07045  0.31608  1.0000
  H   H12       1.0  0.01545  0.08073  0.31307  1.0000
  H   H13       1.0  0.38699  0.15144  0.35177  1.0000
  H   H14       1.0  0.09662  0.36874  0.33760  1.0000
  N   N9        1.0  0.46336  0.14444  0.32153  1.0000
  N   N10       1.0  0.02030  0.37539  0.30699  1.0000
  C   C25       1.0  0.99048  0.30493  0.30330  1.0000
  C   C26       1.0  0.95507  0.27954  0.32568  1.0000
  C   C27       1.0  0.95768  0.23502  0.32742  1.0000
  H   H15       1.0  0.93120  0.21859  0.34635  1.0000
  H   H16       1.0  0.92693  0.29331  0.34394  1.0000
  C   C28       1.0  0.98616  0.34962  0.30818  1.0000
  H   H17       1.0  0.95716  0.36285  0.32117  1.0000
  C   C29       1.0  0.19678  0.01139  0.30005  1.0000
  C   C30       1.0  0.22218  0.04686  0.32200  1.0000
  C   C31       1.0  0.26670  0.04424  0.32376  1.0000
  H   H18       1.0  0.28313  0.07077  0.34234  1.0000
  H   H19       1.0  0.20841  0.07504  0.34001  1.0000
  C   C32       1.0  0.15210  0.01570  0.30515  1.0000
  H   H20       1.0  0.13885  0.04472  0.31782  1.0000
  C   C33       1.0  0.00806  0.99371  0.31059  1.0000
  C   C34       1.0  0.07344  0.92839  0.31375  1.0000
  C   C35       1.0  0.08450  0.97191  0.30923  1.0000
  C   C36       1.0  0.05238  0.00322  0.30861  1.0000
  N   N11       1.0  0.10394  0.89795  0.32493  1.0000
  C   C37       1.0  0.47559  0.52618  0.31359  1.0000
  C   C38       1.0  0.43130  0.51678  0.31437  1.0000
  C   C39       1.0  0.39923  0.54794  0.32297  1.0000
  C   C40       1.0  0.41040  0.59130  0.33189  1.0000
  N   N12       1.0  0.37994  0.62172  0.34387  1.0000
  H   H21       1.0  0.35016  0.61465  0.35078  1.0000
  H   H22       1.0  0.13322  0.90536  0.33656  1.0000
  H   H23       1.0  0.06275  0.53367  0.30581  1.0000
  H   H24       1.0  0.42102  0.98641  0.30905  1.0000
  N   N13       1.0  0.35729  0.53842  0.31917  1.0000
  N   N14       1.0  0.12637  0.98152  0.30489  1.0000
  C   C41       1.0  0.99576  0.71340  0.30601  1.0000
  C   C42       1.0  0.03111  0.73838  0.28009  1.0000
  C   C43       1.0  0.02844  0.78356  0.27806  1.0000
  N   N15       1.0  0.06313  0.80499  0.24791  1.0000
  C   C44       1.0  0.09982  0.78638  0.22176  1.0000
  C   C45       1.0  0.10257  0.74204  0.22542  1.0000
  N   N16       1.0  0.06824  0.72000  0.25381  1.0000
  H   H25       1.0  0.12471  0.80437  0.20007  1.0000
  H   H26       1.0  0.12951  0.72653  0.20626  1.0000
  C   C46       1.0  0.99816  0.66857  0.30838  1.0000
  H   H27       1.0  0.02609  0.65365  0.29384  1.0000
  C   C47       1.0  0.28831  0.50612  0.30263  1.0000
  C   C48       1.0  0.26332  0.47073  0.27704  1.0000
  C   C49       1.0  0.21815  0.47338  0.27514  1.0000
  N   N17       1.0  0.19670  0.43863  0.24539  1.0000
  C   C50       1.0  0.21529  0.40188  0.21954  1.0000
  C   C51       1.0  0.25963  0.39914  0.22313  1.0000
  N   N18       1.0  0.28169  0.43354  0.25108  1.0000
  H   H28       1.0  0.19729  0.37695  0.19812  1.0000
  H   H29       1.0  0.27514  0.37217  0.20412  1.0000
  C   C52       1.0  0.33315  0.50370  0.30513  1.0000
  H   H30       1.0  0.34806  0.47574  0.29093  1.0000
  C   C53       1.0  0.99856  0.94938  0.31022  1.0000
  C   C54       1.0  0.02990  0.91728  0.31057  1.0000
  H   H31       1.0  0.46811  0.93897  0.30951  1.0000
  C   C55       1.0  0.45381  0.60249  0.32439  1.0000
  C   C56       1.0  0.48501  0.57045  0.31608  1.0000
  H   H32       1.0  0.01545  0.58073  0.31307  1.0000
  H   H33       1.0  0.38699  0.65144  0.35177  1.0000
  H   H34       1.0  0.09662  0.86874  0.33760  1.0000
  N   N19       1.0  0.46336  0.64444  0.32153  1.0000
  N   N20       1.0  0.02030  0.87539  0.30699  1.0000
  C   C57       1.0  0.99048  0.80493  0.30330  1.0000
  C   C58       1.0  0.95507  0.77954  0.32568  1.0000
  C   C59       1.0  0.95768  0.73502  0.32742  1.0000
  H   H35       1.0  0.93120  0.71859  0.34635  1.0000
  H   H36       1.0  0.92693  0.79332  0.34394  1.0000
  C   C60       1.0  0.98616  0.84963  0.30818  1.0000
  H   H37       1.0  0.95716  0.86285  0.32117  1.0000
  C   C61       1.0  0.19678  0.51139  0.30005  1.0000
  C   C62       1.0  0.22218  0.54687  0.32200  1.0000
  C   C63       1.0  0.26670  0.54424  0.32376  1.0000
  H   H38       1.0  0.28313  0.57077  0.34234  1.0000
  H   H39       1.0  0.20841  0.57504  0.34001  1.0000
  C   C64       1.0  0.15210  0.51570  0.30515  1.0000
  H   H40       1.0  0.13885  0.54472  0.31782  1.0000
  C   C65       1.0  0.50806  0.49371  0.31059  1.0000
  C   C66       1.0  0.57344  0.42839  0.31375  1.0000
  C   C67       1.0  0.58450  0.47191  0.30923  1.0000
  C   C68       1.0  0.55238  0.50322  0.30861  1.0000
  N   N21       1.0  0.60394  0.39795  0.32493  1.0000
  C   C69       1.0  0.97560  0.02618  0.31359  1.0000
  C   C70       1.0  0.93130  0.01678  0.31437  1.0000
  C   C71       1.0  0.89923  0.04794  0.32297  1.0000
  C   C72       1.0  0.91040  0.09129  0.33189  1.0000
  N   N22       1.0  0.87994  0.12172  0.34387  1.0000
  H   H41       1.0  0.85017  0.11465  0.35078  1.0000
  H   H42       1.0  0.63322  0.40536  0.33656  1.0000
  H   H43       1.0  0.56275  0.03366  0.30581  1.0000
  H   H44       1.0  0.92102  0.48641  0.30905  1.0000
  N   N23       1.0  0.85729  0.03842  0.31917  1.0000
  N   N24       1.0  0.62638  0.48152  0.30489  1.0000
  C   C73       1.0  0.49576  0.21340  0.30601  1.0000
  C   C74       1.0  0.53111  0.23838  0.28009  1.0000
  C   C75       1.0  0.52844  0.28356  0.27806  1.0000
  N   N25       1.0  0.56313  0.30498  0.24791  1.0000
  C   C76       1.0  0.59982  0.28637  0.22176  1.0000
  C   C77       1.0  0.60257  0.24204  0.22542  1.0000
  N   N26       1.0  0.56824  0.22000  0.25381  1.0000
  H   H45       1.0  0.62471  0.30437  0.20007  1.0000
  H   H46       1.0  0.62951  0.22653  0.20626  1.0000
  C   C78       1.0  0.49817  0.16857  0.30838  1.0000
  H   H47       1.0  0.52609  0.15365  0.29384  1.0000
  C   C79       1.0  0.78831  0.00612  0.30263  1.0000
  C   C80       1.0  0.76332  0.97073  0.27704  1.0000
  C   C81       1.0  0.71815  0.97338  0.27514  1.0000
  N   N27       1.0  0.69670  0.93863  0.24539  1.0000
  C   C82       1.0  0.71530  0.90189  0.21954  1.0000
  C   C83       1.0  0.75963  0.89914  0.22313  1.0000
  N   N28       1.0  0.78169  0.93354  0.25108  1.0000
  H   H48       1.0  0.69729  0.87695  0.19812  1.0000
  H   H49       1.0  0.77514  0.87217  0.20412  1.0000
  C   C84       1.0  0.83315  0.00370  0.30513  1.0000
  H   H50       1.0  0.84806  0.97574  0.29093  1.0000
  C   C85       1.0  0.49856  0.44937  0.31022  1.0000
  C   C86       1.0  0.52990  0.41728  0.31057  1.0000
  H   H51       1.0  0.96810  0.43897  0.30951  1.0000
  C   C87       1.0  0.95381  0.10249  0.32439  1.0000
  C   C88       1.0  0.98502  0.07045  0.31608  1.0000
  H   H52       1.0  0.51545  0.08073  0.31307  1.0000
  H   H53       1.0  0.88699  0.15144  0.35177  1.0000
  H   H54       1.0  0.59662  0.36874  0.33760  1.0000
  N   N29       1.0  0.96336  0.14444  0.32153  1.0000
  N   N30       1.0  0.52030  0.37539  0.30699  1.0000
  C   C89       1.0  0.49048  0.30493  0.30330  1.0000
  C   C90       1.0  0.45507  0.27954  0.32568  1.0000
  C   C91       1.0  0.45768  0.23502  0.32742  1.0000
  H   H55       1.0  0.43121  0.21859  0.34635  1.0000
  H   H56       1.0  0.42693  0.29331  0.34394  1.0000
  C   C92       1.0  0.48615  0.34962  0.30818  1.0000
  H   H57       1.0  0.45716  0.36285  0.32117  1.0000
  C   C93       1.0  0.69679  0.01139  0.30005  1.0000
  C   C94       1.0  0.72218  0.04686  0.32200  1.0000
  C   C95       1.0  0.76670  0.04424  0.32376  1.0000
  H   H58       1.0  0.78313  0.07077  0.34234  1.0000
  H   H59       1.0  0.70841  0.07504  0.34001  1.0000
  C   C96       1.0  0.65210  0.01570  0.30515  1.0000
  H   H60       1.0  0.63885  0.04472  0.31782  1.0000
  C   C97       1.0  0.50806  0.99371  0.31059  1.0000
  C   C98       1.0  0.57344  0.92839  0.31375  1.0000
  C   C99       1.0  0.58450  0.97191  0.30923  1.0000
  C   C100      1.0  0.55238  0.00322  0.30861  1.0000
  N   N31       1.0  0.60394  0.89795  0.32493  1.0000
  C   C101      1.0  0.97560  0.52618  0.31359  1.0000
  C   C102      1.0  0.93130  0.51678  0.31437  1.0000
  C   C103      1.0  0.89923  0.54794  0.32297  1.0000
  C   C104      1.0  0.91040  0.59130  0.33189  1.0000
  N   N32       1.0  0.87994  0.62172  0.34387  1.0000
  H   H61       1.0  0.85017  0.61465  0.35078  1.0000
  H   H62       1.0  0.63322  0.90536  0.33656  1.0000
  H   H63       1.0  0.56275  0.53367  0.30581  1.0000
  H   H64       1.0  0.92102  0.98641  0.30905  1.0000
  N   N33       1.0  0.85729  0.53842  0.31917  1.0000
  N   N34       1.0  0.62638  0.98152  0.30489  1.0000
  C   C105      1.0  0.49576  0.71340  0.30601  1.0000
  C   C106      1.0  0.53111  0.73838  0.28009  1.0000
  C   C107      1.0  0.52844  0.78356  0.27806  1.0000
  N   N35       1.0  0.56313  0.80499  0.24791  1.0000
  C   C108      1.0  0.59982  0.78638  0.22176  1.0000
  C   C109      1.0  0.60257  0.74204  0.22542  1.0000
  N   N36       1.0  0.56824  0.72000  0.25381  1.0000
  H   H65       1.0  0.62471  0.80437  0.20007  1.0000
  H   H66       1.0  0.62951  0.72653  0.20626  1.0000
  C   C110      1.0  0.49817  0.66857  0.30838  1.0000
  H   H67       1.0  0.52609  0.65365  0.29384  1.0000
  C   C111      1.0  0.78831  0.50612  0.30263  1.0000
  C   C112      1.0  0.76332  0.47073  0.27704  1.0000
  C   C113      1.0  0.71815  0.47338  0.27514  1.0000
  N   N37       1.0  0.69670  0.43863  0.24539  1.0000
  C   C114      1.0  0.71530  0.40188  0.21954  1.0000
  C   C115      1.0  0.75963  0.39914  0.22313  1.0000
  N   N38       1.0  0.78169  0.43354  0.25108  1.0000
  H   H68       1.0  0.69729  0.37695  0.19812  1.0000
  H   H69       1.0  0.77514  0.37217  0.20412  1.0000
  C   C116      1.0  0.83315  0.50370  0.30513  1.0000
  H   H70       1.0  0.84806  0.47574  0.29093  1.0000
  C   C117      1.0  0.49856  0.94938  0.31022  1.0000
  C   C118      1.0  0.52990  0.91728  0.31057  1.0000
  H   H71       1.0  0.96810  0.93897  0.30951  1.0000
  C   C119      1.0  0.95381  0.60249  0.32439  1.0000
  C   C120      1.0  0.98502  0.57045  0.31608  1.0000
  H   H72       1.0  0.51545  0.58073  0.31307  1.0000
  H   H73       1.0  0.88699  0.65144  0.35177  1.0000
  H   H74       1.0  0.59662  0.86874  0.33760  1.0000
  N   N39       1.0  0.96336  0.64444  0.32153  1.0000
  N   N40       1.0  0.52030  0.87539  0.30699  1.0000
  C   C121      1.0  0.49048  0.80493  0.30330  1.0000
  C   C122      1.0  0.45507  0.77954  0.32568  1.0000
  C   C123      1.0  0.45768  0.73502  0.32742  1.0000
  H   H75       1.0  0.43121  0.71859  0.34635  1.0000
  H   H76       1.0  0.42693  0.79332  0.34394  1.0000
  C   C124      1.0  0.48615  0.84963  0.30818  1.0000
  H   H77       1.0  0.45716  0.86285  0.32117  1.0000
  C   C125      1.0  0.69679  0.51139  0.30005  1.0000
  C   C126      1.0  0.72218  0.54687  0.32200  1.0000
  C   C127      1.0  0.76670  0.54424  0.32376  1.0000
  H   H78       1.0  0.78313  0.57077  0.34234  1.0000
  H   H79       1.0  0.70841  0.57504  0.34001  1.0000
  C   C128      1.0  0.65210  0.51570  0.30515  1.0000
  H   H80       1.0  0.63885  0.54472  0.31782  1.0000
