data_image0
_chemical_formula_structural       CNC2NHCHNHC4H2C2H2NCHNCHNCHNCHNCHNCHC2NCNH2C2NCNH2C2NH2C2NCNH2C2NCNH2CNC2NCNH2C2NCNH2C2NCNH2C2NCNH2C2NCNH2C2NCNH2CNCNCNC15H10CNCNCNC18H12CNCNCNC15H10CNCNCNC18H12CNCNCNC18H12CNCNCNC18H12CNCNCNC18H12CNCNCNC18H12CNCNCNC18H12CNCNCNC18H12CNCNCNC18H12CNCNCNC18H12C2NCNH2C2NCNH2C2NCNH2C2NCNH2C2NCNH2C2NCNH2NCHNCHN2CHNCHCHNCHNCHNCHNCHNCHNCH
_chemical_formula_sum              "C324 N90 H198"
_cell_length_a       74.0982
_cell_length_b       74.0982
_cell_length_c       14.9764
_cell_angle_alpha    90
_cell_angle_beta     90
_cell_angle_gamma    120

_space_group_name_H-M_alt    "P 1"
_space_group_IT_number       1

loop_
  _space_group_symop_operation_xyz
  'x, y, z'

loop_
  _atom_site_type_symbol
  _atom_site_label
  _atom_site_symmetry_multiplicity
  _atom_site_fract_x
  _atom_site_fract_y
  _atom_site_fract_z
  _atom_site_occupancy
  C   C1        1.0  0.01836  0.80437  0.33529  1.0000
  N   N1        1.0  0.00790  0.79911  0.25646  1.0000
  C   C2        1.0  0.01841  0.20100  0.32997  1.0000
  C   C3        1.0  0.00670  0.19520  0.24952  1.0000
  N   N2        1.0  0.01521  0.19950  0.16676  1.0000
  H   H1        1.0  0.00636  0.19511  0.11402  1.0000
  C   C4        1.0  0.00660  0.79852  0.41467  1.0000
  H   H2        1.0  0.01360  0.80206  0.47597  1.0000
  N   N3        1.0  0.00794  0.19574  0.40892  1.0000
  H   H3        1.0  0.03020  0.20700  0.15773  1.0000
  C   C5        1.0  0.04038  0.21191  0.33283  1.0000
  C   C6        1.0  0.04031  0.81542  0.33547  1.0000
  C   C7        1.0  0.05146  0.20101  0.33353  1.0000
  C   C8        1.0  0.05161  0.23388  0.33350  1.0000
  H   H4        1.0  0.04364  0.18506  0.33276  1.0000
  H   H5        1.0  0.04391  0.24214  0.33270  1.0000
  C   C9        1.0  0.05153  0.80468  0.33505  1.0000
  C   C10       1.0  0.05139  0.83740  0.33523  1.0000
  H   H6        1.0  0.04383  0.78872  0.33497  1.0000
  H   H7        1.0  0.04358  0.84554  0.33527  1.0000
  N   N4        1.0  0.18907  0.37653  0.26096  1.0000
  C   C11       1.0  0.19960  0.39761  0.25504  1.0000
  H   H8        1.0  0.20309  0.40460  0.19370  1.0000
  N   N5        1.0  0.61205  0.79954  0.26095  1.0000
  C   C12       1.0  0.59097  0.78898  0.25503  1.0000
  H   H9        1.0  0.58398  0.78549  0.19369  1.0000
  N   N6        1.0  0.18903  0.79952  0.26096  1.0000
  C   C13       1.0  0.19958  0.78898  0.25503  1.0000
  H   H10       1.0  0.20307  0.78549  0.19369  1.0000
  N   N7        1.0  0.80438  0.60721  0.26096  1.0000
  C   C14       1.0  0.79385  0.58612  0.25503  1.0000
  H   H11       1.0  0.79036  0.57914  0.19370  1.0000
  N   N8        1.0  0.38138  0.18417  0.26096  1.0000
  C   C15       1.0  0.40247  0.19472  0.25504  1.0000
  H   H12       1.0  0.40945  0.19821  0.19370  1.0000
  N   N9        1.0  0.80440  0.18421  0.26096  1.0000
  C   C16       1.0  0.79384  0.19474  0.25504  1.0000
  H   H13       1.0  0.79035  0.19824  0.19370  1.0000
  C   C17       1.0  0.20586  0.17931  0.32997  1.0000
  C   C18       1.0  0.18420  0.20099  0.33529  1.0000
  N   N10       1.0  0.18947  0.19580  0.25646  1.0000
  C   C19       1.0  0.20006  0.18522  0.24952  1.0000
  N   N11       1.0  0.20435  0.18101  0.16676  1.0000
  H   H14       1.0  0.21186  0.17352  0.15773  1.0000
  H   H15       1.0  0.19997  0.18547  0.11401  1.0000
  C   C20       1.0  0.80927  0.01355  0.32996  1.0000
  C   C21       1.0  0.78759  0.97022  0.33529  1.0000
  N   N12       1.0  0.79278  0.98068  0.25646  1.0000
  C   C22       1.0  0.80336  0.00185  0.24951  1.0000
  N   N13       1.0  0.80757  0.01035  0.16675  1.0000
  H   H16       1.0  0.81506  0.02534  0.15773  1.0000
  H   H17       1.0  0.80311  0.00150  0.11401  1.0000
  C   C23       1.0  0.97503  0.78272  0.32996  1.0000
  C   C24       1.0  0.98673  0.78852  0.24951  1.0000
  N   N14       1.0  0.97823  0.78423  0.16675  1.0000
  H   H18       1.0  0.96324  0.77672  0.15773  1.0000
  H   H19       1.0  0.98708  0.78862  0.11401  1.0000
  C   C25       1.0  0.78757  0.80441  0.32997  1.0000
  C   C26       1.0  0.80923  0.78273  0.33529  1.0000
  N   N15       1.0  0.80396  0.78793  0.25646  1.0000
  C   C27       1.0  0.79337  0.79851  0.24952  1.0000
  N   N16       1.0  0.78908  0.80272  0.16676  1.0000
  H   H20       1.0  0.78158  0.81020  0.15773  1.0000
  H   H21       1.0  0.79347  0.79826  0.11402  1.0000
  C   C28       1.0  0.18417  0.97017  0.32997  1.0000
  C   C29       1.0  0.20585  0.01351  0.33529  1.0000
  N   N17       1.0  0.20066  0.00304  0.25646  1.0000
  C   C30       1.0  0.19008  0.98188  0.24952  1.0000
  N   N18       1.0  0.18587  0.97337  0.16676  1.0000
  H   H22       1.0  0.17838  0.95838  0.15773  1.0000
  H   H23       1.0  0.19033  0.98222  0.11401  1.0000
  C   C31       1.0  0.97507  0.17935  0.33529  1.0000
  N   N19       1.0  0.98554  0.18462  0.25646  1.0000
  C   C32       1.0  0.21138  0.61802  0.33069  1.0000
  C   C33       1.0  0.21124  0.58027  0.33484  1.0000
  N   N20       1.0  0.21168  0.58981  0.25669  1.0000
  C   C34       1.0  0.21101  0.60777  0.25001  1.0000
  N   N21       1.0  0.21203  0.61571  0.16750  1.0000
  H   H24       1.0  0.21150  0.62843  0.15883  1.0000
  H   H25       1.0  0.21197  0.60807  0.11457  1.0000
  C   C35       1.0  0.37057  0.58033  0.33048  1.0000
  C   C36       1.0  0.40830  0.61796  0.33488  1.0000
  N   N22       1.0  0.39881  0.60886  0.25666  1.0000
  C   C37       1.0  0.38085  0.59020  0.24991  1.0000
  N   N23       1.0  0.37295  0.58328  0.16737  1.0000
  H   H26       1.0  0.36013  0.57011  0.15866  1.0000
  H   H27       1.0  0.38051  0.59094  0.11445  1.0000
  C   C38       1.0  0.40825  0.77720  0.33045  1.0000
  C   C39       1.0  0.37059  0.77735  0.33459  1.0000
  N   N24       1.0  0.37974  0.77700  0.25648  1.0000
  C   C40       1.0  0.39838  0.77766  0.24990  1.0000
  N   N25       1.0  0.40536  0.77675  0.16739  1.0000
  H   H28       1.0  0.41852  0.77710  0.15875  1.0000
  H   H29       1.0  0.39773  0.77670  0.11443  1.0000
  C   C41       1.0  0.78199  0.36568  0.33081  1.0000
  C   C42       1.0  0.78225  0.40348  0.33485  1.0000
  N   N26       1.0  0.78179  0.39397  0.25664  1.0000
  C   C43       1.0  0.78240  0.37596  0.25012  1.0000
  N   N27       1.0  0.78143  0.36804  0.16762  1.0000
  H   H30       1.0  0.78183  0.35524  0.15898  1.0000
  H   H31       1.0  0.78143  0.37564  0.11465  1.0000
  C   C44       1.0  0.62292  0.40336  0.33068  1.0000
  C   C45       1.0  0.58509  0.36574  0.33485  1.0000
  N   N28       1.0  0.59463  0.37484  0.25673  1.0000
  C   C46       1.0  0.61262  0.39347  0.25009  1.0000
  N   N29       1.0  0.62054  0.40037  0.16756  1.0000
  H   H32       1.0  0.63328  0.41361  0.15886  1.0000
  H   H33       1.0  0.61288  0.39280  0.11465  1.0000
  C   C47       1.0  0.58519  0.20648  0.33049  1.0000
  C   C48       1.0  0.62282  0.20637  0.33489  1.0000
  N   N30       1.0  0.61372  0.20676  0.25668  1.0000
  C   C49       1.0  0.59506  0.20607  0.24991  1.0000
  N   N31       1.0  0.58814  0.20705  0.16738  1.0000
  H   H34       1.0  0.57497  0.20670  0.15867  1.0000
  H   H35       1.0  0.59580  0.20714  0.11446  1.0000
  C   C50       1.0  0.13951  0.24509  0.33477  1.0000
  N   N32       1.0  0.14960  0.26628  0.33473  1.0000
  C   C51       1.0  0.13951  0.27737  0.33473  1.0000
  N   N33       1.0  0.11832  0.26628  0.33483  1.0000
  C   C52       1.0  0.10722  0.24509  0.33490  1.0000
  N   N34       1.0  0.11831  0.23498  0.33485  1.0000
  C   C53       1.0  0.15063  0.29962  0.33500  1.0000
  C   C54       1.0  0.17273  0.31110  0.33533  1.0000
  C   C55       1.0  0.18373  0.33303  0.33645  1.0000
  C   C56       1.0  0.17288  0.34415  0.33727  1.0000
  C   C57       1.0  0.15092  0.33302  0.33655  1.0000
  C   C58       1.0  0.13999  0.31109  0.33543  1.0000
  C   C59       1.0  0.15072  0.23402  0.33486  1.0000
  C   C60       1.0  0.17283  0.24472  0.33483  1.0000
  C   C61       1.0  0.18390  0.23386  0.33504  1.0000
  C   C62       1.0  0.17316  0.21189  0.33547  1.0000
  C   C63       1.0  0.15118  0.20100  0.33523  1.0000
  C   C64       1.0  0.14017  0.21193  0.33500  1.0000
  C   C65       1.0  0.08495  0.23403  0.33477  1.0000
  C   C66       1.0  0.07339  0.21193  0.33449  1.0000
  C   C67       1.0  0.07354  0.24473  0.33448  1.0000
  H   H36       1.0  0.19986  0.24212  0.33497  1.0000
  H   H37       1.0  0.18124  0.26065  0.33464  1.0000
  H   H38       1.0  0.14304  0.18504  0.33528  1.0000
  H   H39       1.0  0.12424  0.20342  0.33493  1.0000
  H   H40       1.0  0.08081  0.20342  0.33458  1.0000
  H   H41       1.0  0.08107  0.26066  0.33454  1.0000
  H   H42       1.0  0.12406  0.30361  0.33532  1.0000
  H   H43       1.0  0.14272  0.34077  0.33738  1.0000
  H   H44       1.0  0.19968  0.34079  0.33718  1.0000
  H   H45       1.0  0.18120  0.30363  0.33513  1.0000
  C   C68       1.0  0.74349  0.88143  0.33477  1.0000
  N   N35       1.0  0.72230  0.87033  0.33473  1.0000
  C   C69       1.0  0.71121  0.84915  0.33473  1.0000
  N   N36       1.0  0.72230  0.83905  0.33483  1.0000
  C   C70       1.0  0.74349  0.84914  0.33491  1.0000
  N   N37       1.0  0.75360  0.87034  0.33485  1.0000
  C   C71       1.0  0.68896  0.83801  0.33500  1.0000
  C   C72       1.0  0.67748  0.84864  0.33532  1.0000
  C   C73       1.0  0.65555  0.83770  0.33644  1.0000
  C   C74       1.0  0.64443  0.81574  0.33726  1.0000
  C   C75       1.0  0.65556  0.80490  0.33654  1.0000
  C   C76       1.0  0.67749  0.81591  0.33543  1.0000
  C   C77       1.0  0.75456  0.90370  0.33486  1.0000
  C   C78       1.0  0.74386  0.91512  0.33484  1.0000
  C   C79       1.0  0.75472  0.93705  0.33505  1.0000
  C   C80       1.0  0.77669  0.94827  0.33547  1.0000
  C   C81       1.0  0.78758  0.93719  0.33523  1.0000
  C   C82       1.0  0.77666  0.91525  0.33501  1.0000
  C   C83       1.0  0.75455  0.83793  0.33478  1.0000
  C   C84       1.0  0.77665  0.84847  0.33449  1.0000
  C   C85       1.0  0.78757  0.83745  0.33352  1.0000
  C   C86       1.0  0.77667  0.81548  0.33283  1.0000
  C   C87       1.0  0.75470  0.80474  0.33352  1.0000
  C   C88       1.0  0.74385  0.81582  0.33448  1.0000
  H   H46       1.0  0.74646  0.94475  0.33498  1.0000
  H   H47       1.0  0.72793  0.90760  0.33465  1.0000
  H   H48       1.0  0.80354  0.94500  0.33527  1.0000
  H   H49       1.0  0.78516  0.90783  0.33493  1.0000
  H   H50       1.0  0.78516  0.86440  0.33458  1.0000
  H   H51       1.0  0.80352  0.84559  0.33274  1.0000
  H   H52       1.0  0.72791  0.80741  0.33455  1.0000
  H   H53       1.0  0.74644  0.78878  0.33271  1.0000
  H   H54       1.0  0.68497  0.80745  0.33531  1.0000
  H   H55       1.0  0.64781  0.78895  0.33736  1.0000
  H   H56       1.0  0.64779  0.84590  0.33718  1.0000
  H   H57       1.0  0.68495  0.86457  0.33514  1.0000
  C   C89       1.0  0.10714  0.84907  0.33477  1.0000
  N   N38       1.0  0.11825  0.83898  0.33473  1.0000
  C   C90       1.0  0.13943  0.84908  0.33473  1.0000
  N   N39       1.0  0.14952  0.87026  0.33483  1.0000
  C   C91       1.0  0.13944  0.88136  0.33491  1.0000
  N   N40       1.0  0.11824  0.87027  0.33485  1.0000
  C   C92       1.0  0.15056  0.83795  0.33501  1.0000
  C   C93       1.0  0.13993  0.81585  0.33533  1.0000
  C   C94       1.0  0.15087  0.80486  0.33645  1.0000
  C   C95       1.0  0.17284  0.81570  0.33727  1.0000
  C   C96       1.0  0.18367  0.83767  0.33656  1.0000
  C   C97       1.0  0.17267  0.84859  0.33543  1.0000
  C   C98       1.0  0.08488  0.83786  0.33486  1.0000
  C   C99       1.0  0.07347  0.81575  0.33484  1.0000
  C   C100      1.0  0.07332  0.84841  0.33500  1.0000
  C   C101      1.0  0.15065  0.90363  0.33477  1.0000
  C   C102      1.0  0.14011  0.91519  0.33449  1.0000
  C   C103      1.0  0.15113  0.93713  0.33353  1.0000
  C   C104      1.0  0.17310  0.94820  0.33283  1.0000
  C   C105      1.0  0.18384  0.93697  0.33350  1.0000
  C   C106      1.0  0.17276  0.91504  0.33448  1.0000
  H   H58       1.0  0.08099  0.80734  0.33464  1.0000
  H   H59       1.0  0.08075  0.86434  0.33493  1.0000
  H   H60       1.0  0.12418  0.90777  0.33458  1.0000
  H   H61       1.0  0.14299  0.94494  0.33276  1.0000
  H   H62       1.0  0.18117  0.90751  0.33454  1.0000
  H   H63       1.0  0.19980  0.94467  0.33270  1.0000
  H   H64       1.0  0.18113  0.86452  0.33532  1.0000
  H   H65       1.0  0.19962  0.84587  0.33738  1.0000
  H   H66       1.0  0.14268  0.78890  0.33718  1.0000
  H   H67       1.0  0.12400  0.80739  0.33513  1.0000
  C   C107      1.0  0.85392  0.73864  0.33477  1.0000
  N   N41       1.0  0.84384  0.71745  0.33473  1.0000
  C   C108      1.0  0.85393  0.70636  0.33473  1.0000
  N   N42       1.0  0.87512  0.71745  0.33484  1.0000
  C   C109      1.0  0.88622  0.73864  0.33491  1.0000
  N   N43       1.0  0.87513  0.74875  0.33486  1.0000
  C   C110      1.0  0.84281  0.68411  0.33501  1.0000
  C   C111      1.0  0.82071  0.67263  0.33532  1.0000
  C   C112      1.0  0.80971  0.65070  0.33645  1.0000
  C   C113      1.0  0.82056  0.63958  0.33726  1.0000
  C   C114      1.0  0.84252  0.65072  0.33655  1.0000
  C   C115      1.0  0.85345  0.67264  0.33543  1.0000
  C   C116      1.0  0.84272  0.74971  0.33487  1.0000
  C   C117      1.0  0.82061  0.73901  0.33484  1.0000
  C   C118      1.0  0.80953  0.74987  0.33505  1.0000
  C   C119      1.0  0.82028  0.77183  0.33547  1.0000
  C   C120      1.0  0.84225  0.78273  0.33523  1.0000
  C   C121      1.0  0.85327  0.77180  0.33501  1.0000
  C   C122      1.0  0.90849  0.74970  0.33478  1.0000
  C   C123      1.0  0.92005  0.77180  0.33449  1.0000
  C   C124      1.0  0.94198  0.78272  0.33350  1.0000
  C   C125      1.0  0.95305  0.77181  0.33282  1.0000
  C   C126      1.0  0.94183  0.74985  0.33352  1.0000
  C   C127      1.0  0.91989  0.73899  0.33448  1.0000
  H   H68       1.0  0.79358  0.74161  0.33497  1.0000
  H   H69       1.0  0.81220  0.72308  0.33465  1.0000
  H   H70       1.0  0.85040  0.79868  0.33527  1.0000
  H   H71       1.0  0.86920  0.78031  0.33493  1.0000
  H   H72       1.0  0.91263  0.78031  0.33457  1.0000
  H   H73       1.0  0.94980  0.79867  0.33273  1.0000
  H   H74       1.0  0.91237  0.72306  0.33456  1.0000
  H   H75       1.0  0.94952  0.74159  0.33272  1.0000
  H   H76       1.0  0.86938  0.68012  0.33531  1.0000
  H   H77       1.0  0.85072  0.64296  0.33737  1.0000
  H   H78       1.0  0.79376  0.64294  0.33719  1.0000
  H   H79       1.0  0.81224  0.68010  0.33514  1.0000
  C   C128      1.0  0.24994  0.10229  0.33477  1.0000
  N   N44       1.0  0.27113  0.11339  0.33473  1.0000
  C   C129      1.0  0.28222  0.13458  0.33473  1.0000
  N   N45       1.0  0.27113  0.14467  0.33483  1.0000
  C   C130      1.0  0.24994  0.13459  0.33490  1.0000
  N   N46       1.0  0.23983  0.11338  0.33485  1.0000
  C   C131      1.0  0.30448  0.14571  0.33501  1.0000
  C   C132      1.0  0.31595  0.13508  0.33533  1.0000
  C   C133      1.0  0.33788  0.14602  0.33645  1.0000
  C   C134      1.0  0.34901  0.16798  0.33727  1.0000
  C   C135      1.0  0.33787  0.17882  0.33656  1.0000
  C   C136      1.0  0.31594  0.16781  0.33543  1.0000
  C   C137      1.0  0.23888  0.08002  0.33486  1.0000
  C   C138      1.0  0.24958  0.06861  0.33483  1.0000
  C   C139      1.0  0.23872  0.04668  0.33504  1.0000
  C   C140      1.0  0.21675  0.03545  0.33547  1.0000
  C   C141      1.0  0.20585  0.04653  0.33523  1.0000
  C   C142      1.0  0.21678  0.06847  0.33500  1.0000
  C   C143      1.0  0.23888  0.14580  0.33477  1.0000
  C   C144      1.0  0.21678  0.13525  0.33449  1.0000
  C   C145      1.0  0.20586  0.14627  0.33352  1.0000
  C   C146      1.0  0.21677  0.16824  0.33283  1.0000
  C   C147      1.0  0.23873  0.17899  0.33350  1.0000
  C   C148      1.0  0.24959  0.16791  0.33447  1.0000
  H   H80       1.0  0.24697  0.03898  0.33497  1.0000
  H   H81       1.0  0.26551  0.07613  0.33464  1.0000
  H   H82       1.0  0.18990  0.03872  0.33528  1.0000
  H   H83       1.0  0.20827  0.07589  0.33493  1.0000
  H   H84       1.0  0.20827  0.11932  0.33458  1.0000
  H   H85       1.0  0.18991  0.13813  0.33275  1.0000
  H   H86       1.0  0.26552  0.17631  0.33454  1.0000
  H   H87       1.0  0.24699  0.19494  0.33270  1.0000
  H   H88       1.0  0.30847  0.17627  0.33532  1.0000
  H   H89       1.0  0.34563  0.19477  0.33738  1.0000
  H   H90       1.0  0.34564  0.13782  0.33718  1.0000
  H   H91       1.0  0.30848  0.11915  0.33513  1.0000
  C   C149      1.0  0.88629  0.13466  0.33477  1.0000
  N   N47       1.0  0.87518  0.14474  0.33473  1.0000
  C   C150      1.0  0.85400  0.13465  0.33473  1.0000
  N   N48       1.0  0.84391  0.11347  0.33483  1.0000
  C   C151      1.0  0.85399  0.10236  0.33491  1.0000
  N   N49       1.0  0.87519  0.11346  0.33485  1.0000
  C   C152      1.0  0.84287  0.14577  0.33501  1.0000
  C   C153      1.0  0.85350  0.16788  0.33532  1.0000
  C   C154      1.0  0.84256  0.17887  0.33645  1.0000
  C   C155      1.0  0.82059  0.16803  0.33726  1.0000
  C   C156      1.0  0.80976  0.14606  0.33654  1.0000
  C   C157      1.0  0.82076  0.13513  0.33543  1.0000
  C   C158      1.0  0.90856  0.14586  0.33486  1.0000
  C   C159      1.0  0.91997  0.16797  0.33484  1.0000
  C   C160      1.0  0.94190  0.17905  0.33505  1.0000
  C   C161      1.0  0.95313  0.16830  0.33547  1.0000
  C   C162      1.0  0.94205  0.14633  0.33523  1.0000
  C   C163      1.0  0.92011  0.13531  0.33501  1.0000
  C   C164      1.0  0.84279  0.08009  0.33477  1.0000
  C   C165      1.0  0.85333  0.06854  0.33448  1.0000
  C   C166      1.0  0.84231  0.04660  0.33350  1.0000
  C   C167      1.0  0.82034  0.03553  0.33282  1.0000
  C   C168      1.0  0.80959  0.04675  0.33351  1.0000
  C   C169      1.0  0.82068  0.06869  0.33448  1.0000
  H   H92       1.0  0.94960  0.19500  0.33497  1.0000
  H   H93       1.0  0.91245  0.17638  0.33464  1.0000
  H   H94       1.0  0.94986  0.13818  0.33528  1.0000
  H   H95       1.0  0.91269  0.11939  0.33494  1.0000
  H   H96       1.0  0.86926  0.07595  0.33458  1.0000
  H   H97       1.0  0.85045  0.03879  0.33274  1.0000
  H   H98       1.0  0.81227  0.07621  0.33456  1.0000
  H   H99       1.0  0.79364  0.03906  0.33271  1.0000
  H   H100      1.0  0.81231  0.11920  0.33531  1.0000
  H   H101      1.0  0.79381  0.13786  0.33736  1.0000
  H   H102      1.0  0.85075  0.19482  0.33719  1.0000
  H   H103      1.0  0.86943  0.17634  0.33514  1.0000
  C   C170      1.0  0.24971  0.53028  0.33530  1.0000
  N   N50       1.0  0.23955  0.50910  0.33524  1.0000
  C   C171      1.0  0.24980  0.49808  0.33545  1.0000
  N   N51       1.0  0.27107  0.50911  0.33569  1.0000
  C   C172      1.0  0.28208  0.53029  0.33587  1.0000
  N   N52       1.0  0.27081  0.54012  0.33561  1.0000
  C   C173      1.0  0.23868  0.47583  0.33511  1.0000
  C   C174      1.0  0.21657  0.46435  0.33488  1.0000
  C   C175      1.0  0.20558  0.44243  0.33448  1.0000
  C   C176      1.0  0.21643  0.43131  0.33410  1.0000
  C   C177      1.0  0.23840  0.44244  0.33458  1.0000
  C   C178      1.0  0.24932  0.46437  0.33499  1.0000
  C   C179      1.0  0.23949  0.54228  0.33482  1.0000
  C   C180      1.0  0.21747  0.53295  0.33627  1.0000
  C   C181      1.0  0.20775  0.54519  0.33623  1.0000
  C   C182      1.0  0.21989  0.56712  0.33445  1.0000
  C   C183      1.0  0.24179  0.57656  0.33261  1.0000
  C   C184      1.0  0.25137  0.56436  0.33293  1.0000
  C   C185      1.0  0.30430  0.54230  0.33571  1.0000
  C   C186      1.0  0.31449  0.56438  0.33660  1.0000
  C   C187      1.0  0.33627  0.57659  0.33545  1.0000
  C   C188      1.0  0.34874  0.56715  0.33340  1.0000
  C   C189      1.0  0.33894  0.54521  0.33282  1.0000
  C   C190      1.0  0.31699  0.53297  0.33404  1.0000
  H   H104      1.0  0.19183  0.53802  0.33756  1.0000
  H   H105      1.0  0.20823  0.51708  0.33769  1.0000
  H   H106      1.0  0.25102  0.59247  0.33139  1.0000
  H   H107      1.0  0.26730  0.57204  0.33174  1.0000
  H   H108      1.0  0.30623  0.57205  0.33775  1.0000
  H   H109      1.0  0.34295  0.59250  0.33557  1.0000
  H   H110      1.0  0.31037  0.51710  0.33318  1.0000
  H   H111      1.0  0.34769  0.53805  0.33099  1.0000
  H   H112      1.0  0.26525  0.47183  0.33524  1.0000
  H   H113      1.0  0.24660  0.43468  0.33462  1.0000
  H   H114      1.0  0.18963  0.43466  0.33444  1.0000
  H   H115      1.0  0.20810  0.47181  0.33507  1.0000
  C   C191      1.0  0.45830  0.70642  0.33533  1.0000
  N   N53       1.0  0.47948  0.71743  0.33526  1.0000
  C   C192      1.0  0.49050  0.73870  0.33547  1.0000
  N   N54       1.0  0.47947  0.74894  0.33572  1.0000
  C   C193      1.0  0.45829  0.73877  0.33591  1.0000
  N   N55       1.0  0.44846  0.71768  0.33565  1.0000
  C   C194      1.0  0.51275  0.74983  0.33513  1.0000
  C   C195      1.0  0.52423  0.73921  0.33489  1.0000
  C   C196      1.0  0.54616  0.75014  0.33448  1.0000
  C   C197      1.0  0.55727  0.77211  0.33410  1.0000
  C   C198      1.0  0.54614  0.78294  0.33458  1.0000
  C   C199      1.0  0.52421  0.77194  0.33499  1.0000
  C   C200      1.0  0.44630  0.68419  0.33486  1.0000
  C   C201      1.0  0.45563  0.67150  0.33629  1.0000
  C   C202      1.0  0.44338  0.64955  0.33625  1.0000
  C   C203      1.0  0.42145  0.63975  0.33450  1.0000
  C   C204      1.0  0.41201  0.65222  0.33268  1.0000
  C   C205      1.0  0.42421  0.67400  0.33300  1.0000
  C   C206      1.0  0.44629  0.74899  0.33577  1.0000
  C   C207      1.0  0.42421  0.73710  0.33672  1.0000
  C   C208      1.0  0.41200  0.74667  0.33555  1.0000
  C   C209      1.0  0.42143  0.76857  0.33342  1.0000
  C   C210      1.0  0.44337  0.78072  0.33279  1.0000
  C   C211      1.0  0.45562  0.77101  0.33403  1.0000
  H   H116      1.0  0.45055  0.64079  0.33757  1.0000
  H   H117      1.0  0.47149  0.67813  0.33768  1.0000
  H   H118      1.0  0.39610  0.64554  0.33147  1.0000
  H   H119      1.0  0.41654  0.68226  0.33181  1.0000
  H   H120      1.0  0.41653  0.72117  0.33792  1.0000
  H   H121      1.0  0.39609  0.73743  0.33571  1.0000
  H   H122      1.0  0.47149  0.78025  0.33310  1.0000
  H   H123      1.0  0.45053  0.79663  0.33088  1.0000
  H   H124      1.0  0.51675  0.78040  0.33525  1.0000
  H   H125      1.0  0.55389  0.79890  0.33462  1.0000
  H   H126      1.0  0.55392  0.74196  0.33444  1.0000
  H   H127      1.0  0.51677  0.72328  0.33508  1.0000
  C   C212      1.0  0.28214  0.73887  0.33535  1.0000
  N   N56       1.0  0.27112  0.74904  0.33529  1.0000
  C   C213      1.0  0.24985  0.73879  0.33546  1.0000
  N   N57       1.0  0.23961  0.71752  0.33568  1.0000
  C   C214      1.0  0.24979  0.70651  0.33587  1.0000
  N   N58       1.0  0.27088  0.71778  0.33564  1.0000
  C   C215      1.0  0.23872  0.74991  0.33512  1.0000
  C   C216      1.0  0.24935  0.77201  0.33489  1.0000
  C   C217      1.0  0.23841  0.78300  0.33448  1.0000
  C   C218      1.0  0.21644  0.77215  0.33408  1.0000
  C   C219      1.0  0.20561  0.75019  0.33456  1.0000
  C   C220      1.0  0.21661  0.73926  0.33498  1.0000
  C   C221      1.0  0.30436  0.74910  0.33489  1.0000
  C   C222      1.0  0.31705  0.77112  0.33628  1.0000
  C   C223      1.0  0.33900  0.78084  0.33619  1.0000
  C   C224      1.0  0.34880  0.76870  0.33446  1.0000
  C   C225      1.0  0.33634  0.74680  0.33266  1.0000
  C   C226      1.0  0.31456  0.73722  0.33303  1.0000
  C   C227      1.0  0.23957  0.68429  0.33569  1.0000
  C   C228      1.0  0.25147  0.67410  0.33657  1.0000
  C   C229      1.0  0.24191  0.65233  0.33545  1.0000
  C   C230      1.0  0.22001  0.63985  0.33339  1.0000
  C   C231      1.0  0.20785  0.64964  0.33286  1.0000
  C   C232      1.0  0.21755  0.67159  0.33406  1.0000
  H   H128      1.0  0.34775  0.79676  0.33742  1.0000
  H   H129      1.0  0.31042  0.78036  0.33765  1.0000
  H   H130      1.0  0.34301  0.73757  0.33141  1.0000
  H   H131      1.0  0.30630  0.72128  0.33186  1.0000
  H   H132      1.0  0.26740  0.68237  0.33772  1.0000
  H   H133      1.0  0.25115  0.64566  0.33560  1.0000
  H   H134      1.0  0.20830  0.67821  0.33321  1.0000
  H   H135      1.0  0.19194  0.64088  0.33109  1.0000
  H   H136      1.0  0.20815  0.72333  0.33523  1.0000
  H   H137      1.0  0.18965  0.74198  0.33460  1.0000
  H   H138      1.0  0.24660  0.79895  0.33445  1.0000
  H   H139      1.0  0.26528  0.78048  0.33509  1.0000
  C   C233      1.0  0.74376  0.45346  0.33523  1.0000
  N   N59       1.0  0.75392  0.47464  0.33519  1.0000
  C   C234      1.0  0.74367  0.48566  0.33540  1.0000
  N   N60       1.0  0.72240  0.47462  0.33563  1.0000
  C   C235      1.0  0.71140  0.45344  0.33580  1.0000
  N   N61       1.0  0.72267  0.44362  0.33553  1.0000
  C   C236      1.0  0.75479  0.50791  0.33509  1.0000
  C   C237      1.0  0.77689  0.51939  0.33487  1.0000
  C   C238      1.0  0.78788  0.54131  0.33447  1.0000
  C   C239      1.0  0.77702  0.55243  0.33410  1.0000
  C   C240      1.0  0.75506  0.54129  0.33457  1.0000
  C   C241      1.0  0.74414  0.51937  0.33497  1.0000
  C   C242      1.0  0.75399  0.44147  0.33476  1.0000
  C   C243      1.0  0.77601  0.45080  0.33623  1.0000
  C   C244      1.0  0.78573  0.43856  0.33621  1.0000
  C   C245      1.0  0.77360  0.41663  0.33442  1.0000
  C   C246      1.0  0.75169  0.40718  0.33256  1.0000
  C   C247      1.0  0.74211  0.41938  0.33287  1.0000
  C   C248      1.0  0.68917  0.44143  0.33565  1.0000
  C   C249      1.0  0.67899  0.41935  0.33658  1.0000
  C   C250      1.0  0.65721  0.40713  0.33548  1.0000
  C   C251      1.0  0.64474  0.41656  0.33340  1.0000
  C   C252      1.0  0.65452  0.43850  0.33282  1.0000
  C   C253      1.0  0.67648  0.45075  0.33400  1.0000
  H   H140      1.0  0.80165  0.44573  0.33756  1.0000
  H   H141      1.0  0.78525  0.46667  0.33765  1.0000
  H   H142      1.0  0.74247  0.39128  0.33135  1.0000
  H   H143      1.0  0.72618  0.41171  0.33167  1.0000
  H   H144      1.0  0.68726  0.41168  0.33775  1.0000
  H   H145      1.0  0.65055  0.39123  0.33567  1.0000
  H   H146      1.0  0.68309  0.46662  0.33312  1.0000
  H   H147      1.0  0.64576  0.44565  0.33102  1.0000
  H   H148      1.0  0.72821  0.51189  0.33521  1.0000
  H   H149      1.0  0.74685  0.54904  0.33461  1.0000
  H   H150      1.0  0.80383  0.54908  0.33444  1.0000
  H   H151      1.0  0.78536  0.51193  0.33505  1.0000
  C   C254      1.0  0.53513  0.27728  0.33528  1.0000
  N   N62       1.0  0.51395  0.26626  0.33523  1.0000
  C   C255      1.0  0.50293  0.24499  0.33544  1.0000
  N   N63       1.0  0.51397  0.23475  0.33569  1.0000
  C   C256      1.0  0.53514  0.24493  0.33587  1.0000
  N   N64       1.0  0.54497  0.26602  0.33560  1.0000
  C   C257      1.0  0.48068  0.23386  0.33511  1.0000
  C   C258      1.0  0.46920  0.24449  0.33487  1.0000
  C   C259      1.0  0.44728  0.23355  0.33447  1.0000
  C   C260      1.0  0.43616  0.21158  0.33410  1.0000
  C   C261      1.0  0.44729  0.20075  0.33458  1.0000
  C   C262      1.0  0.46922  0.21175  0.33499  1.0000
  C   C263      1.0  0.54712  0.29950  0.33480  1.0000
  C   C264      1.0  0.53778  0.31218  0.33625  1.0000
  C   C265      1.0  0.55001  0.33414  0.33623  1.0000
  C   C266      1.0  0.57195  0.34394  0.33444  1.0000
  C   C267      1.0  0.58140  0.33149  0.33259  1.0000
  C   C268      1.0  0.56920  0.30970  0.33290  1.0000
  C   C269      1.0  0.54715  0.23471  0.33571  1.0000
  C   C270      1.0  0.56924  0.24660  0.33660  1.0000
  C   C271      1.0  0.58145  0.23704  0.33546  1.0000
  C   C272      1.0  0.57201  0.21514  0.33340  1.0000
  C   C273      1.0  0.55007  0.20299  0.33282  1.0000
  C   C274      1.0  0.53782  0.21269  0.33404  1.0000
  H   H152      1.0  0.54284  0.34289  0.33757  1.0000
  H   H153      1.0  0.52191  0.30555  0.33768  1.0000
  H   H154      1.0  0.59730  0.33817  0.33137  1.0000
  H   H155      1.0  0.57688  0.30145  0.33171  1.0000
  H   H156      1.0  0.57691  0.26254  0.33775  1.0000
  H   H157      1.0  0.59735  0.24627  0.33557  1.0000
  H   H158      1.0  0.52196  0.20345  0.33318  1.0000
  H   H159      1.0  0.54291  0.18707  0.33100  1.0000
  H   H160      1.0  0.47669  0.20329  0.33524  1.0000
  H   H161      1.0  0.43954  0.18479  0.33462  1.0000
  H   H162      1.0  0.43951  0.24174  0.33444  1.0000
  H   H163      1.0  0.47666  0.26042  0.33506  1.0000
  C   C275      1.0  0.71128  0.24484  0.33524  1.0000
  N   N65       1.0  0.72229  0.23468  0.33520  1.0000
  C   C276      1.0  0.74356  0.24493  0.33539  1.0000
  N   N66       1.0  0.75380  0.26620  0.33559  1.0000
  C   C277      1.0  0.74363  0.27720  0.33576  1.0000
  N   N67       1.0  0.72253  0.26593  0.33552  1.0000
  C   C278      1.0  0.75470  0.23381  0.33508  1.0000
  C   C279      1.0  0.74407  0.21171  0.33486  1.0000
  C   C280      1.0  0.75501  0.20072  0.33448  1.0000
  C   C281      1.0  0.77698  0.21157  0.33410  1.0000
  C   C282      1.0  0.78781  0.23353  0.33457  1.0000
  C   C283      1.0  0.77680  0.24446  0.33496  1.0000
  C   C284      1.0  0.68905  0.23462  0.33481  1.0000
  C   C285      1.0  0.67636  0.21260  0.33625  1.0000
  C   C286      1.0  0.65441  0.20288  0.33624  1.0000
  C   C287      1.0  0.64461  0.21502  0.33450  1.0000
  C   C288      1.0  0.65707  0.23692  0.33268  1.0000
  C   C289      1.0  0.67885  0.24650  0.33296  1.0000
  C   C290      1.0  0.75384  0.29943  0.33560  1.0000
  C   C291      1.0  0.74193  0.30961  0.33650  1.0000
  C   C292      1.0  0.75148  0.33138  0.33543  1.0000
  C   C293      1.0  0.77338  0.34386  0.33339  1.0000
  C   C294      1.0  0.78555  0.33408  0.33286  1.0000
  C   C295      1.0  0.77585  0.31213  0.33399  1.0000
  H   H164      1.0  0.64565  0.18696  0.33756  1.0000
  H   H165      1.0  0.68299  0.20336  0.33763  1.0000
  H   H166      1.0  0.65040  0.24615  0.33148  1.0000
  H   H167      1.0  0.68711  0.26243  0.33177  1.0000
  H   H168      1.0  0.72600  0.30134  0.33764  1.0000
  H   H169      1.0  0.74224  0.33804  0.33563  1.0000
  H   H170      1.0  0.78511  0.30552  0.33316  1.0000
  H   H171      1.0  0.80146  0.34285  0.33113  1.0000
  H   H172      1.0  0.78526  0.26039  0.33520  1.0000
  H   H173      1.0  0.80376  0.24174  0.33460  1.0000
  H   H174      1.0  0.74682  0.18476  0.33445  1.0000
  H   H175      1.0  0.72814  0.20323  0.33505  1.0000
  C   C296      1.0  0.18385  0.36611  0.34001  1.0000
  C   C297      1.0  0.20548  0.40939  0.33438  1.0000
  N   N68       1.0  0.20027  0.39898  0.41332  1.0000
  C   C298      1.0  0.18970  0.37783  0.42042  1.0000
  N   N69       1.0  0.18547  0.36936  0.50323  1.0000
  H   H176      1.0  0.17798  0.35437  0.51236  1.0000
  H   H177      1.0  0.18989  0.37822  0.55592  1.0000
  C   C299      1.0  0.62248  0.80475  0.34001  1.0000
  C   C300      1.0  0.57919  0.78308  0.33437  1.0000
  N   N70       1.0  0.58960  0.78829  0.41331  1.0000
  C   C301      1.0  0.61076  0.79888  0.42041  1.0000
  N   N71       1.0  0.61923  0.80312  0.50322  1.0000
  H   H178      1.0  0.63421  0.81062  0.51235  1.0000
  H   H179      1.0  0.61036  0.79867  0.55591  1.0000
  C   C302      1.0  0.18382  0.80473  0.34001  1.0000
  C   C303      1.0  0.20548  0.78310  0.33437  1.0000
  N   N72       1.0  0.20028  0.78831  0.41331  1.0000
  C   C304      1.0  0.18969  0.79888  0.42041  1.0000
  N   N73       1.0  0.18546  0.80312  0.50323  1.0000
  H   H180      1.0  0.17796  0.81060  0.51236  1.0000
  H   H181      1.0  0.18990  0.79869  0.55591  1.0000
  C   C305      1.0  0.80959  0.61763  0.34001  1.0000
  C   C306      1.0  0.78797  0.57435  0.33438  1.0000
  N   N74       1.0  0.79317  0.58475  0.41332  1.0000
  C   C307      1.0  0.80374  0.60591  0.42042  1.0000
  N   N75       1.0  0.80798  0.61438  0.50323  1.0000
  H   H182      1.0  0.81546  0.62937  0.51236  1.0000
  H   H183      1.0  0.80355  0.60551  0.55592  1.0000
  C   C308      1.0  0.37096  0.17896  0.34001  1.0000
  C   C309      1.0  0.41424  0.20062  0.33438  1.0000
  N   N76       1.0  0.40383  0.19542  0.41332  1.0000
  C   C310      1.0  0.38268  0.18483  0.42042  1.0000
  N   N77       1.0  0.37421  0.18060  0.50323  1.0000
  H   H184      1.0  0.35922  0.17310  0.51236  1.0000
  H   H185      1.0  0.38307  0.18504  0.55592  1.0000
  C   C311      1.0  0.80961  0.17900  0.34001  1.0000
  C   C312      1.0  0.78795  0.20062  0.33438  1.0000
  N   N78       1.0  0.79315  0.19541  0.41332  1.0000
  C   C313      1.0  0.80374  0.18485  0.42041  1.0000
  N   N79       1.0  0.80797  0.18061  0.50323  1.0000
  H   H186      1.0  0.81547  0.17312  0.51236  1.0000
  H   H187      1.0  0.80353  0.18503  0.55591  1.0000
  N   N80       1.0  0.20059  0.18452  0.40892  1.0000
  C   C314      1.0  0.19006  0.19508  0.41468  1.0000
  H   H188      1.0  0.18652  0.19854  0.47597  1.0000
  N   N81       1.0  0.80406  0.00308  0.40892  1.0000
  C   C315      1.0  0.79350  0.98198  0.41468  1.0000
  H   H189      1.0  0.79003  0.97498  0.47597  1.0000
  N   N82       1.0  0.98550  0.78799  0.40892  1.0000
  N   N83       1.0  0.79284  0.79921  0.40892  1.0000
  C   C316      1.0  0.80337  0.78864  0.41468  1.0000
  H   H190      1.0  0.80691  0.78518  0.47597  1.0000
  N   N84       1.0  0.18937  0.98064  0.40892  1.0000
  C   C317      1.0  0.19994  0.00174  0.41468  1.0000
  H   H191      1.0  0.20340  0.00874  0.47597  1.0000
  C   C318      1.0  0.98684  0.18520  0.41468  1.0000
  H   H192      1.0  0.97984  0.18166  0.47598  1.0000
  N   N85       1.0  0.21187  0.60898  0.40894  1.0000
  C   C319      1.0  0.21087  0.59024  0.41441  1.0000
  H   H193      1.0  0.21284  0.58519  0.47523  1.0000
  N   N86       1.0  0.37957  0.58990  0.40875  1.0000
  C   C320      1.0  0.39834  0.60759  0.41445  1.0000
  H   H194      1.0  0.40325  0.61470  0.47519  1.0000
  N   N87       1.0  0.39861  0.77661  0.40857  1.0000
  C   C321      1.0  0.38090  0.77767  0.41421  1.0000
  H   H195      1.0  0.37384  0.77552  0.47503  1.0000
  N   N88       1.0  0.78153  0.37477  0.40901  1.0000
  C   C322      1.0  0.78259  0.39353  0.41453  1.0000
  H   H196      1.0  0.78062  0.39860  0.47532  1.0000
  N   N89       1.0  0.61383  0.39378  0.40883  1.0000
  C   C323      1.0  0.59508  0.37607  0.41440  1.0000
  H   H197      1.0  0.59004  0.36906  0.47523  1.0000
  N   N90       1.0  0.59476  0.20705  0.40877  1.0000
  C   C324      1.0  0.61245  0.20597  0.41446  1.0000
  H   H198      1.0  0.61956  0.20817  0.47519  1.0000
