data_image0
_chemical_formula_structural       C3OH2C3OH2C3OH2C3HOHC3HOHC3HOHCNCNCNC18H12CNCNCNC18H12CNCNCNC18H12CNCNCNC18H12C3HOHC3HOHC3HOHC3OH2C3OH2C3OH2
_chemical_formula_sum              "C120 O12 H72 N12"
_cell_length_a       44.965
_cell_length_b       44.965
_cell_length_c       15.0097
_cell_angle_alpha    90
_cell_angle_beta     90
_cell_angle_gamma    120

_space_group_name_H-M_alt    "P 1"
_space_group_IT_number       1

loop_
  _space_group_symop_operation_xyz
  'x, y, z'

loop_
  _atom_site_type_symbol
  _atom_site_label
  _atom_site_symmetry_multiplicity
  _atom_site_fract_x
  _atom_site_fract_y
  _atom_site_fract_z
  _atom_site_occupancy
  C   C1        1.0  0.19152  0.10834  0.26269  1.0000
  C   C2        1.0  0.22766  0.12627  0.25953  1.0000
  C   C3        1.0  0.24682  0.12321  0.33039  1.0000
  O   O1        1.0  0.24317  0.14613  0.18674  1.0000
  H   H1        1.0  0.17827  0.11064  0.21017  1.0000
  H   H2        1.0  0.24920  0.13242  0.14750  1.0000
  C   C4        1.0  0.87880  0.08299  0.26258  1.0000
  C   C5        1.0  0.86086  0.10119  0.25940  1.0000
  C   C6        1.0  0.86398  0.12347  0.33015  1.0000
  O   O2        1.0  0.84094  0.09677  0.18670  1.0000
  H   H3        1.0  0.87644  0.06737  0.21015  1.0000
  H   H4        1.0  0.85461  0.11647  0.14734  1.0000
  C   C7        1.0  0.90416  0.79566  0.26271  1.0000
  C   C8        1.0  0.88594  0.75951  0.25956  1.0000
  C   C9        1.0  0.86373  0.74036  0.33041  1.0000
  O   O3        1.0  0.89030  0.74401  0.18677  1.0000
  H   H5        1.0  0.91972  0.80891  0.21020  1.0000
  H   H6        1.0  0.87056  0.73798  0.14753  1.0000
  C   C10       1.0  0.57855  0.13236  0.25743  1.0000
  C   C11       1.0  0.54742  0.13227  0.24613  1.0000
  C   C12       1.0  0.52930  0.13394  0.32152  1.0000
  H   H7        1.0  0.59324  0.13540  0.20225  1.0000
  O   O4        1.0  0.53850  0.13591  0.16180  1.0000
  H   H8        1.0  0.51711  0.11455  0.14792  1.0000
  C   C13       1.0  0.85473  0.44588  0.25741  1.0000
  C   C14       1.0  0.85485  0.41483  0.24649  1.0000
  C   C15       1.0  0.85314  0.39515  0.32218  1.0000
  H   H9        1.0  0.85174  0.45744  0.20199  1.0000
  O   O5        1.0  0.85116  0.40212  0.16231  1.0000
  H   H10       1.0  0.87248  0.40201  0.14857  1.0000
  C   C16       1.0  0.54113  0.40867  0.25740  1.0000
  C   C17       1.0  0.57214  0.43983  0.24621  1.0000
  C   C18       1.0  0.59195  0.45788  0.32164  1.0000
  H   H11       1.0  0.52948  0.39404  0.20215  1.0000
  O   O6        1.0  0.58469  0.44885  0.16188  1.0000
  H   H12       1.0  0.58471  0.47025  0.14824  1.0000
  C   C19       1.0  0.97378  0.96025  0.33557  1.0000
  N   N1        1.0  0.00868  0.97847  0.33558  1.0000
  C   C20       1.0  0.02692  0.01337  0.33556  1.0000
  N   N2        1.0  0.00871  0.03005  0.33553  1.0000
  C   C21       1.0  0.97381  0.01340  0.33553  1.0000
  N   N3        1.0  0.95712  0.97850  0.33555  1.0000
  C   C22       1.0  0.06353  0.03166  0.33555  1.0000
  C   C23       1.0  0.08237  0.01428  0.34460  1.0000
  C   C24       1.0  0.11848  0.03231  0.34489  1.0000
  C   C25       1.0  0.13707  0.06841  0.33567  1.0000
  C   C26       1.0  0.11851  0.08593  0.32593  1.0000
  C   C27       1.0  0.08240  0.06788  0.32635  1.0000
  C   C28       1.0  0.95546  0.92365  0.33557  1.0000
  C   C29       1.0  0.97281  0.90478  0.32639  1.0000
  C   C30       1.0  0.95475  0.86866  0.32595  1.0000
  C   C31       1.0  0.91867  0.85010  0.33569  1.0000
  C   C32       1.0  0.90116  0.86869  0.34489  1.0000
  C   C33       1.0  0.91924  0.90480  0.34459  1.0000
  C   C34       1.0  0.95552  0.03172  0.33547  1.0000
  C   C35       1.0  0.91930  0.01437  0.32642  1.0000
  C   C36       1.0  0.90125  0.03244  0.32595  1.0000
  C   C37       1.0  0.91878  0.06853  0.33552  1.0000
  C   C38       1.0  0.95488  0.08604  0.34458  1.0000
  C   C39       1.0  0.97291  0.06795  0.34432  1.0000
  H   H13       1.0  0.96827  0.85601  0.31966  1.0000
  H   H14       1.0  0.99893  0.91708  0.31936  1.0000
  H   H15       1.0  0.87497  0.85606  0.35070  1.0000
  H   H16       1.0  0.90543  0.91713  0.35138  1.0000
  H   H17       1.0  0.90547  0.98825  0.31955  1.0000
  H   H18       1.0  0.87507  0.01892  0.31977  1.0000
  H   H19       1.0  0.99904  0.08176  0.35100  1.0000
  H   H20       1.0  0.96845  0.11223  0.35025  1.0000
  H   H21       1.0  0.07010  0.08169  0.31930  1.0000
  H   H22       1.0  0.13117  0.11210  0.31960  1.0000
  H   H23       1.0  0.13111  0.01875  0.35072  1.0000
  H   H24       1.0  0.07005  0.98815  0.35142  1.0000
  C   C40       1.0  0.44648  0.19664  0.32551  1.0000
  N   N4        1.0  0.41160  0.17977  0.32584  1.0000
  C   C41       1.0  0.39344  0.19656  0.33116  1.0000
  N   N5        1.0  0.41153  0.23149  0.33707  1.0000
  C   C42       1.0  0.44641  0.24953  0.33855  1.0000
  N   N6        1.0  0.46299  0.23137  0.33230  1.0000
  C   C43       1.0  0.35684  0.17824  0.33066  1.0000
  C   C44       1.0  0.33799  0.14199  0.33884  1.0000
  C   C45       1.0  0.30188  0.12392  0.33906  1.0000
  C   C46       1.0  0.28332  0.14146  0.32992  1.0000
  C   C47       1.0  0.30188  0.17758  0.32152  1.0000
  C   C48       1.0  0.33799  0.19564  0.32222  1.0000
  C   C49       1.0  0.46568  0.17942  0.31871  1.0000
  C   C50       1.0  0.45185  0.14465  0.34444  1.0000
  C   C51       1.0  0.47221  0.12887  0.34355  1.0000
  C   C52       1.0  0.50657  0.14710  0.31359  1.0000
  C   C53       1.0  0.52019  0.18152  0.28587  1.0000
  C   C54       1.0  0.50013  0.19738  0.28859  1.0000
  C   C55       1.0  0.46554  0.28593  0.34588  1.0000
  C   C56       1.0  0.49978  0.30237  0.37759  1.0000
  C   C57       1.0  0.51985  0.33830  0.38053  1.0000
  C   C58       1.0  0.50645  0.35913  0.35141  1.0000
  C   C59       1.0  0.47227  0.34303  0.32004  1.0000
  C   C60       1.0  0.45188  0.30690  0.31898  1.0000
  H   H25       1.0  0.46198  0.10420  0.36617  1.0000
  H   H26       1.0  0.42727  0.13091  0.36815  1.0000
  H   H27       1.0  0.54536  0.19587  0.26670  1.0000
  H   H28       1.0  0.51134  0.22254  0.26922  1.0000
  H   H29       1.0  0.51084  0.28840  0.39790  1.0000
  H   H30       1.0  0.54490  0.34908  0.40073  1.0000
  H   H31       1.0  0.42750  0.29607  0.29389  1.0000
  H   H32       1.0  0.46223  0.35749  0.29627  1.0000
  H   H33       1.0  0.35031  0.22179  0.31595  1.0000
  H   H34       1.0  0.28924  0.19114  0.31611  1.0000
  H   H35       1.0  0.28923  0.09773  0.34487  1.0000
  H   H36       1.0  0.35031  0.12818  0.34565  1.0000
  C   C61       1.0  0.79044  0.24963  0.32604  1.0000
  N   N7        1.0  0.80732  0.23163  0.32611  1.0000
  C   C62       1.0  0.79056  0.19668  0.33126  1.0000
  N   N8        1.0  0.75563  0.17981  0.33723  1.0000
  C   C63       1.0  0.73757  0.19662  0.33895  1.0000
  N   N9        1.0  0.75571  0.23137  0.33288  1.0000
  C   C64       1.0  0.80890  0.17842  0.33059  1.0000
  C   C65       1.0  0.84516  0.19584  0.33857  1.0000
  C   C66       1.0  0.86325  0.17782  0.33869  1.0000
  C   C67       1.0  0.84572  0.14171  0.32969  1.0000
  C   C68       1.0  0.80959  0.12413  0.32150  1.0000
  C   C69       1.0  0.79152  0.14217  0.32226  1.0000
  C   C70       1.0  0.80762  0.28605  0.31937  1.0000
  C   C71       1.0  0.84249  0.30700  0.34432  1.0000
  C   C72       1.0  0.85825  0.34313  0.34358  1.0000
  C   C73       1.0  0.83990  0.35924  0.31443  1.0000
  C   C74       1.0  0.80541  0.33846  0.28737  1.0000
  C   C75       1.0  0.78956  0.30254  0.29005  1.0000
  C   C76       1.0  0.70117  0.17933  0.34628  1.0000
  C   C77       1.0  0.68471  0.19707  0.37827  1.0000
  C   C78       1.0  0.64879  0.18121  0.38118  1.0000
  C   C79       1.0  0.62796  0.14703  0.35168  1.0000
  C   C80       1.0  0.64409  0.12901  0.32000  1.0000
  C   C81       1.0  0.68021  0.14474  0.31906  1.0000
  H   H37       1.0  0.88300  0.35759  0.36569  1.0000
  H   H38       1.0  0.85629  0.29616  0.36759  1.0000
  H   H39       1.0  0.79100  0.34928  0.26870  1.0000
  H   H40       1.0  0.76435  0.28859  0.27114  1.0000
  H   H41       1.0  0.69868  0.22208  0.39880  1.0000
  H   H42       1.0  0.63800  0.19546  0.40150  1.0000
  H   H43       1.0  0.69104  0.13123  0.29373  1.0000
  H   H44       1.0  0.62963  0.10455  0.29598  1.0000
  H   H45       1.0  0.76536  0.12832  0.31615  1.0000
  H   H46       1.0  0.79603  0.09792  0.31619  1.0000
  H   H47       1.0  0.88945  0.19137  0.34435  1.0000
  H   H48       1.0  0.85896  0.22197  0.34526  1.0000
  C   C82       1.0  0.73747  0.54070  0.32537  1.0000
  N   N10       1.0  0.75549  0.57558  0.32577  1.0000
  C   C83       1.0  0.79043  0.59373  0.33102  1.0000
  N   N11       1.0  0.80727  0.57563  0.33679  1.0000
  C   C84       1.0  0.79043  0.54075  0.33817  1.0000
  N   N12       1.0  0.75568  0.52418  0.33200  1.0000
  C   C85       1.0  0.80872  0.63033  0.33059  1.0000
  C   C86       1.0  0.79133  0.64919  0.33882  1.0000
  C   C87       1.0  0.80937  0.68530  0.33908  1.0000
  C   C88       1.0  0.84547  0.70386  0.32994  1.0000
  C   C89       1.0  0.86303  0.68529  0.32151  1.0000
  C   C90       1.0  0.84497  0.64918  0.32217  1.0000
  C   C91       1.0  0.70105  0.52150  0.31865  1.0000
  C   C92       1.0  0.68011  0.53534  0.34439  1.0000
  C   C93       1.0  0.64398  0.51498  0.34359  1.0000
  C   C94       1.0  0.62784  0.48061  0.31370  1.0000
  C   C95       1.0  0.64862  0.46698  0.28598  1.0000
  C   C96       1.0  0.68454  0.48704  0.28861  1.0000
  C   C97       1.0  0.80769  0.52161  0.34539  1.0000
  C   C98       1.0  0.78985  0.48731  0.37667  1.0000
  C   C99       1.0  0.80571  0.46726  0.37963  1.0000
  C   C100      1.0  0.84001  0.48073  0.35100  1.0000
  C   C101      1.0  0.85814  0.51497  0.32006  1.0000
  C   C102      1.0  0.84237  0.53532  0.31890  1.0000
  H   H49       1.0  0.62954  0.52522  0.36620  1.0000
  H   H50       1.0  0.69097  0.55993  0.36805  1.0000
  H   H51       1.0  0.63780  0.44180  0.26685  1.0000
  H   H52       1.0  0.69848  0.47582  0.26924  1.0000
  H   H53       1.0  0.76477  0.47619  0.39664  1.0000
  H   H54       1.0  0.79143  0.44217  0.39957  1.0000
  H   H55       1.0  0.85599  0.55978  0.29427  1.0000
  H   H56       1.0  0.88271  0.52507  0.29671  1.0000
  H   H57       1.0  0.85879  0.63686  0.31587  1.0000
  H   H58       1.0  0.88923  0.69793  0.31611  1.0000
  H   H59       1.0  0.79584  0.69796  0.34490  1.0000
  H   H60       1.0  0.76520  0.63687  0.34561  1.0000
  C   C103      1.0  0.22889  0.10153  0.40289  1.0000
  C   C104      1.0  0.19275  0.08361  0.40604  1.0000
  C   C105      1.0  0.17358  0.08665  0.33517  1.0000
  H   H61       1.0  0.24215  0.09922  0.45538  1.0000
  O   O7        1.0  0.17726  0.06379  0.47890  1.0000
  H   H62       1.0  0.17124  0.07752  0.51809  1.0000
  C   C106      1.0  0.88572  0.12729  0.40256  1.0000
  C   C107      1.0  0.90365  0.10907  0.40574  1.0000
  C   C108      1.0  0.90055  0.08680  0.33497  1.0000
  H   H63       1.0  0.88807  0.14290  0.45498  1.0000
  O   O8        1.0  0.92352  0.11346  0.47853  1.0000
  H   H64       1.0  0.90981  0.09375  0.51784  1.0000
  C   C109      1.0  0.85998  0.75829  0.40290  1.0000
  C   C110      1.0  0.87819  0.79443  0.40606  1.0000
  C   C111      1.0  0.90040  0.81359  0.33519  1.0000
  H   H65       1.0  0.84439  0.74503  0.45538  1.0000
  O   O9        1.0  0.87385  0.80992  0.47891  1.0000
  H   H66       1.0  0.89360  0.81594  0.51810  1.0000
  C   C112      1.0  0.54118  0.13225  0.40751  1.0000
  C   C113      1.0  0.57224  0.13219  0.41887  1.0000
  C   C114      1.0  0.59208  0.13400  0.34343  1.0000
  O   O10       1.0  0.58472  0.13569  0.50327  1.0000
  H   H67       1.0  0.52953  0.13523  0.46277  1.0000
  H   H68       1.0  0.58481  0.11434  0.51684  1.0000
  C   C115      1.0  0.85493  0.40891  0.40797  1.0000
  C   C116      1.0  0.85496  0.44003  0.41884  1.0000
  C   C117      1.0  0.85313  0.45796  0.34318  1.0000
  O   O11       1.0  0.85141  0.44912  0.50307  1.0000
  H   H69       1.0  0.85187  0.39431  0.46333  1.0000
  H   H70       1.0  0.87276  0.47057  0.51658  1.0000
  C   C118      1.0  0.57841  0.44590  0.40760  1.0000
  C   C119      1.0  0.54731  0.41480  0.41883  1.0000
  C   C120      1.0  0.52927  0.39501  0.34332  1.0000
  O   O12       1.0  0.53837  0.40223  0.50316  1.0000
  H   H71       1.0  0.59305  0.45750  0.46287  1.0000
  H   H72       1.0  0.51694  0.40212  0.51692  1.0000
