data_image0
_chemical_formula_structural       C4NC2NCHCH2C4NC2NCHCH2C4NC2NCHCH2C4NC2NCHCH2C4NC2NCHCH2C4NC2NCHCH2C2H2CH2CH2C2H2CH2CH2C2H2CH2CH2C2H2CH2CH2C2H2CH2CH2C2H2CH2CH2C4NC2NCHCH2C4NC2NCHCH2C4NC2NCHCH2C4NC2NCHCH2C4NC2NCHCH2C4NC2NCHCH2CNCNCNCNCNCNCNCNCNCNCNCNCNCNCNCNCNCNCNCNCNCNCNCNCNCNCNCNCNCNCNCNCNCNCNCNC2H5C2H5C2H5C2H5C2H5C2H5C4NC2NH2C4NC2NH2C4NC2NH2C4NC2NH2C4NC2NH2C4NC2NH2C2H5C2H5C2H5C2H5C2H5C2H5
_chemical_formula_sum              "C216 N72 H144"
_cell_length_a       39.4185
_cell_length_b       39.4186
_cell_length_c       14.8689
_cell_angle_alpha    90
_cell_angle_beta     90
_cell_angle_gamma    120

_space_group_name_H-M_alt    "P 1"
_space_group_IT_number       1

loop_
  _space_group_symop_operation_xyz
  'x, y, z'

loop_
  _atom_site_type_symbol
  _atom_site_label
  _atom_site_symmetry_multiplicity
  _atom_site_fract_x
  _atom_site_fract_y
  _atom_site_fract_z
  _atom_site_occupancy
  C   C1        1.0  0.26993  0.45804  0.33500  1.0000
  C   C2        1.0  0.24799  0.45112  0.25483  1.0000
  C   C3        1.0  0.21193  0.45136  0.25456  1.0000
  C   C4        1.0  0.19678  0.45829  0.33452  1.0000
  N   N1        1.0  0.19398  0.44735  0.17412  1.0000
  C   C5        1.0  0.20783  0.44260  0.09418  1.0000
  C   C6        1.0  0.24355  0.44203  0.09449  1.0000
  N   N2        1.0  0.26182  0.44656  0.17475  1.0000
  C   C7        1.0  0.18556  0.44000  0.01216  1.0000
  H   H1        1.0  0.15944  0.44172  0.02802  1.0000
  C   C8        1.0  0.26338  0.43771  0.01455  1.0000
  H   H2        1.0  0.26707  0.41225  0.02331  1.0000
  H   H3        1.0  0.29223  0.46376  0.00719  1.0000
  C   C9        1.0  0.57145  0.83252  0.33514  1.0000
  C   C10       1.0  0.57829  0.81743  0.25498  1.0000
  C   C11       1.0  0.57807  0.78113  0.25477  1.0000
  C   C12       1.0  0.57117  0.75908  0.33477  1.0000
  N   N3        1.0  0.58201  0.76715  0.17432  1.0000
  C   C13       1.0  0.58669  0.78569  0.09434  1.0000
  C   C14       1.0  0.58729  0.82200  0.09460  1.0000
  N   N4        1.0  0.58282  0.83578  0.17486  1.0000
  C   C15       1.0  0.58923  0.76598  0.01233  1.0000
  H   H4        1.0  0.58751  0.73814  0.02824  1.0000
  C   C16       1.0  0.59158  0.84613  0.01464  1.0000
  H   H5        1.0  0.61704  0.87527  0.02332  1.0000
  H   H6        1.0  0.56553  0.84891  0.00730  1.0000
  C   C17       1.0  0.19686  0.75949  0.33493  1.0000
  C   C18       1.0  0.21195  0.78142  0.25477  1.0000
  C   C19       1.0  0.24826  0.81747  0.25454  1.0000
  C   C20       1.0  0.27032  0.83259  0.33454  1.0000
  N   N5        1.0  0.26224  0.83541  0.17411  1.0000
  C   C21       1.0  0.24367  0.82157  0.09414  1.0000
  C   C22       1.0  0.20736  0.78586  0.09440  1.0000
  N   N6        1.0  0.19358  0.76760  0.17466  1.0000
  C   C23       1.0  0.26339  0.84382  0.01213  1.0000
  H   H7        1.0  0.29124  0.86992  0.02802  1.0000
  C   C24       1.0  0.18322  0.76605  0.01445  1.0000
  H   H8        1.0  0.15408  0.76237  0.02316  1.0000
  H   H9        1.0  0.18041  0.73720  0.00708  1.0000
  C   C25       1.0  0.75553  0.57527  0.33506  1.0000
  C   C26       1.0  0.77747  0.58214  0.25489  1.0000
  C   C27       1.0  0.81354  0.58191  0.25468  1.0000
  C   C28       1.0  0.82867  0.57499  0.33468  1.0000
  N   N7        1.0  0.83147  0.58587  0.17424  1.0000
  C   C29       1.0  0.81762  0.59058  0.09426  1.0000
  C   C30       1.0  0.78191  0.59117  0.09453  1.0000
  N   N8        1.0  0.76364  0.58668  0.17478  1.0000
  C   C31       1.0  0.83989  0.59313  0.01226  1.0000
  H   H10       1.0  0.86600  0.59141  0.02816  1.0000
  C   C32       1.0  0.76208  0.59548  0.01457  1.0000
  H   H11       1.0  0.75839  0.62093  0.02329  1.0000
  H   H12       1.0  0.73324  0.56943  0.00720  1.0000
  C   C33       1.0  0.45407  0.20081  0.33502  1.0000
  C   C34       1.0  0.44717  0.21584  0.25485  1.0000
  C   C35       1.0  0.44740  0.25214  0.25459  1.0000
  C   C36       1.0  0.45430  0.27421  0.33456  1.0000
  N   N9        1.0  0.44341  0.26608  0.17414  1.0000
  C   C37       1.0  0.43869  0.24751  0.09418  1.0000
  C   C38       1.0  0.43812  0.21121  0.09449  1.0000
  N   N10       1.0  0.44263  0.19746  0.17475  1.0000
  C   C39       1.0  0.43612  0.26719  0.01217  1.0000
  H   H13       1.0  0.43784  0.29503  0.02803  1.0000
  C   C40       1.0  0.43381  0.18706  0.01455  1.0000
  H   H14       1.0  0.40836  0.15792  0.02328  1.0000
  H   H15       1.0  0.45986  0.18427  0.00720  1.0000
  C   C41       1.0  0.82854  0.27383  0.33516  1.0000
  C   C42       1.0  0.81349  0.25189  0.25499  1.0000
  C   C43       1.0  0.77720  0.21581  0.25476  1.0000
  C   C44       1.0  0.75513  0.20065  0.33475  1.0000
  N   N11       1.0  0.76324  0.19789  0.17431  1.0000
  C   C45       1.0  0.78180  0.21174  0.09434  1.0000
  C   C46       1.0  0.81810  0.24746  0.09463  1.0000
  N   N12       1.0  0.83186  0.26572  0.17489  1.0000
  C   C47       1.0  0.76211  0.18948  0.01233  1.0000
  H   H16       1.0  0.73426  0.16337  0.02821  1.0000
  C   C48       1.0  0.84224  0.26729  0.01468  1.0000
  H   H17       1.0  0.87139  0.27099  0.02340  1.0000
  H   H18       1.0  0.84503  0.29613  0.00732  1.0000
  C   C49       1.0  0.15706  0.60671  0.27148  1.0000
  C   C50       1.0  0.15689  0.57088  0.27180  1.0000
  H   H19       1.0  0.16136  0.56051  0.21240  1.0000
  H   H20       1.0  0.16170  0.62146  0.21202  1.0000
  C   C51       1.0  0.11906  0.60987  0.00206  1.0000
  H   H21       1.0  0.14126  0.61527  0.05249  1.0000
  H   H22       1.0  0.09004  0.59056  0.03009  1.0000
  C   C52       1.0  0.11792  0.53020  0.00184  1.0000
  H   H23       1.0  0.11223  0.54188  0.06277  1.0000
  H   H24       1.0  0.14346  0.52692  0.01381  1.0000
  C   C53       1.0  0.42273  0.57095  0.27155  1.0000
  C   C54       1.0  0.45856  0.60661  0.27188  1.0000
  H   H25       1.0  0.46890  0.62149  0.21253  1.0000
  H   H26       1.0  0.40795  0.56088  0.21211  1.0000
  C   C55       1.0  0.41955  0.52973  0.00209  1.0000
  H   H27       1.0  0.41415  0.54653  0.05256  1.0000
  H   H28       1.0  0.43887  0.52002  0.03008  1.0000
  C   C56       1.0  0.49922  0.60828  0.00192  1.0000
  H   H29       1.0  0.48753  0.59089  0.06285  1.0000
  H   H30       1.0  0.50251  0.63709  0.01389  1.0000
  C   C57       1.0  0.45846  0.87233  0.27141  1.0000
  C   C58       1.0  0.42280  0.87250  0.27173  1.0000
  H   H31       1.0  0.40798  0.86805  0.21235  1.0000
  H   H32       1.0  0.46857  0.86770  0.21194  1.0000
  C   C59       1.0  0.49963  0.91027  0.00198  1.0000
  H   H33       1.0  0.48283  0.88807  0.05241  1.0000
  H   H34       1.0  0.50935  0.93929  0.03004  1.0000
  C   C60       1.0  0.42109  0.91142  0.00180  1.0000
  H   H35       1.0  0.43848  0.91711  0.06273  1.0000
  H   H36       1.0  0.39228  0.88589  0.01378  1.0000
  C   C61       1.0  0.86843  0.42661  0.27145  1.0000
  C   C62       1.0  0.86860  0.46244  0.27175  1.0000
  H   H37       1.0  0.86404  0.47277  0.21242  1.0000
  H   H38       1.0  0.86371  0.41182  0.21202  1.0000
  C   C63       1.0  0.90650  0.42347  0.00200  1.0000
  H   H39       1.0  0.88431  0.41809  0.05247  1.0000
  H   H40       1.0  0.93553  0.44279  0.02998  1.0000
  C   C64       1.0  0.90762  0.50314  0.00178  1.0000
  H   H41       1.0  0.91331  0.49145  0.06272  1.0000
  H   H42       1.0  0.88208  0.50643  0.01375  1.0000
  C   C65       1.0  0.60275  0.46235  0.27142  1.0000
  C   C66       1.0  0.56692  0.42669  0.27174  1.0000
  H   H43       1.0  0.55655  0.41186  0.21236  1.0000
  H   H44       1.0  0.61750  0.47247  0.21196  1.0000
  C   C67       1.0  0.60594  0.50351  0.00202  1.0000
  H   H45       1.0  0.61135  0.48670  0.05244  1.0000
  H   H46       1.0  0.58663  0.51321  0.03007  1.0000
  C   C68       1.0  0.52627  0.42496  0.00181  1.0000
  H   H47       1.0  0.53796  0.44235  0.06274  1.0000
  H   H48       1.0  0.52300  0.39616  0.01377  1.0000
  C   C69       1.0  0.56699  0.16094  0.27156  1.0000
  C   C70       1.0  0.60265  0.16077  0.27186  1.0000
  H   H49       1.0  0.61753  0.16531  0.21252  1.0000
  H   H50       1.0  0.55692  0.16565  0.21213  1.0000
  C   C71       1.0  0.52580  0.12289  0.00210  1.0000
  H   H51       1.0  0.54259  0.14509  0.05257  1.0000
  H   H52       1.0  0.51609  0.09387  0.03010  1.0000
  C   C72       1.0  0.60435  0.12179  0.00190  1.0000
  H   H53       1.0  0.58698  0.11610  0.06284  1.0000
  H   H54       1.0  0.63317  0.14732  0.01387  1.0000
  C   C73       1.0  0.97026  0.36991  0.34128  1.0000
  C   C74       1.0  0.99181  0.37527  0.26106  1.0000
  C   C75       1.0  0.03359  0.39648  0.26118  1.0000
  C   C76       1.0  0.05502  0.41262  0.34154  1.0000
  N   N13       1.0  0.05213  0.40345  0.18058  1.0000
  C   C77       1.0  0.03361  0.39084  0.10019  1.0000
  C   C78       1.0  0.99205  0.36922  0.10013  1.0000
  N   N14       1.0  0.97340  0.36296  0.18046  1.0000
  C   C79       1.0  0.05799  0.40194  0.01827  1.0000
  H   H55       1.0  0.08909  0.41905  0.03460  1.0000
  C   C80       1.0  0.96688  0.35320  0.01979  1.0000
  H   H56       1.0  0.94858  0.36657  0.01295  1.0000
  H   H57       1.0  0.94799  0.32162  0.02753  1.0000
  C   C81       1.0  0.65938  0.62084  0.34152  1.0000
  C   C82       1.0  0.65406  0.63703  0.26126  1.0000
  C   C83       1.0  0.63288  0.65765  0.26139  1.0000
  C   C84       1.0  0.61676  0.66289  0.34183  1.0000
  N   N15       1.0  0.62589  0.66920  0.18080  1.0000
  C   C85       1.0  0.63848  0.66326  0.10040  1.0000
  C   C86       1.0  0.66009  0.64331  0.10034  1.0000
  N   N16       1.0  0.66635  0.63092  0.18065  1.0000
  C   C87       1.0  0.62737  0.67654  0.01849  1.0000
  H   H58       1.0  0.61028  0.69055  0.03483  1.0000
  C   C88       1.0  0.67610  0.63416  0.01999  1.0000
  H   H59       1.0  0.66269  0.60248  0.01309  1.0000
  H   H60       1.0  0.70768  0.64681  0.02774  1.0000
  C   C89       1.0  0.40847  0.05909  0.34119  1.0000
  C   C90       1.0  0.39226  0.03757  0.26097  1.0000
  C   C91       1.0  0.37168  0.99578  0.26107  1.0000
  C   C92       1.0  0.36643  0.97437  0.34144  1.0000
  N   N17       1.0  0.36009  0.97724  0.18049  1.0000
  C   C93       1.0  0.36599  0.99578  0.10011  1.0000
  C   C94       1.0  0.38595  0.03734  0.10007  1.0000
  N   N18       1.0  0.39836  0.05599  0.18039  1.0000
  C   C95       1.0  0.35269  0.97140  0.01819  1.0000
  H   H61       1.0  0.33868  0.94030  0.03451  1.0000
  C   C96       1.0  0.39509  0.06251  0.01973  1.0000
  H   H62       1.0  0.42676  0.08082  0.01288  1.0000
  H   H63       1.0  0.38239  0.08140  0.02748  1.0000
  C   C97       1.0  0.05517  0.66330  0.34154  1.0000
  C   C98       1.0  0.03364  0.65797  0.26128  1.0000
  C   C99       1.0  0.99186  0.63678  0.26142  1.0000
  C   C100      1.0  0.97047  0.62066  0.34185  1.0000
  N   N19       1.0  0.97332  0.62979  0.18083  1.0000
  C   C101      1.0  0.99184  0.64238  0.10042  1.0000
  C   C102      1.0  0.03340  0.66399  0.10036  1.0000
  N   N20       1.0  0.05205  0.67026  0.18067  1.0000
  C   C103      1.0  0.96745  0.63126  0.01851  1.0000
  H   H64       1.0  0.93635  0.61417  0.03486  1.0000
  C   C104      1.0  0.05856  0.68001  0.02000  1.0000
  H   H65       1.0  0.07683  0.66660  0.01311  1.0000
  H   H66       1.0  0.07748  0.71158  0.02776  1.0000
  C   C105      1.0  0.36603  0.41242  0.34118  1.0000
  C   C106      1.0  0.37135  0.39621  0.26097  1.0000
  C   C107      1.0  0.39254  0.37562  0.26112  1.0000
  C   C108      1.0  0.40868  0.37034  0.34149  1.0000
  N   N21       1.0  0.39949  0.36402  0.18054  1.0000
  C   C109      1.0  0.38688  0.36994  0.10013  1.0000
  C   C110      1.0  0.36529  0.38990  0.10006  1.0000
  N   N22       1.0  0.35904  0.40232  0.18038  1.0000
  C   C111      1.0  0.39796  0.35663  0.01823  1.0000
  H   H67       1.0  0.41505  0.34261  0.03458  1.0000
  C   C112      1.0  0.34928  0.39905  0.01971  1.0000
  H   H68       1.0  0.36266  0.43073  0.01285  1.0000
  H   H69       1.0  0.31769  0.38637  0.02743  1.0000
  C   C113      1.0  0.61693  0.97422  0.34141  1.0000
  C   C114      1.0  0.63314  0.99573  0.26116  1.0000
  C   C115      1.0  0.65374  0.03752  0.26131  1.0000
  C   C116      1.0  0.65897  0.05887  0.34175  1.0000
  N   N23       1.0  0.66530  0.05606  0.18073  1.0000
  C   C117      1.0  0.65938  0.03755  0.10032  1.0000
  C   C118      1.0  0.63943  0.99599  0.10024  1.0000
  N   N24       1.0  0.62703  0.97732  0.18054  1.0000
  C   C119      1.0  0.67266  0.06194  0.01842  1.0000
  H   H70       1.0  0.68666  0.09304  0.03478  1.0000
  C   C120      1.0  0.63029  0.97083  0.01987  1.0000
  H   H71       1.0  0.59862  0.95256  0.01296  1.0000
  H   H72       1.0  0.64294  0.95190  0.02763  1.0000
  C   C121      1.0  0.09549  0.44166  0.34029  1.0000
  N   N25       1.0  0.12587  0.43429  0.33417  1.0000
  C   C122      1.0  0.16399  0.46428  0.33472  1.0000
  N   N26       1.0  0.17117  0.50179  0.34072  1.0000
  C   C123      1.0  0.14143  0.50967  0.34623  1.0000
  N   N27       1.0  0.10403  0.47947  0.34656  1.0000
  C   C124      1.0  0.58777  0.67440  0.34052  1.0000
  N   N28       1.0  0.59515  0.71215  0.33443  1.0000
  C   C125      1.0  0.56518  0.72030  0.33493  1.0000
  N   N29       1.0  0.52766  0.68999  0.34090  1.0000
  C   C126      1.0  0.51976  0.65236  0.34641  1.0000
  N   N30       1.0  0.54995  0.64514  0.34674  1.0000
  C   C127      1.0  0.35498  0.93389  0.34027  1.0000
  N   N31       1.0  0.31723  0.90351  0.33417  1.0000
  C   C128      1.0  0.30910  0.86539  0.33479  1.0000
  N   N32       1.0  0.33942  0.85820  0.34076  1.0000
  C   C129      1.0  0.37705  0.88795  0.34623  1.0000
  N   N33       1.0  0.38425  0.92535  0.34651  1.0000
  C   C130      1.0  0.92998  0.59166  0.34048  1.0000
  N   N34       1.0  0.89960  0.59902  0.33438  1.0000
  C   C131      1.0  0.86148  0.56903  0.33484  1.0000
  N   N35       1.0  0.85430  0.53152  0.34076  1.0000
  C   C132      1.0  0.88405  0.52364  0.34626  1.0000
  N   N36       1.0  0.92144  0.55385  0.34666  1.0000
  C   C133      1.0  0.43771  0.35889  0.34026  1.0000
  N   N37       1.0  0.43033  0.32114  0.33417  1.0000
  C   C134      1.0  0.46031  0.31300  0.33472  1.0000
  N   N38       1.0  0.49783  0.34331  0.34071  1.0000
  C   C135      1.0  0.50572  0.38094  0.34620  1.0000
  N   N39       1.0  0.47553  0.38815  0.34651  1.0000
  C   C136      1.0  0.67047  0.09937  0.34046  1.0000
  N   N40       1.0  0.70822  0.12974  0.33437  1.0000
  C   C137      1.0  0.71635  0.16786  0.33489  1.0000
  N   N41       1.0  0.68604  0.17506  0.34087  1.0000
  C   C138      1.0  0.64841  0.14533  0.34638  1.0000
  N   N42       1.0  0.64120  0.10793  0.34670  1.0000
  C   C139      1.0  0.43750  0.09957  0.33958  1.0000
  N   N43       1.0  0.43008  0.12993  0.33431  1.0000
  C   C140      1.0  0.46006  0.16803  0.33516  1.0000
  N   N44       1.0  0.49760  0.17527  0.34042  1.0000
  C   C141      1.0  0.50553  0.14554  0.34491  1.0000
  N   N45       1.0  0.47534  0.10813  0.34524  1.0000
  C   C142      1.0  0.67087  0.59185  0.33963  1.0000
  N   N46       1.0  0.70865  0.59927  0.33438  1.0000
  C   C143      1.0  0.71677  0.56928  0.33505  1.0000
  N   N47       1.0  0.68646  0.53174  0.34025  1.0000
  C   C144      1.0  0.64881  0.52380  0.34477  1.0000
  N   N48       1.0  0.64160  0.55400  0.34521  1.0000
  C   C145      1.0  0.92979  0.35847  0.33957  1.0000
  N   N49       1.0  0.89942  0.32069  0.33438  1.0000
  C   C146      1.0  0.86132  0.31258  0.33517  1.0000
  N   N50       1.0  0.85410  0.34290  0.34039  1.0000
  C   C147      1.0  0.88383  0.38055  0.34483  1.0000
  N   N51       1.0  0.92124  0.38775  0.34517  1.0000
  C   C148      1.0  0.58796  0.93373  0.33957  1.0000
  N   N52       1.0  0.59540  0.90339  0.33440  1.0000
  C   C149      1.0  0.56543  0.86527  0.33514  1.0000
  N   N53       1.0  0.52788  0.85801  0.34032  1.0000
  C   C150      1.0  0.51992  0.88772  0.34476  1.0000
  N   N54       1.0  0.55010  0.92514  0.34515  1.0000
  C   C151      1.0  0.35458  0.44145  0.33955  1.0000
  N   N55       1.0  0.31681  0.43404  0.33429  1.0000
  C   C152      1.0  0.30869  0.46403  0.33514  1.0000
  N   N56       1.0  0.33900  0.50157  0.34040  1.0000
  C   C153      1.0  0.37666  0.50949  0.34489  1.0000
  N   N57       1.0  0.38386  0.47929  0.34521  1.0000
  C   C154      1.0  0.09565  0.67480  0.33965  1.0000
  N   N58       1.0  0.12600  0.71258  0.33435  1.0000
  C   C155      1.0  0.16411  0.72072  0.33502  1.0000
  N   N59       1.0  0.17136  0.69042  0.34025  1.0000
  C   C156      1.0  0.14165  0.65276  0.34481  1.0000
  N   N60       1.0  0.10423  0.64554  0.34527  1.0000
  C   C157      1.0  0.21949  0.46631  0.41357  1.0000
  C   C158      1.0  0.25526  0.46625  0.41384  1.0000
  H   H73       1.0  0.27133  0.47368  0.47198  1.0000
  H   H74       1.0  0.21081  0.47381  0.47143  1.0000
  H   H75       1.0  0.17642  0.41230  0.64438  1.0000
  H   H76       1.0  0.20387  0.46428  0.63414  1.0000
  H   H77       1.0  0.24706  0.43370  0.61929  1.0000
  C   C159      1.0  0.56319  0.77383  0.41378  1.0000
  C   C160      1.0  0.56325  0.80965  0.41398  1.0000
  H   H78       1.0  0.55587  0.81833  0.47213  1.0000
  H   H79       1.0  0.55573  0.75767  0.47170  1.0000
  H   H80       1.0  0.61691  0.78452  0.64445  1.0000
  H   H81       1.0  0.56493  0.76000  0.63440  1.0000
  H   H82       1.0  0.59557  0.83378  0.61939  1.0000
  C   C161      1.0  0.25557  0.80989  0.41359  1.0000
  C   C162      1.0  0.21974  0.77414  0.41379  1.0000
  H   H83       1.0  0.21107  0.75807  0.47192  1.0000
  H   H84       1.0  0.27175  0.81857  0.47147  1.0000
  H   H85       1.0  0.24486  0.85298  0.64427  1.0000
  H   H86       1.0  0.26933  0.82547  0.63417  1.0000
  H   H87       1.0  0.19556  0.78238  0.61920  1.0000
  C   C163      1.0  0.80598  0.56706  0.41373  1.0000
  C   C164      1.0  0.77021  0.56711  0.41394  1.0000
  H   H88       1.0  0.75417  0.55976  0.47210  1.0000
  H   H89       1.0  0.81470  0.55962  0.47165  1.0000
  H   H90       1.0  0.84902  0.62082  0.64440  1.0000
  H   H91       1.0  0.82156  0.56884  0.63430  1.0000
  H   H92       1.0  0.77842  0.59948  0.61933  1.0000
  C   C165      1.0  0.46232  0.25950  0.41359  1.0000
  C   C166      1.0  0.46227  0.22368  0.41386  1.0000
  H   H93       1.0  0.46970  0.21504  0.47200  1.0000
  H   H94       1.0  0.46982  0.27569  0.47145  1.0000
  H   H95       1.0  0.40843  0.24863  0.64434  1.0000
  H   H96       1.0  0.46041  0.27315  0.63418  1.0000
  H   H97       1.0  0.42981  0.19939  0.61929  1.0000
  C   C167      1.0  0.76987  0.22337  0.41378  1.0000
  C   C168      1.0  0.80568  0.25915  0.41401  1.0000
  H   H98       1.0  0.81436  0.27520  0.47217  1.0000
  H   H99       1.0  0.75370  0.21467  0.47168  1.0000
  H   H100      1.0  0.78066  0.18035  0.64449  1.0000
  H   H101      1.0  0.75614  0.20781  0.63436  1.0000
  H   H102      1.0  0.82991  0.25096  0.61943  1.0000
  C   C169      1.0  0.14793  0.54821  0.35103  1.0000
  C   C170      1.0  0.14018  0.56267  0.43092  1.0000
  C   C171      1.0  0.14034  0.59876  0.43046  1.0000
  C   C172      1.0  0.14817  0.62074  0.35024  1.0000
  N   N61       1.0  0.13287  0.61127  0.50918  1.0000
  C   C173      1.0  0.12543  0.59167  0.58850  1.0000
  C   C174      1.0  0.12510  0.55549  0.58905  1.0000
  N   N62       1.0  0.13237  0.54289  0.51011  1.0000
  H   H103      1.0  0.12117  0.63786  0.65223  1.0000
  H   H104      1.0  0.09261  0.50132  0.65584  1.0000
  C   C175      1.0  0.48123  0.62031  0.35112  1.0000
  C   C176      1.0  0.46676  0.59810  0.43099  1.0000
  C   C177      1.0  0.43068  0.56218  0.43050  1.0000
  C   C178      1.0  0.40868  0.54803  0.35030  1.0000
  N   N63       1.0  0.41816  0.54218  0.50923  1.0000
  C   C179      1.0  0.43775  0.55433  0.58856  1.0000
  C   C180      1.0  0.47393  0.59018  0.58912  1.0000
  N   N64       1.0  0.48654  0.61006  0.51020  1.0000
  H   H105      1.0  0.39156  0.50386  0.65225  1.0000
  H   H106      1.0  0.52809  0.61183  0.65592  1.0000
  C   C181      1.0  0.40908  0.88144  0.35099  1.0000
  C   C182      1.0  0.43130  0.88918  0.43087  1.0000
  C   C183      1.0  0.46721  0.88901  0.43038  1.0000
  C   C184      1.0  0.48138  0.88118  0.35017  1.0000
  N   N65       1.0  0.48721  0.89647  0.50911  1.0000
  C   C185      1.0  0.47505  0.90391  0.58844  1.0000
  C   C186      1.0  0.43921  0.90425  0.58900  1.0000
  N   N66       1.0  0.41933  0.89698  0.51007  1.0000
  H   H107      1.0  0.52551  0.90816  0.65214  1.0000
  H   H108      1.0  0.41753  0.93674  0.65581  1.0000
  C   C187      1.0  0.87758  0.48511  0.35099  1.0000
  C   C188      1.0  0.88534  0.47066  0.43088  1.0000
  C   C189      1.0  0.88518  0.43458  0.43040  1.0000
  C   C190      1.0  0.87733  0.41258  0.35019  1.0000
  N   N67       1.0  0.89266  0.42207  0.50914  1.0000
  C   C191      1.0  0.90010  0.44167  0.58846  1.0000
  C   C192      1.0  0.90043  0.47785  0.58899  1.0000
  N   N68       1.0  0.89315  0.49045  0.51007  1.0000
  H   H109      1.0  0.90439  0.39549  0.65217  1.0000
  H   H110      1.0  0.93294  0.53202  0.65578  1.0000
  C   C193      1.0  0.54425  0.41297  0.35100  1.0000
  C   C194      1.0  0.55872  0.43518  0.43088  1.0000
  C   C195      1.0  0.59481  0.47111  0.43041  1.0000
  C   C196      1.0  0.61678  0.48526  0.35019  1.0000
  N   N69       1.0  0.60733  0.49110  0.50914  1.0000
  C   C197      1.0  0.58774  0.47893  0.58846  1.0000
  C   C198      1.0  0.55156  0.44308  0.58901  1.0000
  N   N70       1.0  0.53894  0.42320  0.51008  1.0000
  H   H111      1.0  0.63393  0.52939  0.65218  1.0000
  H   H112      1.0  0.49739  0.42140  0.65582  1.0000
  C   C199      1.0  0.61637  0.15182  0.35110  1.0000
  C   C200      1.0  0.59415  0.14406  0.43099  1.0000
  C   C201      1.0  0.55823  0.14422  0.43051  1.0000
  C   C202      1.0  0.54407  0.15206  0.35031  1.0000
  N   N71       1.0  0.53823  0.13674  0.50924  1.0000
  C   C203      1.0  0.55039  0.12930  0.58856  1.0000
  C   C204      1.0  0.58624  0.12897  0.58911  1.0000
  N   N72       1.0  0.60613  0.13625  0.51019  1.0000
  H   H113      1.0  0.49992  0.12500  0.65227  1.0000
  H   H114      1.0  0.60791  0.09646  0.65590  1.0000
  C   C205      1.0  0.03321  0.40774  0.42084  1.0000
  C   C206      1.0  0.99190  0.38705  0.42067  1.0000
  H   H115      1.0  0.97762  0.38680  0.47841  1.0000
  H   H116      1.0  0.04739  0.42172  0.47863  1.0000
  H   H117      1.0  0.05068  0.41978  0.64196  1.0000
  H   H118      1.0  0.05289  0.37578  0.64847  1.0000
  H   H119      1.0  0.98361  0.35841  0.62471  1.0000
  C   C207      1.0  0.62172  0.64610  0.42121  1.0000
  C   C208      1.0  0.64238  0.62544  0.42100  1.0000
  H   H120      1.0  0.64273  0.61149  0.47878  1.0000
  H   H121      1.0  0.60784  0.64640  0.47907  1.0000
  H   H122      1.0  0.60952  0.65139  0.64223  1.0000
  H   H123      1.0  0.65353  0.69759  0.64864  1.0000
  H   H124      1.0  0.67092  0.64571  0.62493  1.0000
  C   C209      1.0  0.38335  0.99615  0.42077  1.0000
  C   C210      1.0  0.40398  0.03747  0.42062  1.0000
  H   H125      1.0  0.41802  0.05174  0.47836  1.0000
  H   H126      1.0  0.38315  0.98197  0.47855  1.0000
  H   H127      1.0  0.37781  0.97869  0.64186  1.0000
  H   H128      1.0  0.33163  0.97652  0.64841  1.0000
  H   H129      1.0  0.38357  0.04579  0.62465  1.0000
  C   C211      1.0  0.99225  0.62563  0.42120  1.0000
  C   C212      1.0  0.03356  0.64629  0.42101  1.0000
  H   H130      1.0  0.04787  0.64665  0.47879  1.0000
  H   H131      1.0  0.97807  0.61175  0.47906  1.0000
  H   H132      1.0  0.97475  0.61342  0.64224  1.0000
  H   H133      1.0  0.97255  0.65742  0.64867  1.0000
  H   H134      1.0  0.04182  0.67483  0.62495  1.0000
  C   C213      1.0  0.40382  0.38728  0.42078  1.0000
  C   C214      1.0  0.38314  0.40792  0.42062  1.0000
  H   H135      1.0  0.38290  0.42196  0.47835  1.0000
  H   H136      1.0  0.41780  0.38708  0.47858  1.0000
  H   H137      1.0  0.41581  0.38175  0.64190  1.0000
  H   H138      1.0  0.37179  0.33557  0.64845  1.0000
  H   H139      1.0  0.35449  0.38753  0.62463  1.0000
  C   C215      1.0  0.64216  0.03711  0.42113  1.0000
  C   C216      1.0  0.62152  0.99580  0.42093  1.0000
  H   H140      1.0  0.60756  0.98148  0.47870  1.0000
  H   H141      1.0  0.64246  0.05129  0.47899  1.0000
  H   H142      1.0  0.64752  0.05465  0.64213  1.0000
  H   H143      1.0  0.69372  0.05684  0.64859  1.0000
  H   H144      1.0  0.64185  0.98757  0.62483  1.0000
