data_image0
_chemical_formula_structural       C3NC3NC5NC5NC36H26N4C3HC3NHCO2HCHC3HC3NHCO2HCHC16H16C2NC2H2CO2HCHC2NC2H2CO2HCH
_chemical_formula_sum              "C96 N12 H58 O8"
_cell_length_a       38.4347
_cell_length_b       38.4328
_cell_length_c       14.9127
_cell_angle_alpha    90
_cell_angle_beta     90
_cell_angle_gamma    90.0596

_space_group_name_H-M_alt    "P 1"
_space_group_IT_number       1

loop_
  _space_group_symop_operation_xyz
  'x, y, z'

loop_
  _atom_site_type_symbol
  _atom_site_label
  _atom_site_symmetry_multiplicity
  _atom_site_fract_x
  _atom_site_fract_y
  _atom_site_fract_z
  _atom_site_occupancy
  C   C1        1.0  0.93724  0.91102  0.31449  1.0000
  C   C2        1.0  0.91123  0.93578  0.31468  1.0000
  C   C3        1.0  0.92675  0.96868  0.31341  1.0000
  N   N1        1.0  0.96152  0.96259  0.31302  1.0000
  C   C4        1.0  0.96933  0.92817  0.31384  1.0000
  C   C5        1.0  0.00235  0.91137  0.31382  1.0000
  C   C6        1.0  0.03490  0.92894  0.31371  1.0000
  N   N2        1.0  0.04080  0.96363  0.31381  1.0000
  C   C7        1.0  0.07516  0.97123  0.31406  1.0000
  C   C8        1.0  0.09244  0.93927  0.31393  1.0000
  C   C9        1.0  0.06766  0.91324  0.31406  1.0000
  C   C10       1.0  0.09111  0.00461  0.31400  1.0000
  C   C11       1.0  0.07271  0.03676  0.31370  1.0000
  N   N3        1.0  0.03794  0.04286  0.31394  1.0000
  C   C12       1.0  0.03014  0.07730  0.31368  1.0000
  C   C13       1.0  0.06225  0.09441  0.31296  1.0000
  C   C14       1.0  0.08825  0.06965  0.31343  1.0000
  C   C15       1.0  0.99712  0.09411  0.31357  1.0000
  C   C16       1.0  0.96457  0.07651  0.31337  1.0000
  N   N4        1.0  0.95867  0.04182  0.31332  1.0000
  C   C17       1.0  0.92430  0.03420  0.31336  1.0000
  C   C18       1.0  0.90703  0.06617  0.31314  1.0000
  C   C19       1.0  0.93180  0.09219  0.31371  1.0000
  C   C20       1.0  0.90833  0.00083  0.31334  1.0000
  C   C21       1.0  0.87117  0.99961  0.31379  1.0000
  C   C22       1.0  0.79679  0.99800  0.31447  1.0000
  C   C23       1.0  0.81582  0.99231  0.23445  1.0000
  C   C24       1.0  0.85245  0.99331  0.23390  1.0000
  C   C25       1.0  0.75957  0.99767  0.31464  1.0000
  C   C26       1.0  0.74062  0.97089  0.27129  1.0000
  C   C27       1.0  0.70396  0.97048  0.27225  1.0000
  C   C28       1.0  0.68506  0.99727  0.31467  1.0000
  C   C29       1.0  0.99652  0.13128  0.31395  1.0000
  C   C30       1.0  0.99533  0.20567  0.31496  1.0000
  C   C31       1.0  0.98946  0.18671  0.23490  1.0000
  C   C32       1.0  0.99023  0.15008  0.23419  1.0000
  C   C33       1.0  0.99501  0.24289  0.31537  1.0000
  C   C34       1.0  0.99456  0.31740  0.31595  1.0000
  C   C35       1.0  0.96767  0.29847  0.27384  1.0000
  C   C36       1.0  0.96810  0.26182  0.27260  1.0000
  C   C37       1.0  0.12825  0.00582  0.31441  1.0000
  C   C38       1.0  0.14701  0.01060  0.23390  1.0000
  C   C39       1.0  0.18364  0.01137  0.23441  1.0000
  C   C40       1.0  0.20268  0.00711  0.31505  1.0000
  C   C41       1.0  0.23996  0.00710  0.31528  1.0000
  C   C42       1.0  0.31458  0.00683  0.31612  1.0000
  C   C43       1.0  0.29595  0.03152  0.26527  1.0000
  C   C44       1.0  0.25928  0.03174  0.26506  1.0000
  C   C45       1.0  0.00295  0.87422  0.31447  1.0000
  C   C46       1.0  0.00721  0.85534  0.23400  1.0000
  C   C47       1.0  0.00383  0.79978  0.31578  1.0000
  C   C48       1.0  0.00775  0.81870  0.23481  1.0000
  C   C49       1.0  0.00379  0.76250  0.31640  1.0000
  C   C50       1.0  0.02809  0.74313  0.26531  1.0000
  C   C51       1.0  0.02784  0.70647  0.26584  1.0000
  C   C52       1.0  0.00348  0.68787  0.31795  1.0000
  H   H1        1.0  0.04589  0.69338  0.22830  1.0000
  H   H2        1.0  0.04666  0.75558  0.22802  1.0000
  H   H3        1.0  0.01024  0.80592  0.17496  1.0000
  H   H4        1.0  0.00980  0.86815  0.17418  1.0000
  H   H5        1.0  0.93293  0.88478  0.31519  1.0000
  H   H6        1.0  0.88524  0.93015  0.31573  1.0000
  H   H7        1.0  0.97874  0.98069  0.31200  1.0000
  H   H8        1.0  0.02071  0.02477  0.31459  1.0000
  H   H9        1.0  0.07309  0.88721  0.31426  1.0000
  H   H10       1.0  0.11870  0.93512  0.31382  1.0000
  H   H11       1.0  0.13410  0.01332  0.17427  1.0000
  H   H12       1.0  0.19633  0.01418  0.17452  1.0000
  H   H13       1.0  0.11425  0.07525  0.31329  1.0000
  H   H14       1.0  0.06659  0.12065  0.31219  1.0000
  H   H15       1.0  0.88077  0.07033  0.31292  1.0000
  H   H16       1.0  0.92635  0.11821  0.31413  1.0000
  H   H17       1.0  0.98617  0.13720  0.17502  1.0000
  H   H18       1.0  0.98525  0.19947  0.17565  1.0000
  H   H19       1.0  0.94803  0.24902  0.24178  1.0000
  H   H20       1.0  0.94764  0.31131  0.24302  1.0000
  H   H21       1.0  0.86538  0.98952  0.17469  1.0000
  H   H22       1.0  0.80311  0.98823  0.17506  1.0000
  H   H23       1.0  0.69110  0.95054  0.24101  1.0000
  H   H24       1.0  0.75339  0.95089  0.24017  1.0000
  H   H25       1.0  0.24680  0.05055  0.22872  1.0000
  H   H26       1.0  0.30901  0.04982  0.22842  1.0000
  N   N5        1.0  0.65042  0.99531  0.31510  1.0000
  N   N6        1.0  0.00424  0.65317  0.31423  1.0000
  N   N7        1.0  0.34928  0.00766  0.31230  1.0000
  N   N8        1.0  0.99255  0.35204  0.31646  1.0000
  C   C53       1.0  0.99886  0.52094  0.32770  1.0000
  C   C54       1.0  0.00482  0.54346  0.25343  1.0000
  C   C55       1.0  0.00326  0.57993  0.26784  1.0000
  H   H27       1.0  0.00639  0.59640  0.21438  1.0000
  C   C56       1.0  0.99991  0.48385  0.32405  1.0000
  C   C57       1.0  0.00982  0.41072  0.31585  1.0000
  C   C58       1.0  0.03308  0.43442  0.27528  1.0000
  N   N9        1.0  0.02742  0.46914  0.28110  1.0000
  H   H28       1.0  0.05472  0.42599  0.24185  1.0000
  C   C59       1.0  0.00971  0.53072  0.16744  1.0000
  O   O1        1.0  0.03404  0.54178  0.12249  1.0000
  O   O2        1.0  0.98428  0.51752  0.12973  1.0000
  H   H29       1.0  0.98423  0.51040  0.07322  1.0000
  C   C60       1.0  0.01675  0.37521  0.31377  1.0000
  H   H30       1.0  0.04140  0.36756  0.30840  1.0000
  C   C61       1.0  0.48153  0.00225  0.32617  1.0000
  C   C62       1.0  0.45907  0.00808  0.25171  1.0000
  C   C63       1.0  0.42257  0.00646  0.26589  1.0000
  H   H31       1.0  0.40616  0.00944  0.21227  1.0000
  C   C64       1.0  0.51866  0.00324  0.32276  1.0000
  C   C65       1.0  0.59185  0.01281  0.31396  1.0000
  C   C66       1.0  0.56828  0.03587  0.27236  1.0000
  N   N10       1.0  0.53354  0.03036  0.27840  1.0000
  H   H32       1.0  0.57683  0.05723  0.23787  1.0000
  C   C67       1.0  0.47200  0.01282  0.16579  1.0000
  O   O3        1.0  0.46083  0.03718  0.12123  1.0000
  O   O4        1.0  0.48305  0.98655  0.12754  1.0000
  H   H33       1.0  0.48977  0.98606  0.07072  1.0000
  C   C68       1.0  0.62740  0.01959  0.31160  1.0000
  H   H34       1.0  0.63518  0.04419  0.30554  1.0000
  C   C69       1.0  0.85244  0.00495  0.39408  1.0000
  C   C70       1.0  0.81581  0.00433  0.39422  1.0000
  C   C71       1.0  0.70381  0.02394  0.35872  1.0000
  C   C72       1.0  0.74044  0.02411  0.35869  1.0000
  C   C73       1.0  0.00215  0.14995  0.39424  1.0000
  C   C74       1.0  0.00175  0.18658  0.39452  1.0000
  C   C75       1.0  0.02153  0.26205  0.35914  1.0000
  C   C76       1.0  0.02134  0.29868  0.35944  1.0000
  C   C77       1.0  0.18356  0.00240  0.39542  1.0000
  C   C78       1.0  0.14693  0.00186  0.39529  1.0000
  C   C79       1.0  0.25883  0.98206  0.36513  1.0000
  C   C80       1.0  0.29546  0.98180  0.36530  1.0000
  C   C81       1.0  0.99927  0.85567  0.39564  1.0000
  C   C82       1.0  0.99960  0.81904  0.39611  1.0000
  C   C83       1.0  0.97882  0.70702  0.36810  1.0000
  C   C84       1.0  0.97910  0.74365  0.36759  1.0000
  H   H35       1.0  0.96006  0.69449  0.40446  1.0000
  H   H36       1.0  0.96041  0.75646  0.40358  1.0000
  H   H37       1.0  0.99724  0.80653  0.45637  1.0000
  H   H38       1.0  0.99628  0.86873  0.45498  1.0000
  H   H39       1.0  0.13397  0.99842  0.45462  1.0000
  H   H40       1.0  0.19617  0.99976  0.45547  1.0000
  H   H41       1.0  0.00663  0.13698  0.45307  1.0000
  H   H42       1.0  0.00560  0.19922  0.45411  1.0000
  H   H43       1.0  0.04077  0.31159  0.39251  1.0000
  H   H44       1.0  0.04161  0.24947  0.39041  1.0000
  H   H45       1.0  0.75304  0.04411  0.39031  1.0000
  H   H46       1.0  0.69091  0.04330  0.39200  1.0000
  H   H47       1.0  0.80313  0.00807  0.45377  1.0000
  H   H48       1.0  0.86536  0.00949  0.45298  1.0000
  H   H49       1.0  0.24604  0.96314  0.40045  1.0000
  H   H50       1.0  0.30801  0.96282  0.40073  1.0000
  C   C85       1.0  0.99662  0.59417  0.35375  1.0000
  C   C86       1.0  0.99152  0.57029  0.42456  1.0000
  N   N11       1.0  0.99286  0.53561  0.40917  1.0000
  C   C87       1.0  0.97544  0.46134  0.36645  1.0000
  C   C88       1.0  0.98082  0.42493  0.36134  1.0000
  H   H51       1.0  0.96356  0.40846  0.39226  1.0000
  H   H52       1.0  0.98656  0.57856  0.48848  1.0000
  C   C89       1.0  0.94580  0.47304  0.41063  1.0000
  O   O5        1.0  0.94783  0.47554  0.49213  1.0000
  O   O6        1.0  0.92464  0.49267  0.37415  1.0000
  H   H53       1.0  0.92167  0.49434  0.31539  1.0000
  C   C90       1.0  0.99381  0.62979  0.37000  1.0000
  H   H54       1.0  0.98371  0.63748  0.42815  1.0000
  C   C91       1.0  0.40826  0.99991  0.35178  1.0000
  C   C92       1.0  0.43207  0.99495  0.42277  1.0000
  N   N12       1.0  0.46676  0.99631  0.40757  1.0000
  C   C93       1.0  0.54099  0.97913  0.36685  1.0000
  C   C94       1.0  0.57747  0.98423  0.36094  1.0000
  H   H55       1.0  0.59382  0.96706  0.39238  1.0000
  H   H56       1.0  0.42373  0.99003  0.48667  1.0000
  C   C95       1.0  0.52807  0.95004  0.41151  1.0000
  O   O7        1.0  0.53775  0.94429  0.48818  1.0000
  O   O8        1.0  0.51581  0.92480  0.37095  1.0000
  H   H57       1.0  0.50984  0.92482  0.31357  1.0000
  C   C96       1.0  0.37263  0.99700  0.36782  1.0000
  H   H58       1.0  0.36491  0.98666  0.42568  1.0000
