data_image0
_chemical_formula_structural       COHNC2OHCHCOHNC2OHCHOH2C5H2OH2OH2C5H2OH2C2OCHN2C5OHC3OCHN2C5OHC3HC3O2H2CHC2OHCHC6H3N3C2OHOH2COHC2HC3O2H2CHC2OHCHC6H3N3C2OHOH2COHC3O2H2CHC3O2H2CHC3O2H2CHC6H3N3C6H3N3C3OHOHCHC3OHOHCHC3OHOHCHC3O2H2CHC3O2H2CHC3O2H2CHC6H3N3C6H3N3C3OHOHCHC3OHOHCHC3OHOHCH
_chemical_formula_sum              "C144 O48 H96 N24"
_cell_length_a       45.6296
_cell_length_b       45.6296
_cell_length_c       14.8392
_cell_angle_alpha    90
_cell_angle_beta     90
_cell_angle_gamma    120

_space_group_name_H-M_alt    "P 1"
_space_group_IT_number       1

loop_
  _space_group_symop_operation_xyz
  'x, y, z'

loop_
  _atom_site_type_symbol
  _atom_site_label
  _atom_site_symmetry_multiplicity
  _atom_site_fract_x
  _atom_site_fract_y
  _atom_site_fract_z
  _atom_site_occupancy
  C   C1        1.0  0.03266  0.28988  0.33635  1.0000
  O   O1        1.0  0.05504  0.32365  0.32840  1.0000
  H   H1        1.0  0.05885  0.32828  0.26341  1.0000
  N   N1        1.0  0.10453  0.30774  0.34571  1.0000
  C   C2        1.0  0.04379  0.26600  0.34592  1.0000
  C   C3        1.0  0.01849  0.23131  0.35286  1.0000
  O   O2        1.0  0.02703  0.20682  0.36370  1.0000
  H   H2        1.0  0.02813  0.19892  0.30279  1.0000
  C   C4        1.0  0.07852  0.27538  0.34795  1.0000
  H   H3        1.0  0.08462  0.25675  0.35282  1.0000
  C   C5        1.0  0.03266  0.78988  0.33635  1.0000
  O   O3        1.0  0.05505  0.82365  0.32840  1.0000
  H   H4        1.0  0.05885  0.82827  0.26341  1.0000
  N   N2        1.0  0.10453  0.80774  0.34571  1.0000
  C   C6        1.0  0.04379  0.76600  0.34592  1.0000
  C   C7        1.0  0.01849  0.73131  0.35286  1.0000
  O   O4        1.0  0.02703  0.70682  0.36370  1.0000
  H   H5        1.0  0.02813  0.69892  0.30279  1.0000
  C   C8        1.0  0.07851  0.77538  0.34795  1.0000
  H   H6        1.0  0.08462  0.75676  0.35282  1.0000
  O   O5        1.0  0.18990  0.23411  0.32836  1.0000
  H   H7        1.0  0.20163  0.17893  0.38661  1.0000
  H   H8        1.0  0.18527  0.23328  0.26337  1.0000
  C   C9        1.0  0.19167  0.31960  0.34595  1.0000
  C   C10       1.0  0.15597  0.30327  0.34590  1.0000
  C   C11       1.0  0.13876  0.32188  0.34596  1.0000
  C   C12       1.0  0.15814  0.35758  0.34592  1.0000
  C   C13       1.0  0.19395  0.37479  0.34596  1.0000
  H   H9        1.0  0.14582  0.37111  0.34559  1.0000
  H   H10       1.0  0.14243  0.27742  0.34559  1.0000
  O   O6        1.0  0.19062  0.48651  0.36367  1.0000
  H   H11       1.0  0.18164  0.48542  0.30275  1.0000
  H   H12       1.0  0.18297  0.42892  0.35283  1.0000
  O   O7        1.0  0.18990  0.73411  0.32836  1.0000
  H   H13       1.0  0.20163  0.67893  0.38661  1.0000
  H   H14       1.0  0.18527  0.73328  0.26337  1.0000
  C   C14       1.0  0.19167  0.81960  0.34595  1.0000
  C   C15       1.0  0.15597  0.80327  0.34590  1.0000
  C   C16       1.0  0.13876  0.82188  0.34596  1.0000
  C   C17       1.0  0.15814  0.85758  0.34592  1.0000
  C   C18       1.0  0.19395  0.87479  0.34596  1.0000
  H   H15       1.0  0.14582  0.87112  0.34559  1.0000
  H   H16       1.0  0.14243  0.77742  0.34559  1.0000
  O   O8        1.0  0.19062  0.98651  0.36367  1.0000
  H   H17       1.0  0.18164  0.98542  0.30275  1.0000
  H   H18       1.0  0.18297  0.92892  0.35283  1.0000
  C   C19       1.0  0.23402  0.22095  0.33652  1.0000
  C   C20       1.0  0.22367  0.24549  0.33631  1.0000
  O   O9        1.0  0.20953  0.18791  0.32569  1.0000
  C   C21       1.0  0.21028  0.35541  0.34591  1.0000
  H   H19       1.0  0.23613  0.36773  0.34558  1.0000
  N   N3        1.0  0.20581  0.29950  0.34569  1.0000
  N   N4        1.0  0.21405  0.40902  0.34569  1.0000
  C   C22       1.0  0.24755  0.28050  0.34590  1.0000
  C   C23       1.0  0.23817  0.30584  0.34794  1.0000
  C   C24       1.0  0.23305  0.46976  0.34590  1.0000
  C   C25       1.0  0.22366  0.49506  0.35284  1.0000
  C   C26       1.0  0.24820  0.02995  0.35305  1.0000
  O   O10       1.0  0.23681  0.05234  0.36101  1.0000
  H   H20       1.0  0.23599  0.05614  0.42600  1.0000
  C   C27       1.0  0.20770  0.43503  0.34794  1.0000
  C   C28       1.0  0.23402  0.72095  0.33652  1.0000
  C   C29       1.0  0.22367  0.74549  0.33631  1.0000
  O   O11       1.0  0.20953  0.68792  0.32569  1.0000
  C   C30       1.0  0.21028  0.85541  0.34591  1.0000
  H   H21       1.0  0.23613  0.86772  0.34558  1.0000
  N   N5        1.0  0.20581  0.79950  0.34569  1.0000
  N   N6        1.0  0.21405  0.90902  0.34569  1.0000
  C   C31       1.0  0.24755  0.78050  0.34590  1.0000
  C   C32       1.0  0.23817  0.80584  0.34794  1.0000
  C   C33       1.0  0.23305  0.96976  0.34590  1.0000
  C   C34       1.0  0.22366  0.99506  0.35284  1.0000
  C   C35       1.0  0.24820  0.52995  0.35305  1.0000
  O   O12       1.0  0.23681  0.55234  0.36101  1.0000
  H   H22       1.0  0.23599  0.55614  0.42600  1.0000
  C   C36       1.0  0.20770  0.93503  0.34794  1.0000
  C   C37       1.0  0.26871  0.23034  0.34350  1.0000
  C   C38       1.0  0.27809  0.20500  0.34147  1.0000
  H   H23       1.0  0.25947  0.18026  0.33658  1.0000
  C   C39       1.0  0.28321  0.04108  0.34348  1.0000
  C   C40       1.0  0.29260  0.01578  0.33652  1.0000
  C   C41       1.0  0.26806  0.48089  0.33633  1.0000
  O   O13       1.0  0.32564  0.02433  0.32575  1.0000
  O   O14       1.0  0.27944  0.45850  0.32840  1.0000
  H   H24       1.0  0.33461  0.02541  0.38668  1.0000
  H   H25       1.0  0.28027  0.45470  0.26343  1.0000
  C   C42       1.0  0.30855  0.07581  0.34146  1.0000
  H   H26       1.0  0.33329  0.08192  0.33658  1.0000
  C   C43       1.0  0.47247  0.24484  0.34352  1.0000
  C   C44       1.0  0.49777  0.27953  0.33657  1.0000
  O   O15       1.0  0.48922  0.30402  0.32573  1.0000
  H   H27       1.0  0.48813  0.31192  0.38664  1.0000
  C   C45       1.0  0.43774  0.23546  0.34148  1.0000
  H   H28       1.0  0.43163  0.25408  0.33660  1.0000
  C   C46       1.0  0.32458  0.19124  0.34346  1.0000
  C   C47       1.0  0.36029  0.20757  0.34350  1.0000
  C   C48       1.0  0.37750  0.18896  0.34346  1.0000
  C   C49       1.0  0.35812  0.15326  0.34350  1.0000
  C   C50       1.0  0.32231  0.13605  0.34345  1.0000
  C   C51       1.0  0.30598  0.15543  0.34350  1.0000
  H   H29       1.0  0.37043  0.13972  0.34383  1.0000
  H   H30       1.0  0.28013  0.14311  0.34383  1.0000
  H   H31       1.0  0.37382  0.23342  0.34384  1.0000
  N   N7        1.0  0.31045  0.21134  0.34372  1.0000
  N   N8        1.0  0.41173  0.20310  0.34373  1.0000
  N   N9        1.0  0.30221  0.10182  0.34371  1.0000
  C   C52       1.0  0.28224  0.28989  0.35286  1.0000
  C   C53       1.0  0.29259  0.26535  0.35308  1.0000
  O   O16       1.0  0.32636  0.27673  0.36107  1.0000
  H   H32       1.0  0.33098  0.27755  0.42606  1.0000
  O   O17       1.0  0.30673  0.32292  0.36373  1.0000
  H   H33       1.0  0.31463  0.33192  0.30282  1.0000
  H   H34       1.0  0.25679  0.33058  0.35284  1.0000
  C   C54       1.0  0.48360  0.22096  0.35309  1.0000
  O   O18       1.0  0.46121  0.18719  0.36103  1.0000
  H   H35       1.0  0.45741  0.18256  0.42601  1.0000
  C   C55       1.0  0.26871  0.73034  0.34350  1.0000
  C   C56       1.0  0.27809  0.70500  0.34147  1.0000
  H   H36       1.0  0.25947  0.68026  0.33658  1.0000
  C   C57       1.0  0.28321  0.54108  0.34348  1.0000
  C   C58       1.0  0.29260  0.51578  0.33652  1.0000
  C   C59       1.0  0.26806  0.98089  0.33633  1.0000
  O   O19       1.0  0.32564  0.52433  0.32575  1.0000
  O   O20       1.0  0.27944  0.95850  0.32840  1.0000
  H   H37       1.0  0.33461  0.52541  0.38668  1.0000
  H   H38       1.0  0.28027  0.95470  0.26343  1.0000
  C   C60       1.0  0.30855  0.57581  0.34146  1.0000
  H   H39       1.0  0.33329  0.58191  0.33658  1.0000
  C   C61       1.0  0.47247  0.74484  0.34352  1.0000
  C   C62       1.0  0.49777  0.77953  0.33657  1.0000
  O   O21       1.0  0.48922  0.80402  0.32573  1.0000
  H   H40       1.0  0.48813  0.81192  0.38664  1.0000
  C   C63       1.0  0.43774  0.73546  0.34148  1.0000
  H   H41       1.0  0.43163  0.75408  0.33660  1.0000
  C   C64       1.0  0.32458  0.69124  0.34346  1.0000
  C   C65       1.0  0.36029  0.70757  0.34350  1.0000
  C   C66       1.0  0.37750  0.68896  0.34346  1.0000
  C   C67       1.0  0.35812  0.65326  0.34350  1.0000
  C   C68       1.0  0.32230  0.63605  0.34345  1.0000
  C   C69       1.0  0.30598  0.65543  0.34350  1.0000
  H   H42       1.0  0.37043  0.63972  0.34383  1.0000
  H   H43       1.0  0.28013  0.64311  0.34383  1.0000
  H   H44       1.0  0.37383  0.73342  0.34384  1.0000
  N   N10       1.0  0.31045  0.71134  0.34372  1.0000
  N   N11       1.0  0.41173  0.70310  0.34373  1.0000
  N   N12       1.0  0.30221  0.60181  0.34371  1.0000
  C   C70       1.0  0.28224  0.78989  0.35286  1.0000
  C   C71       1.0  0.29259  0.76535  0.35308  1.0000
  O   O22       1.0  0.32636  0.77673  0.36107  1.0000
  H   H45       1.0  0.33098  0.77755  0.42606  1.0000
  O   O23       1.0  0.30673  0.82292  0.36373  1.0000
  H   H46       1.0  0.31463  0.83192  0.30282  1.0000
  H   H47       1.0  0.25679  0.83058  0.35284  1.0000
  C   C72       1.0  0.48360  0.72096  0.35309  1.0000
  O   O24       1.0  0.46121  0.68719  0.36103  1.0000
  H   H48       1.0  0.45741  0.68256  0.42601  1.0000
  C   C73       1.0  0.76871  0.23034  0.34350  1.0000
  C   C74       1.0  0.73402  0.22095  0.33652  1.0000
  C   C75       1.0  0.72367  0.24549  0.33631  1.0000
  O   O25       1.0  0.70953  0.18791  0.32569  1.0000
  O   O26       1.0  0.68990  0.23411  0.32836  1.0000
  H   H49       1.0  0.70163  0.17893  0.38661  1.0000
  H   H50       1.0  0.68527  0.23328  0.26337  1.0000
  C   C76       1.0  0.77809  0.20500  0.34147  1.0000
  H   H51       1.0  0.75947  0.18026  0.33658  1.0000
  C   C77       1.0  0.78321  0.04108  0.34348  1.0000
  C   C78       1.0  0.79260  0.01578  0.33652  1.0000
  C   C79       1.0  0.76806  0.48089  0.33633  1.0000
  O   O27       1.0  0.82564  0.02433  0.32575  1.0000
  O   O28       1.0  0.77945  0.45850  0.32840  1.0000
  H   H52       1.0  0.83461  0.02541  0.38668  1.0000
  H   H53       1.0  0.78028  0.45470  0.26343  1.0000
  C   C80       1.0  0.80855  0.07581  0.34146  1.0000
  H   H54       1.0  0.83329  0.08192  0.33658  1.0000
  C   C81       1.0  0.97247  0.24484  0.34352  1.0000
  C   C82       1.0  0.99777  0.27953  0.33657  1.0000
  C   C83       1.0  0.53266  0.28988  0.33635  1.0000
  O   O29       1.0  0.98922  0.30402  0.32573  1.0000
  O   O30       1.0  0.55505  0.32365  0.32840  1.0000
  H   H55       1.0  0.98813  0.31192  0.38664  1.0000
  H   H56       1.0  0.55885  0.32828  0.26341  1.0000
  C   C84       1.0  0.93774  0.23546  0.34148  1.0000
  H   H57       1.0  0.93163  0.25408  0.33660  1.0000
  C   C85       1.0  0.69167  0.31960  0.34595  1.0000
  C   C86       1.0  0.65597  0.30327  0.34590  1.0000
  C   C87       1.0  0.63876  0.32188  0.34596  1.0000
  C   C88       1.0  0.65814  0.35758  0.34592  1.0000
  C   C89       1.0  0.69395  0.37479  0.34596  1.0000
  C   C90       1.0  0.71028  0.35541  0.34591  1.0000
  H   H58       1.0  0.64582  0.37111  0.34559  1.0000
  H   H59       1.0  0.73613  0.36773  0.34558  1.0000
  H   H60       1.0  0.64243  0.27742  0.34559  1.0000
  N   N13       1.0  0.70581  0.29950  0.34569  1.0000
  N   N14       1.0  0.60453  0.30774  0.34571  1.0000
  N   N15       1.0  0.71405  0.40902  0.34569  1.0000
  C   C91       1.0  0.82459  0.19124  0.34346  1.0000
  C   C92       1.0  0.86029  0.20757  0.34350  1.0000
  C   C93       1.0  0.87750  0.18896  0.34346  1.0000
  C   C94       1.0  0.85812  0.15326  0.34350  1.0000
  C   C95       1.0  0.82231  0.13605  0.34345  1.0000
  C   C96       1.0  0.80598  0.15543  0.34350  1.0000
  H   H61       1.0  0.87044  0.13972  0.34383  1.0000
  H   H62       1.0  0.78013  0.14311  0.34383  1.0000
  H   H63       1.0  0.87382  0.23342  0.34384  1.0000
  N   N16       1.0  0.81045  0.21134  0.34372  1.0000
  N   N17       1.0  0.91173  0.20310  0.34373  1.0000
  N   N18       1.0  0.80221  0.10182  0.34371  1.0000
  C   C97       1.0  0.74755  0.28050  0.34590  1.0000
  C   C98       1.0  0.78224  0.28989  0.35286  1.0000
  C   C99       1.0  0.79259  0.26535  0.35308  1.0000
  O   O31       1.0  0.82636  0.27673  0.36107  1.0000
  H   H64       1.0  0.83098  0.27755  0.42606  1.0000
  O   O32       1.0  0.80673  0.32292  0.36373  1.0000
  H   H65       1.0  0.81463  0.33192  0.30282  1.0000
  C   C100      1.0  0.73817  0.30584  0.34794  1.0000
  H   H66       1.0  0.75679  0.33058  0.35284  1.0000
  C   C101      1.0  0.73305  0.46976  0.34590  1.0000
  C   C102      1.0  0.72366  0.49506  0.35284  1.0000
  C   C103      1.0  0.74820  0.02995  0.35305  1.0000
  O   O33       1.0  0.73681  0.05234  0.36101  1.0000
  H   H67       1.0  0.73599  0.05614  0.42600  1.0000
  O   O34       1.0  0.69062  0.48651  0.36367  1.0000
  H   H68       1.0  0.68164  0.48542  0.30275  1.0000
  C   C104      1.0  0.70770  0.43503  0.34794  1.0000
  H   H69       1.0  0.68297  0.42892  0.35283  1.0000
  C   C105      1.0  0.54379  0.26600  0.34592  1.0000
  C   C106      1.0  0.51849  0.23131  0.35286  1.0000
  C   C107      1.0  0.98360  0.22096  0.35309  1.0000
  O   O35       1.0  0.96121  0.18719  0.36103  1.0000
  H   H70       1.0  0.95741  0.18256  0.42601  1.0000
  O   O36       1.0  0.52703  0.20682  0.36370  1.0000
  H   H71       1.0  0.52812  0.19892  0.30279  1.0000
  C   C108      1.0  0.57852  0.27538  0.34795  1.0000
  H   H72       1.0  0.58462  0.25675  0.35282  1.0000
  C   C109      1.0  0.76871  0.73034  0.34350  1.0000
  C   C110      1.0  0.73402  0.72095  0.33652  1.0000
  C   C111      1.0  0.72367  0.74549  0.33631  1.0000
  O   O37       1.0  0.70953  0.68792  0.32569  1.0000
  O   O38       1.0  0.68990  0.73411  0.32836  1.0000
  H   H73       1.0  0.70163  0.67893  0.38661  1.0000
  H   H74       1.0  0.68527  0.73328  0.26337  1.0000
  C   C112      1.0  0.77809  0.70500  0.34147  1.0000
  H   H75       1.0  0.75947  0.68026  0.33658  1.0000
  C   C113      1.0  0.78321  0.54108  0.34348  1.0000
  C   C114      1.0  0.79260  0.51578  0.33652  1.0000
  C   C115      1.0  0.76806  0.98089  0.33633  1.0000
  O   O39       1.0  0.82564  0.52433  0.32575  1.0000
  O   O40       1.0  0.77944  0.95850  0.32840  1.0000
  H   H76       1.0  0.83461  0.52541  0.38668  1.0000
  H   H77       1.0  0.78027  0.95470  0.26343  1.0000
  C   C116      1.0  0.80855  0.57581  0.34146  1.0000
  H   H78       1.0  0.83329  0.58191  0.33658  1.0000
  C   C117      1.0  0.97247  0.74484  0.34352  1.0000
  C   C118      1.0  0.99777  0.77953  0.33657  1.0000
  C   C119      1.0  0.53266  0.78988  0.33635  1.0000
  O   O41       1.0  0.98922  0.80402  0.32573  1.0000
  O   O42       1.0  0.55505  0.82365  0.32840  1.0000
  H   H79       1.0  0.98813  0.81192  0.38664  1.0000
  H   H80       1.0  0.55885  0.82827  0.26341  1.0000
  C   C120      1.0  0.93774  0.73546  0.34148  1.0000
  H   H81       1.0  0.93163  0.75408  0.33660  1.0000
  C   C121      1.0  0.69167  0.81960  0.34595  1.0000
  C   C122      1.0  0.65597  0.80327  0.34590  1.0000
  C   C123      1.0  0.63876  0.82188  0.34596  1.0000
  C   C124      1.0  0.65814  0.85758  0.34592  1.0000
  C   C125      1.0  0.69395  0.87479  0.34596  1.0000
  C   C126      1.0  0.71028  0.85541  0.34591  1.0000
  H   H82       1.0  0.64582  0.87112  0.34559  1.0000
  H   H83       1.0  0.73613  0.86772  0.34558  1.0000
  H   H84       1.0  0.64243  0.77742  0.34559  1.0000
  N   N19       1.0  0.70581  0.79950  0.34569  1.0000
  N   N20       1.0  0.60453  0.80774  0.34571  1.0000
  N   N21       1.0  0.71405  0.90902  0.34569  1.0000
  C   C127      1.0  0.82459  0.69124  0.34346  1.0000
  C   C128      1.0  0.86029  0.70757  0.34350  1.0000
  C   C129      1.0  0.87750  0.68896  0.34346  1.0000
  C   C130      1.0  0.85812  0.65326  0.34350  1.0000
  C   C131      1.0  0.82231  0.63605  0.34345  1.0000
  C   C132      1.0  0.80598  0.65543  0.34350  1.0000
  H   H85       1.0  0.87043  0.63972  0.34383  1.0000
  H   H86       1.0  0.78013  0.64311  0.34383  1.0000
  H   H87       1.0  0.87382  0.73342  0.34384  1.0000
  N   N22       1.0  0.81045  0.71134  0.34372  1.0000
  N   N23       1.0  0.91173  0.70310  0.34373  1.0000
  N   N24       1.0  0.80221  0.60181  0.34371  1.0000
  C   C133      1.0  0.74755  0.78050  0.34590  1.0000
  C   C134      1.0  0.78224  0.78989  0.35286  1.0000
  C   C135      1.0  0.79258  0.76535  0.35308  1.0000
  O   O43       1.0  0.82636  0.77673  0.36107  1.0000
  H   H88       1.0  0.83098  0.77755  0.42606  1.0000
  O   O44       1.0  0.80673  0.82292  0.36373  1.0000
  H   H89       1.0  0.81463  0.83192  0.30282  1.0000
  C   C136      1.0  0.73817  0.80584  0.34794  1.0000
  H   H90       1.0  0.75679  0.83058  0.35284  1.0000
  C   C137      1.0  0.73305  0.96976  0.34590  1.0000
  C   C138      1.0  0.72366  0.99506  0.35284  1.0000
  C   C139      1.0  0.74820  0.52995  0.35305  1.0000
  O   O45       1.0  0.73681  0.55234  0.36101  1.0000
  H   H91       1.0  0.73599  0.55614  0.42600  1.0000
  O   O46       1.0  0.69062  0.98651  0.36367  1.0000
  H   H92       1.0  0.68163  0.98542  0.30275  1.0000
  C   C140      1.0  0.70770  0.93503  0.34794  1.0000
  H   H93       1.0  0.68297  0.92892  0.35283  1.0000
  C   C141      1.0  0.54379  0.76600  0.34592  1.0000
  C   C142      1.0  0.51849  0.73131  0.35286  1.0000
  C   C143      1.0  0.98360  0.72096  0.35309  1.0000
  O   O47       1.0  0.96121  0.68719  0.36103  1.0000
  H   H94       1.0  0.95741  0.68256  0.42601  1.0000
  O   O48       1.0  0.52703  0.70682  0.36370  1.0000
  H   H95       1.0  0.52813  0.69892  0.30279  1.0000
  C   C144      1.0  0.57852  0.77538  0.34795  1.0000
  H   H96       1.0  0.58462  0.75676  0.35282  1.0000
