data_image0
_chemical_formula_structural       C4OHOHC4OHOHC4OHOHC2O2H2C2O2H2C2O2H2C2O2H2C2O2H2C2O2H2NC18H12NC18H12NC18H12NC18H12NC18H12NC18H12C2O2H2C2O2H2C2O2H2C4OHOHC4OHOHC4OHOHC4OHOHC4OHOHC4OHOH
_chemical_formula_sum              "C162 O36 H108 N6"
_cell_length_a       52.5491
_cell_length_b       52.5491
_cell_length_c       14.8722
_cell_angle_alpha    90
_cell_angle_beta     90
_cell_angle_gamma    120

_space_group_name_H-M_alt    "P 1"
_space_group_IT_number       1

loop_
  _space_group_symop_operation_xyz
  'x, y, z'

loop_
  _atom_site_type_symbol
  _atom_site_label
  _atom_site_symmetry_multiplicity
  _atom_site_fract_x
  _atom_site_fract_y
  _atom_site_fract_z
  _atom_site_occupancy
  C   C1        1.0  0.97515  0.48970  0.35403  1.0000
  C   C2        1.0  0.99063  0.48184  0.29208  1.0000
  C   C3        1.0  0.02176  0.49732  0.28894  1.0000
  C   C4        1.0  0.03853  0.52056  0.34987  1.0000
  O   O1        1.0  0.03550  0.48798  0.23093  1.0000
  H   H1        1.0  0.03366  0.49461  0.17063  1.0000
  O   O2        1.0  0.97592  0.45895  0.23410  1.0000
  H   H2        1.0  0.97173  0.44109  0.26746  1.0000
  C   C5        1.0  0.52246  0.48809  0.33322  1.0000
  C   C6        1.0  0.49934  0.48049  0.27069  1.0000
  C   C7        1.0  0.48331  0.49556  0.26928  1.0000
  C   C8        1.0  0.48986  0.51891  0.33007  1.0000
  O   O3        1.0  0.46105  0.48665  0.20845  1.0000
  H   H3        1.0  0.44288  0.47307  0.24063  1.0000
  O   O4        1.0  0.49166  0.45813  0.21095  1.0000
  H   H4        1.0  0.47814  0.43992  0.24303  1.0000
  C   C9        1.0  0.52092  0.03608  0.33922  1.0000
  C   C10       1.0  0.51189  0.01900  0.25917  1.0000
  C   C11       1.0  0.49681  0.98787  0.26201  1.0000
  C   C12       1.0  0.48891  0.97228  0.34489  1.0000
  O   O5        1.0  0.49051  0.97348  0.18165  1.0000
  H   H5        1.0  0.50590  0.96833  0.17152  1.0000
  O   O6        1.0  0.51572  0.03227  0.17740  1.0000
  H   H6        1.0  0.53050  0.02964  0.14446  1.0000
  C   C13       1.0  0.25837  0.53717  0.24251  1.0000
  C   C14       1.0  0.28494  0.53654  0.23820  1.0000
  O   O7        1.0  0.23833  0.52389  0.17544  1.0000
  O   O8        1.0  0.28932  0.52282  0.16712  1.0000
  H   H7        1.0  0.22397  0.50424  0.19794  1.0000
  H   H8        1.0  0.28364  0.50289  0.18783  1.0000
  C   C15       1.0  0.45604  0.71347  0.25575  1.0000
  C   C16       1.0  0.45672  0.74074  0.25273  1.0000
  O   O9        1.0  0.45263  0.69904  0.17642  1.0000
  O   O10       1.0  0.45776  0.75234  0.16988  1.0000
  H   H9        1.0  0.47167  0.70931  0.14504  1.0000
  H   H10       1.0  0.47824  0.76802  0.16084  1.0000
  C   C17       1.0  0.30321  0.73333  0.31938  1.0000
  C   C18       1.0  0.27640  0.70635  0.31661  1.0000
  O   O11       1.0  0.32480  0.73771  0.25983  1.0000
  O   O12       1.0  0.27330  0.68583  0.25466  1.0000
  H   H11       1.0  0.31947  0.74287  0.20197  1.0000
  H   H12       1.0  0.26853  0.69176  0.19719  1.0000
  C   C19       1.0  0.74078  0.44361  0.30915  1.0000
  C   C20       1.0  0.71355  0.44292  0.30500  1.0000
  O   O13       1.0  0.74609  0.42728  0.24867  1.0000
  O   O14       1.0  0.69376  0.42590  0.24083  1.0000
  H   H13       1.0  0.75231  0.43873  0.19259  1.0000
  H   H14       1.0  0.70014  0.43710  0.18431  1.0000
  C   C21       1.0  0.54441  0.28829  0.23483  1.0000
  C   C22       1.0  0.54424  0.26129  0.23221  1.0000
  O   O15       1.0  0.53002  0.29403  0.16878  1.0000
  O   O16       1.0  0.52963  0.24218  0.16400  1.0000
  H   H15       1.0  0.51048  0.28838  0.19308  1.0000
  H   H16       1.0  0.50992  0.22835  0.18731  1.0000
  C   C23       1.0  0.71795  0.26711  0.26630  1.0000
  C   C24       1.0  0.74529  0.29357  0.26312  1.0000
  O   O17       1.0  0.70297  0.25691  0.18731  1.0000
  O   O18       1.0  0.75641  0.30456  0.18012  1.0000
  H   H17       1.0  0.71310  0.24869  0.15241  1.0000
  H   H18       1.0  0.77208  0.29987  0.16904  1.0000
  N   N1        1.0  0.16431  0.58183  0.34793  1.0000
  C   C25       1.0  0.18109  0.61248  0.36574  1.0000
  C   C26       1.0  0.13311  0.56642  0.34812  1.0000
  C   C27       1.0  0.18090  0.56775  0.33018  1.0000
  C   C28       1.0  0.19807  0.57470  0.25123  1.0000
  C   C29       1.0  0.22091  0.56816  0.24407  1.0000
  C   C30       1.0  0.22708  0.55426  0.31546  1.0000
  C   C31       1.0  0.20860  0.54566  0.39203  1.0000
  C   C32       1.0  0.18594  0.55246  0.39953  1.0000
  C   C33       1.0  0.18665  0.63284  0.29604  1.0000
  C   C34       1.0  0.20963  0.66214  0.30363  1.0000
  C   C35       1.0  0.22786  0.67179  0.38076  1.0000
  C   C36       1.0  0.22116  0.65177  0.45256  1.0000
  C   C37       1.0  0.19804  0.62252  0.44515  1.0000
  C   C38       1.0  0.11722  0.56437  0.26936  1.0000
  C   C39       1.0  0.08623  0.54936  0.26987  1.0000
  C   C40       1.0  0.07011  0.53575  0.34900  1.0000
  C   C41       1.0  0.08627  0.53787  0.42768  1.0000
  C   C42       1.0  0.11726  0.55304  0.42735  1.0000
  H   H19       1.0  0.21419  0.67589  0.24977  1.0000
  H   H20       1.0  0.17562  0.62584  0.23635  1.0000
  H   H21       1.0  0.19528  0.60792  0.49493  1.0000
  H   H22       1.0  0.23444  0.65767  0.50808  1.0000
  H   H23       1.0  0.19576  0.58695  0.20185  1.0000
  H   H24       1.0  0.23441  0.57566  0.18906  1.0000
  H   H25       1.0  0.12821  0.57398  0.21115  1.0000
  H   H26       1.0  0.07547  0.54879  0.21188  1.0000
  H   H27       1.0  0.07552  0.52817  0.48619  1.0000
  H   H28       1.0  0.12828  0.55430  0.48539  1.0000
  H   H29       1.0  0.17470  0.54830  0.45885  1.0000
  H   H30       1.0  0.21262  0.53588  0.44542  1.0000
  N   N2        1.0  0.42490  0.57984  0.31894  1.0000
  C   C43       1.0  0.39408  0.56447  0.30193  1.0000
  C   C44       1.0  0.44123  0.56497  0.32271  1.0000
  C   C45       1.0  0.43778  0.61052  0.33738  1.0000
  C   C46       1.0  0.42515  0.62033  0.40286  1.0000
  C   C47       1.0  0.43120  0.64958  0.40328  1.0000
  C   C48       1.0  0.45180  0.67084  0.34312  1.0000
  C   C49       1.0  0.46662  0.66138  0.28401  1.0000
  C   C50       1.0  0.45914  0.63163  0.27930  1.0000
  C   C51       1.0  0.37442  0.54785  0.37138  1.0000
  C   C52       1.0  0.34503  0.54149  0.36965  1.0000
  C   C53       1.0  0.33451  0.55161  0.29847  1.0000
  C   C54       1.0  0.35363  0.56627  0.22565  1.0000
  C   C55       1.0  0.38299  0.57249  0.22719  1.0000
  C   C56       1.0  0.44497  0.55346  0.40417  1.0000
  C   C57       1.0  0.46075  0.53824  0.40652  1.0000
  C   C58       1.0  0.47373  0.53442  0.32787  1.0000
  C   C59       1.0  0.47013  0.54641  0.24670  1.0000
  C   C60       1.0  0.45395  0.56119  0.24397  1.0000
  H   H31       1.0  0.33195  0.53129  0.42415  1.0000
  H   H32       1.0  0.38216  0.54310  0.42831  1.0000
  H   H33       1.0  0.39711  0.58583  0.17843  1.0000
  H   H34       1.0  0.34712  0.57483  0.17464  1.0000
  H   H35       1.0  0.40892  0.60555  0.44417  1.0000
  H   H36       1.0  0.41885  0.65465  0.44482  1.0000
  H   H37       1.0  0.43590  0.55585  0.46214  1.0000
  H   H38       1.0  0.46238  0.52961  0.46649  1.0000
  H   H39       1.0  0.47947  0.54461  0.18840  1.0000
  H   H40       1.0  0.45160  0.56939  0.18410  1.0000
  H   H41       1.0  0.46829  0.62519  0.23000  1.0000
  H   H42       1.0  0.48206  0.67585  0.24015  1.0000
  N   N3        1.0  0.42568  0.84534  0.35774  1.0000
  C   C61       1.0  0.43851  0.82739  0.33857  1.0000
  C   C62       1.0  0.44153  0.87684  0.35367  1.0000
  C   C63       1.0  0.39490  0.82912  0.37716  1.0000
  C   C64       1.0  0.38493  0.81174  0.45585  1.0000
  C   C65       1.0  0.35585  0.78808  0.46211  1.0000
  C   C66       1.0  0.33590  0.78134  0.39000  1.0000
  C   C67       1.0  0.34527  0.80014  0.31436  1.0000
  C   C68       1.0  0.37436  0.82345  0.30772  1.0000
  C   C69       1.0  0.45892  0.82624  0.39784  1.0000
  C   C70       1.0  0.46638  0.80405  0.39063  1.0000
  C   C71       1.0  0.45193  0.78053  0.32891  1.0000
  C   C72       1.0  0.43218  0.78234  0.26775  1.0000
  C   C73       1.0  0.42654  0.80585  0.27010  1.0000
  C   C74       1.0  0.46458  0.89380  0.41438  1.0000
  C   C75       1.0  0.48059  0.92473  0.40954  1.0000
  C   C76       1.0  0.47312  0.94048  0.34771  1.0000
  C   C77       1.0  0.44925  0.92338  0.28915  1.0000
  C   C78       1.0  0.43443  0.89241  0.29037  1.0000
  H   H43       1.0  0.48133  0.80437  0.43525  1.0000
  H   H44       1.0  0.46727  0.84036  0.45069  1.0000
  H   H45       1.0  0.41101  0.80526  0.22740  1.0000
  H   H46       1.0  0.42018  0.76556  0.22381  1.0000
  H   H47       1.0  0.39966  0.81423  0.50490  1.0000
  H   H48       1.0  0.35012  0.77432  0.51641  1.0000
  H   H49       1.0  0.47009  0.88388  0.46333  1.0000
  H   H50       1.0  0.49795  0.93566  0.45248  1.0000
  H   H51       1.0  0.44215  0.93335  0.24472  1.0000
  H   H52       1.0  0.41798  0.88137  0.24499  1.0000
  H   H53       1.0  0.38117  0.83375  0.24707  1.0000
  H   H54       1.0  0.33170  0.79547  0.25991  1.0000
  N   N4        1.0  0.84928  0.42893  0.36410  1.0000
  C   C79       1.0  0.83135  0.39827  0.34534  1.0000
  C   C80       1.0  0.88048  0.44371  0.36056  1.0000
  C   C81       1.0  0.83400  0.44442  0.38206  1.0000
  C   C82       1.0  0.81503  0.43641  0.45710  1.0000
  C   C83       1.0  0.79196  0.44275  0.45915  1.0000
  C   C84       1.0  0.78748  0.45747  0.38656  1.0000
  C   C85       1.0  0.80803  0.46759  0.31514  1.0000
  C   C86       1.0  0.83100  0.46115  0.31288  1.0000
  C   C87       1.0  0.83193  0.37705  0.40212  1.0000
  C   C88       1.0  0.80975  0.34727  0.39700  1.0000
  C   C89       1.0  0.78519  0.33789  0.33908  1.0000
  C   C90       1.0  0.78547  0.35931  0.28042  1.0000
  C   C91       1.0  0.80863  0.38857  0.28081  1.0000
  C   C92       1.0  0.89688  0.44732  0.43938  1.0000
  C   C93       1.0  0.92784  0.46206  0.43695  1.0000
  C   C94       1.0  0.94352  0.47424  0.35603  1.0000
  C   C95       1.0  0.92681  0.47055  0.27726  1.0000
  C   C96       1.0  0.89581  0.45535  0.27931  1.0000
  H   H55       1.0  0.81102  0.33271  0.43975  1.0000
  H   H56       1.0  0.84776  0.38339  0.45059  1.0000
  H   H57       1.0  0.80697  0.40345  0.24057  1.0000
  H   H58       1.0  0.76787  0.35430  0.23976  1.0000
  H   H59       1.0  0.81579  0.42299  0.50556  1.0000
  H   H60       1.0  0.77693  0.43420  0.51025  1.0000
  H   H61       1.0  0.88626  0.43900  0.49909  1.0000
  H   H62       1.0  0.93890  0.46366  0.49523  1.0000
  H   H63       1.0  0.93715  0.47924  0.21743  1.0000
  H   H64       1.0  0.88441  0.45308  0.22127  1.0000
  H   H65       1.0  0.84330  0.46575  0.25560  1.0000
  H   H66       1.0  0.80501  0.47767  0.26055  1.0000
  N   N5        1.0  0.58703  0.42686  0.33739  1.0000
  C   C97       1.0  0.61772  0.44111  0.35512  1.0000
  C   C98       1.0  0.57115  0.44218  0.33642  1.0000
  C   C99       1.0  0.57335  0.39623  0.31938  1.0000
  C   C100      1.0  0.58050  0.38624  0.24033  1.0000
  C   C101      1.0  0.57449  0.35703  0.23321  1.0000
  C   C102      1.0  0.56104  0.33698  0.30490  1.0000
  C   C103      1.0  0.55225  0.34660  0.38165  1.0000
  C   C104      1.0  0.55842  0.37587  0.38895  1.0000
  C   C105      1.0  0.63799  0.45634  0.28559  1.0000
  C   C106      1.0  0.66746  0.46315  0.29304  1.0000
  C   C107      1.0  0.67741  0.45476  0.36989  1.0000
  C   C108      1.0  0.65740  0.44098  0.44148  1.0000
  C   C109      1.0  0.62799  0.43434  0.43428  1.0000
  C   C110      1.0  0.56853  0.45525  0.25671  1.0000
  C   C111      1.0  0.55270  0.47041  0.25583  1.0000
  C   C112      1.0  0.53878  0.47282  0.33440  1.0000
  C   C113      1.0  0.54149  0.45955  0.41404  1.0000
  C   C114      1.0  0.55748  0.44455  0.41512  1.0000
  H   H67       1.0  0.68119  0.47277  0.23939  1.0000
  H   H68       1.0  0.63083  0.46024  0.22598  1.0000
  H   H69       1.0  0.61346  0.42221  0.48387  1.0000
  H   H70       1.0  0.66349  0.43371  0.49683  1.0000
  H   H71       1.0  0.59241  0.40085  0.19067  1.0000
  H   H72       1.0  0.58202  0.35115  0.17798  1.0000
  H   H73       1.0  0.57821  0.45379  0.19876  1.0000
  H   H74       1.0  0.55161  0.47994  0.19702  1.0000
  H   H75       1.0  0.53148  0.46041  0.47209  1.0000
  H   H76       1.0  0.55902  0.43521  0.47370  1.0000
  H   H77       1.0  0.55425  0.38284  0.44846  1.0000
  H   H78       1.0  0.54290  0.33283  0.43538  1.0000
  N   N6        1.0  0.58498  0.16301  0.32650  1.0000
  C   C115      1.0  0.57059  0.17943  0.30764  1.0000
  C   C116      1.0  0.56922  0.13149  0.33047  1.0000
  C   C117      1.0  0.61580  0.18085  0.34505  1.0000
  C   C118      1.0  0.62559  0.20204  0.41457  1.0000
  C   C119      1.0  0.65472  0.22562  0.41642  1.0000
  C   C120      1.0  0.67604  0.22780  0.35361  1.0000
  C   C121      1.0  0.66677  0.20458  0.29066  1.0000
  C   C122      1.0  0.63712  0.18234  0.28407  1.0000
  C   C123      1.0  0.55598  0.18521  0.37766  1.0000
  C   C124      1.0  0.55029  0.20860  0.37153  1.0000
  C   C125      1.0  0.55963  0.22743  0.29595  1.0000
  C   C126      1.0  0.57258  0.22058  0.22334  1.0000
  C   C127      1.0  0.57786  0.19682  0.22901  1.0000
  C   C128      1.0  0.54633  0.11596  0.39311  1.0000
  C   C129      1.0  0.53010  0.08500  0.39431  1.0000
  C   C130      1.0  0.53700  0.06786  0.33642  1.0000
  C   C131      1.0  0.56046  0.08354  0.27529  1.0000
  C   C132      1.0  0.57549  0.11447  0.27050  1.0000
  H   H79       1.0  0.54154  0.21330  0.42627  1.0000
  H   H80       1.0  0.55266  0.17495  0.43832  1.0000
  H   H81       1.0  0.58997  0.19427  0.17964  1.0000
  H   H82       1.0  0.58058  0.23436  0.16905  1.0000
  H   H83       1.0  0.61077  0.20239  0.45831  1.0000
  H   H84       1.0  0.65965  0.24219  0.46134  1.0000
  H   H85       1.0  0.54075  0.12702  0.43792  1.0000
  H   H86       1.0  0.51286  0.07505  0.43814  1.0000
  H   H87       1.0  0.56699  0.07255  0.23299  1.0000
  H   H88       1.0  0.59117  0.12434  0.22225  1.0000
  H   H89       1.0  0.63111  0.16861  0.23014  1.0000
  H   H90       1.0  0.68121  0.20456  0.24463  1.0000
  C   C133      1.0  0.02309  0.52850  0.41165  1.0000
  C   C134      1.0  0.99197  0.51309  0.41459  1.0000
  O   O19       1.0  0.03790  0.55130  0.46987  1.0000
  O   O20       1.0  0.97833  0.52269  0.47210  1.0000
  H   H91       1.0  0.04212  0.56922  0.43682  1.0000
  H   H92       1.0  0.98067  0.51679  0.53295  1.0000
  C   C135      1.0  0.51297  0.52646  0.39271  1.0000
  C   C136      1.0  0.52892  0.51130  0.39438  1.0000
  O   O21       1.0  0.52084  0.54893  0.45214  1.0000
  O   O22       1.0  0.55107  0.51996  0.45554  1.0000
  H   H93       1.0  0.53436  0.56707  0.41974  1.0000
  H   H94       1.0  0.56927  0.53384  0.42405  1.0000
  C   C137      1.0  0.49737  0.98943  0.42486  1.0000
  C   C138      1.0  0.51352  0.02056  0.42217  1.0000
  O   O23       1.0  0.48997  0.97662  0.50768  1.0000
  O   O24       1.0  0.52373  0.03535  0.50145  1.0000
  H   H95       1.0  0.46950  0.97162  0.51836  1.0000
  H   H96       1.0  0.50666  0.03355  0.53442  1.0000
  C   C139      1.0  0.30683  0.55049  0.30518  1.0000
  C   C140      1.0  0.30143  0.56500  0.37680  1.0000
  C   C141      1.0  0.27487  0.56567  0.38102  1.0000
  C   C142      1.0  0.25301  0.55183  0.31376  1.0000
  O   O25       1.0  0.27197  0.58237  0.44604  1.0000
  H   H97       1.0  0.26701  0.57088  0.50201  1.0000
  O   O26       1.0  0.32290  0.58101  0.43807  1.0000
  H   H98       1.0  0.31749  0.56931  0.49368  1.0000
  C   C143      1.0  0.45529  0.75489  0.33247  1.0000
  C   C144      1.0  0.45564  0.74176  0.41578  1.0000
  C   C145      1.0  0.45667  0.71538  0.41881  1.0000
  C   C146      1.0  0.45557  0.69996  0.33904  1.0000
  O   O27       1.0  0.45763  0.70476  0.50169  1.0000
  H   H99       1.0  0.47812  0.70964  0.51101  1.0000
  O   O28       1.0  0.45153  0.75224  0.49523  1.0000
  H   H100      1.0  0.47022  0.76072  0.52844  1.0000
  C   C147      1.0  0.25427  0.69968  0.38196  1.0000
  C   C148      1.0  0.25971  0.72061  0.45035  1.0000
  C   C149      1.0  0.28652  0.74762  0.45307  1.0000
  C   C150      1.0  0.30857  0.75432  0.38756  1.0000
  O   O29       1.0  0.29086  0.76691  0.52058  1.0000
  H   H101      1.0  0.28492  0.78060  0.49648  1.0000
  O   O30       1.0  0.23936  0.71500  0.51559  1.0000
  H   H102      1.0  0.22556  0.72062  0.49031  1.0000
  C   C151      1.0  0.70575  0.45717  0.37150  1.0000
  C   C152      1.0  0.72596  0.47219  0.44203  1.0000
  C   C153      1.0  0.75315  0.47282  0.44629  1.0000
  C   C154      1.0  0.76089  0.45852  0.37999  1.0000
  O   O31       1.0  0.77147  0.48690  0.51664  1.0000
  H   H103      1.0  0.78561  0.50675  0.49505  1.0000
  O   O32       1.0  0.71937  0.48584  0.50841  1.0000
  H   H104      1.0  0.72466  0.50538  0.48495  1.0000
  C   C155      1.0  0.55925  0.25442  0.29851  1.0000
  C   C156      1.0  0.57449  0.27527  0.36742  1.0000
  C   C157      1.0  0.57463  0.30224  0.37010  1.0000
  C   C158      1.0  0.55954  0.30907  0.30391  1.0000
  O   O33       1.0  0.59172  0.32261  0.43285  1.0000
  H   H105      1.0  0.58074  0.31655  0.48981  1.0000
  O   O34       1.0  0.59145  0.27079  0.42777  1.0000
  H   H106      1.0  0.58078  0.26568  0.48532  1.0000
  C   C159      1.0  0.75996  0.30867  0.34290  1.0000
  C   C160      1.0  0.74740  0.29474  0.42615  1.0000
  C   C161      1.0  0.72090  0.26738  0.42917  1.0000
  C   C162      1.0  0.70495  0.25354  0.34963  1.0000
  O   O35       1.0  0.71079  0.25534  0.51190  1.0000
  H   H107      1.0  0.71578  0.23972  0.51906  1.0000
  O   O36       1.0  0.75873  0.30881  0.50576  1.0000
  H   H108      1.0  0.76775  0.29849  0.53541  1.0000
