data_image0
_chemical_formula_structural       C7NOCHNHC3NOCHNHC3NOCHNHC5H3C2O3C5H3C2O3C3NOCHNHC3NOCHNHC3NOCHNHC7NOCHNHC3NOCHNHC3NOCHNHC5H3C2O3C5H3C2O3C3NOCHNHC3NOCHNHC3NOCHNHC7NOCHNHC3NOCHNHC3NOCHNHC5H3C2O3C5H3C2O3C3NOCHNHC3NOCHNHC3NOCHNHC7NOCHNHC3NOCHNHC3NOCHNHC5H3C2O3C5H3C2O3C3NOCHNHC3NOCHNHC3NOCHNH
_chemical_formula_sum              "C168 N48 O48 H72"
_cell_length_a       43.9928
_cell_length_b       43.9928
_cell_length_c       15.0358
_cell_angle_alpha    90
_cell_angle_beta     90
_cell_angle_gamma    120

_space_group_name_H-M_alt    "P 1"
_space_group_IT_number       1

loop_
  _space_group_symop_operation_xyz
  'x, y, z'

loop_
  _atom_site_type_symbol
  _atom_site_label
  _atom_site_symmetry_multiplicity
  _atom_site_fract_x
  _atom_site_fract_y
  _atom_site_fract_z
  _atom_site_occupancy
  C   C1        1.0  0.19133  0.32213  0.24683  1.0000
  C   C2        1.0  0.21758  0.31263  0.25829  1.0000
  C   C3        1.0  0.30511  0.17551  0.41516  1.0000
  C   C4        1.0  0.27886  0.18502  0.40388  1.0000
  C   C5        1.0  0.23050  0.26566  0.28947  1.0000
  C   C6        1.0  0.22711  0.23392  0.25673  1.0000
  C   C7        1.0  0.24463  0.21815  0.29577  1.0000
  N   N1        1.0  0.23871  0.19131  0.24339  1.0000
  O   O1        1.0  0.20938  0.21658  0.18197  1.0000
  C   C8        1.0  0.21768  0.19059  0.17798  1.0000
  H   H1        1.0  0.20949  0.17272  0.12742  1.0000
  N   N2        1.0  0.21168  0.27922  0.25120  1.0000
  H   H2        1.0  0.19249  0.26356  0.21231  1.0000
  C   C9        1.0  0.23136  0.46424  0.28954  1.0000
  C   C10       1.0  0.26311  0.49257  0.25680  1.0000
  C   C11       1.0  0.27884  0.02588  0.29573  1.0000
  N   N3        1.0  0.30565  0.04682  0.24325  1.0000
  O   O2        1.0  0.28040  0.49220  0.18193  1.0000
  C   C12       1.0  0.30631  0.02652  0.17772  1.0000
  H   H3        1.0  0.32428  0.03617  0.12737  1.0000
  N   N4        1.0  0.21781  0.43185  0.25133  1.0000
  H   H4        1.0  0.23347  0.42831  0.21245  1.0000
  C   C13       1.0  0.03276  0.26646  0.28915  1.0000
  C   C14       1.0  0.00444  0.26994  0.25655  1.0000
  C   C15       1.0  0.47114  0.25239  0.29552  1.0000
  N   N5        1.0  0.45021  0.25830  0.24313  1.0000
  O   O3        1.0  0.00483  0.28766  0.18177  1.0000
  C   C16       1.0  0.47050  0.27923  0.17754  1.0000
  H   H5        1.0  0.46089  0.28767  0.12741  1.0000
  N   N6        1.0  0.06515  0.28533  0.25099  1.0000
  H   H6        1.0  0.06870  0.30456  0.21221  1.0000
  C   C17       1.0  0.17489  0.36859  0.24694  1.0000
  C   C18       1.0  0.13917  0.34188  0.24654  1.0000
  C   C19       1.0  0.12842  0.30569  0.24673  1.0000
  C   C20       1.0  0.15514  0.29669  0.24647  1.0000
  C   C21       1.0  0.20034  0.35785  0.24651  1.0000
  H   H7        1.0  0.14789  0.27082  0.25211  1.0000
  H   H8        1.0  0.22619  0.37646  0.25243  1.0000
  H   H9        1.0  0.12055  0.34912  0.25221  1.0000
  C   C22       1.0  0.18439  0.40434  0.25837  1.0000
  C   C23       1.0  0.09267  0.27943  0.25805  1.0000
  O   O4        1.0  0.25133  0.33847  0.27042  1.0000
  O   O5        1.0  0.15856  0.41225  0.27067  1.0000
  O   O6        1.0  0.08475  0.24567  0.27009  1.0000
  C   C24       1.0  0.32153  0.12903  0.41501  1.0000
  C   C25       1.0  0.35725  0.15573  0.41535  1.0000
  C   C26       1.0  0.36801  0.19192  0.41502  1.0000
  C   C27       1.0  0.34130  0.20094  0.41538  1.0000
  C   C28       1.0  0.29609  0.13979  0.41544  1.0000
  H   H10       1.0  0.34856  0.22681  0.40971  1.0000
  H   H11       1.0  0.27022  0.12118  0.40982  1.0000
  H   H12       1.0  0.37587  0.14848  0.40954  1.0000
  C   C29       1.0  0.31201  0.09327  0.40367  1.0000
  C   C30       1.0  0.40376  0.21816  0.40355  1.0000
  O   O7        1.0  0.24511  0.15919  0.39165  1.0000
  O   O8        1.0  0.33783  0.08534  0.39153  1.0000
  O   O9        1.0  0.41169  0.25192  0.39140  1.0000
  C   C31       1.0  0.26598  0.23200  0.37253  1.0000
  C   C32       1.0  0.26943  0.26378  0.40518  1.0000
  C   C33       1.0  0.25185  0.27951  0.36625  1.0000
  N   N7        1.0  0.25773  0.30633  0.41868  1.0000
  O   O10       1.0  0.28713  0.28111  0.47998  1.0000
  C   C34       1.0  0.27869  0.30699  0.48423  1.0000
  H   H13       1.0  0.28711  0.32504  0.53440  1.0000
  N   N8        1.0  0.28480  0.21845  0.41081  1.0000
  H   H14       1.0  0.30400  0.23411  0.44967  1.0000
  C   C35       1.0  0.26504  0.03337  0.37260  1.0000
  C   C36       1.0  0.23326  0.00505  0.40525  1.0000
  C   C37       1.0  0.21749  0.47176  0.36623  1.0000
  N   N9        1.0  0.19076  0.45080  0.41889  1.0000
  O   O11       1.0  0.21599  0.00542  0.48017  1.0000
  C   C38       1.0  0.19014  0.47108  0.48451  1.0000
  H   H15       1.0  0.17218  0.46144  0.53487  1.0000
  N   N10       1.0  0.27859  0.06577  0.41078  1.0000
  H   H16       1.0  0.26294  0.06931  0.44966  1.0000
  C   C39       1.0  0.46365  0.23108  0.37237  1.0000
  C   C40       1.0  0.49197  0.22762  0.40500  1.0000
  C   C41       1.0  0.02524  0.24506  0.36582  1.0000
  N   N11       1.0  0.04619  0.23925  0.41838  1.0000
  O   O12       1.0  0.49160  0.20994  0.47985  1.0000
  C   C42       1.0  0.02589  0.21824  0.48385  1.0000
  H   H17       1.0  0.03560  0.21018  0.53461  1.0000
  N   N12       1.0  0.43127  0.21225  0.41062  1.0000
  H   H18       1.0  0.42773  0.19306  0.44950  1.0000
  C   C43       1.0  0.19133  0.82213  0.24683  1.0000
  C   C44       1.0  0.21757  0.81263  0.25829  1.0000
  C   C45       1.0  0.30511  0.67551  0.41516  1.0000
  C   C46       1.0  0.27886  0.68502  0.40388  1.0000
  C   C47       1.0  0.23051  0.76566  0.28947  1.0000
  C   C48       1.0  0.22711  0.73392  0.25673  1.0000
  C   C49       1.0  0.24463  0.71815  0.29577  1.0000
  N   N13       1.0  0.23872  0.69131  0.24339  1.0000
  O   O13       1.0  0.20938  0.71658  0.18197  1.0000
  C   C50       1.0  0.21768  0.69059  0.17798  1.0000
  H   H19       1.0  0.20949  0.67272  0.12742  1.0000
  N   N14       1.0  0.21168  0.77922  0.25120  1.0000
  H   H20       1.0  0.19249  0.76356  0.21231  1.0000
  C   C51       1.0  0.23136  0.96424  0.28954  1.0000
  C   C52       1.0  0.26311  0.99257  0.25680  1.0000
  C   C53       1.0  0.27885  0.52588  0.29573  1.0000
  N   N15       1.0  0.30565  0.54682  0.24325  1.0000
  O   O14       1.0  0.28040  0.99220  0.18193  1.0000
  C   C54       1.0  0.30631  0.52652  0.17772  1.0000
  H   H21       1.0  0.32427  0.53617  0.12737  1.0000
  N   N16       1.0  0.21780  0.93185  0.25133  1.0000
  H   H22       1.0  0.23347  0.92831  0.21245  1.0000
  C   C55       1.0  0.03276  0.76646  0.28915  1.0000
  C   C56       1.0  0.00444  0.76994  0.25655  1.0000
  C   C57       1.0  0.47114  0.75239  0.29552  1.0000
  N   N17       1.0  0.45021  0.75830  0.24313  1.0000
  O   O15       1.0  0.00483  0.78765  0.18177  1.0000
  C   C58       1.0  0.47050  0.77923  0.17754  1.0000
  H   H23       1.0  0.46088  0.78767  0.12741  1.0000
  N   N18       1.0  0.06515  0.78533  0.25099  1.0000
  H   H24       1.0  0.06870  0.80456  0.21221  1.0000
  C   C59       1.0  0.17489  0.86859  0.24694  1.0000
  C   C60       1.0  0.13917  0.84188  0.24654  1.0000
  C   C61       1.0  0.12842  0.80569  0.24673  1.0000
  C   C62       1.0  0.15514  0.79669  0.24647  1.0000
  C   C63       1.0  0.20034  0.85785  0.24651  1.0000
  H   H25       1.0  0.14789  0.77082  0.25211  1.0000
  H   H26       1.0  0.22619  0.87646  0.25243  1.0000
  H   H27       1.0  0.12055  0.84912  0.25221  1.0000
  C   C64       1.0  0.18439  0.90434  0.25837  1.0000
  C   C65       1.0  0.09266  0.77943  0.25805  1.0000
  O   O16       1.0  0.25133  0.83847  0.27042  1.0000
  O   O17       1.0  0.15856  0.91225  0.27067  1.0000
  O   O18       1.0  0.08475  0.74567  0.27009  1.0000
  C   C66       1.0  0.32153  0.62903  0.41501  1.0000
  C   C67       1.0  0.35725  0.65573  0.41535  1.0000
  C   C68       1.0  0.36801  0.69192  0.41502  1.0000
  C   C69       1.0  0.34131  0.70094  0.41538  1.0000
  C   C70       1.0  0.29609  0.63979  0.41544  1.0000
  H   H28       1.0  0.34856  0.72681  0.40971  1.0000
  H   H29       1.0  0.27022  0.62118  0.40982  1.0000
  H   H30       1.0  0.37587  0.64848  0.40954  1.0000
  C   C71       1.0  0.31201  0.59327  0.40367  1.0000
  C   C72       1.0  0.40376  0.71816  0.40355  1.0000
  O   O19       1.0  0.24511  0.65919  0.39165  1.0000
  O   O20       1.0  0.33783  0.58534  0.39153  1.0000
  O   O21       1.0  0.41169  0.75192  0.39140  1.0000
  C   C73       1.0  0.26598  0.73201  0.37253  1.0000
  C   C74       1.0  0.26943  0.76378  0.40518  1.0000
  C   C75       1.0  0.25185  0.77951  0.36625  1.0000
  N   N19       1.0  0.25774  0.80634  0.41868  1.0000
  O   O22       1.0  0.28713  0.78111  0.47998  1.0000
  C   C76       1.0  0.27868  0.80699  0.48423  1.0000
  H   H31       1.0  0.28711  0.82504  0.53440  1.0000
  N   N20       1.0  0.28480  0.71845  0.41081  1.0000
  H   H32       1.0  0.30400  0.73411  0.44967  1.0000
  C   C77       1.0  0.26504  0.53337  0.37260  1.0000
  C   C78       1.0  0.23326  0.50505  0.40525  1.0000
  C   C79       1.0  0.21749  0.97176  0.36623  1.0000
  N   N21       1.0  0.19076  0.95080  0.41889  1.0000
  O   O23       1.0  0.21599  0.50542  0.48017  1.0000
  C   C80       1.0  0.19013  0.97108  0.48451  1.0000
  H   H33       1.0  0.17218  0.96144  0.53487  1.0000
  N   N22       1.0  0.27859  0.56576  0.41078  1.0000
  H   H34       1.0  0.26294  0.56931  0.44966  1.0000
  C   C81       1.0  0.46365  0.73108  0.37237  1.0000
  C   C82       1.0  0.49198  0.72762  0.40500  1.0000
  C   C83       1.0  0.02524  0.74506  0.36582  1.0000
  N   N23       1.0  0.04619  0.73924  0.41838  1.0000
  O   O24       1.0  0.49160  0.70994  0.47985  1.0000
  C   C84       1.0  0.02589  0.71824  0.48385  1.0000
  H   H35       1.0  0.03560  0.71018  0.53461  1.0000
  N   N24       1.0  0.43127  0.71225  0.41062  1.0000
  H   H36       1.0  0.42773  0.69305  0.44950  1.0000
  C   C85       1.0  0.69133  0.32213  0.24683  1.0000
  C   C86       1.0  0.71758  0.31263  0.25829  1.0000
  C   C87       1.0  0.80511  0.17551  0.41516  1.0000
  C   C88       1.0  0.77886  0.18502  0.40388  1.0000
  C   C89       1.0  0.73051  0.26566  0.28947  1.0000
  C   C90       1.0  0.72711  0.23392  0.25673  1.0000
  C   C91       1.0  0.74463  0.21815  0.29577  1.0000
  N   N25       1.0  0.73872  0.19131  0.24339  1.0000
  O   O25       1.0  0.70938  0.21658  0.18197  1.0000
  C   C92       1.0  0.71768  0.19059  0.17798  1.0000
  H   H37       1.0  0.70949  0.17272  0.12742  1.0000
  N   N26       1.0  0.71168  0.27922  0.25120  1.0000
  H   H38       1.0  0.69249  0.26356  0.21231  1.0000
  C   C93       1.0  0.73136  0.46424  0.28954  1.0000
  C   C94       1.0  0.76311  0.49257  0.25680  1.0000
  C   C95       1.0  0.77885  0.02588  0.29573  1.0000
  N   N27       1.0  0.80565  0.04682  0.24325  1.0000
  O   O26       1.0  0.78041  0.49220  0.18193  1.0000
  C   C96       1.0  0.80631  0.02652  0.17772  1.0000
  H   H39       1.0  0.82428  0.03617  0.12737  1.0000
  N   N28       1.0  0.71781  0.43185  0.25133  1.0000
  H   H40       1.0  0.73347  0.42831  0.21245  1.0000
  C   C97       1.0  0.53276  0.26646  0.28915  1.0000
  C   C98       1.0  0.50444  0.26994  0.25655  1.0000
  C   C99       1.0  0.97114  0.25239  0.29552  1.0000
  N   N29       1.0  0.95021  0.25830  0.24313  1.0000
  O   O27       1.0  0.50483  0.28766  0.18177  1.0000
  C   C100      1.0  0.97050  0.27923  0.17754  1.0000
  H   H41       1.0  0.96089  0.28767  0.12741  1.0000
  N   N30       1.0  0.56515  0.28533  0.25099  1.0000
  H   H42       1.0  0.56870  0.30456  0.21221  1.0000
  C   C101      1.0  0.67489  0.36859  0.24694  1.0000
  C   C102      1.0  0.63917  0.34188  0.24654  1.0000
  C   C103      1.0  0.62842  0.30569  0.24673  1.0000
  C   C104      1.0  0.65514  0.29669  0.24647  1.0000
  C   C105      1.0  0.70034  0.35785  0.24651  1.0000
  H   H43       1.0  0.64789  0.27082  0.25211  1.0000
  H   H44       1.0  0.72619  0.37646  0.25243  1.0000
  H   H45       1.0  0.62055  0.34912  0.25221  1.0000
  C   C106      1.0  0.68439  0.40434  0.25837  1.0000
  C   C107      1.0  0.59266  0.27943  0.25805  1.0000
  O   O28       1.0  0.75133  0.33847  0.27042  1.0000
  O   O29       1.0  0.65856  0.41225  0.27067  1.0000
  O   O30       1.0  0.58475  0.24567  0.27009  1.0000
  C   C108      1.0  0.82153  0.12903  0.41501  1.0000
  C   C109      1.0  0.85725  0.15573  0.41535  1.0000
  C   C110      1.0  0.86801  0.19192  0.41502  1.0000
  C   C111      1.0  0.84131  0.20094  0.41538  1.0000
  C   C112      1.0  0.79609  0.13979  0.41544  1.0000
  H   H46       1.0  0.84856  0.22681  0.40971  1.0000
  H   H47       1.0  0.77022  0.12118  0.40982  1.0000
  H   H48       1.0  0.87587  0.14848  0.40954  1.0000
  C   C113      1.0  0.81201  0.09327  0.40367  1.0000
  C   C114      1.0  0.90376  0.21816  0.40355  1.0000
  O   O31       1.0  0.74511  0.15919  0.39165  1.0000
  O   O32       1.0  0.83783  0.08534  0.39153  1.0000
  O   O33       1.0  0.91169  0.25192  0.39140  1.0000
  C   C115      1.0  0.76598  0.23200  0.37253  1.0000
  C   C116      1.0  0.76943  0.26378  0.40518  1.0000
  C   C117      1.0  0.75185  0.27951  0.36625  1.0000
  N   N31       1.0  0.75773  0.30633  0.41868  1.0000
  O   O34       1.0  0.78713  0.28111  0.47998  1.0000
  C   C118      1.0  0.77868  0.30699  0.48423  1.0000
  H   H49       1.0  0.78711  0.32504  0.53440  1.0000
  N   N32       1.0  0.78480  0.21845  0.41081  1.0000
  H   H50       1.0  0.80400  0.23411  0.44967  1.0000
  C   C119      1.0  0.76504  0.03337  0.37260  1.0000
  C   C120      1.0  0.73326  0.00505  0.40525  1.0000
  C   C121      1.0  0.71749  0.47176  0.36623  1.0000
  N   N33       1.0  0.69076  0.45080  0.41889  1.0000
  O   O35       1.0  0.71599  0.00542  0.48017  1.0000
  C   C122      1.0  0.69014  0.47108  0.48451  1.0000
  H   H51       1.0  0.67218  0.46144  0.53487  1.0000
  N   N34       1.0  0.77859  0.06577  0.41078  1.0000
  H   H52       1.0  0.76294  0.06931  0.44966  1.0000
  C   C123      1.0  0.96365  0.23108  0.37237  1.0000
  C   C124      1.0  0.99198  0.22762  0.40500  1.0000
  C   C125      1.0  0.52524  0.24506  0.36582  1.0000
  N   N35       1.0  0.54619  0.23925  0.41838  1.0000
  O   O36       1.0  0.99160  0.20994  0.47985  1.0000
  C   C126      1.0  0.52589  0.21824  0.48385  1.0000
  H   H53       1.0  0.53560  0.21018  0.53461  1.0000
  N   N36       1.0  0.93127  0.21225  0.41062  1.0000
  H   H54       1.0  0.92773  0.19306  0.44950  1.0000
  C   C127      1.0  0.69133  0.82213  0.24683  1.0000
  C   C128      1.0  0.71758  0.81263  0.25829  1.0000
  C   C129      1.0  0.80511  0.67551  0.41516  1.0000
  C   C130      1.0  0.77886  0.68502  0.40388  1.0000
  C   C131      1.0  0.73051  0.76566  0.28947  1.0000
  C   C132      1.0  0.72711  0.73392  0.25673  1.0000
  C   C133      1.0  0.74463  0.71815  0.29577  1.0000
  N   N37       1.0  0.73871  0.69131  0.24339  1.0000
  O   O37       1.0  0.70938  0.71658  0.18197  1.0000
  C   C134      1.0  0.71768  0.69059  0.17798  1.0000
  H   H55       1.0  0.70949  0.67272  0.12742  1.0000
  N   N38       1.0  0.71168  0.77922  0.25120  1.0000
  H   H56       1.0  0.69249  0.76356  0.21231  1.0000
  C   C135      1.0  0.73136  0.96424  0.28954  1.0000
  C   C136      1.0  0.76311  0.99257  0.25680  1.0000
  C   C137      1.0  0.77885  0.52588  0.29573  1.0000
  N   N39       1.0  0.80565  0.54682  0.24325  1.0000
  O   O38       1.0  0.78040  0.99220  0.18193  1.0000
  C   C138      1.0  0.80631  0.52652  0.17772  1.0000
  H   H57       1.0  0.82428  0.53617  0.12737  1.0000
  N   N40       1.0  0.71781  0.93185  0.25133  1.0000
  H   H58       1.0  0.73347  0.92831  0.21245  1.0000
  C   C139      1.0  0.53276  0.76646  0.28915  1.0000
  C   C140      1.0  0.50444  0.76994  0.25655  1.0000
  C   C141      1.0  0.97114  0.75239  0.29552  1.0000
  N   N41       1.0  0.95021  0.75830  0.24313  1.0000
  O   O39       1.0  0.50482  0.78765  0.18177  1.0000
  C   C142      1.0  0.97050  0.77923  0.17754  1.0000
  H   H59       1.0  0.96088  0.78767  0.12741  1.0000
  N   N42       1.0  0.56515  0.78533  0.25099  1.0000
  H   H60       1.0  0.56870  0.80456  0.21221  1.0000
  C   C143      1.0  0.67489  0.86859  0.24694  1.0000
  C   C144      1.0  0.63917  0.84188  0.24654  1.0000
  C   C145      1.0  0.62842  0.80569  0.24673  1.0000
  C   C146      1.0  0.65514  0.79669  0.24647  1.0000
  C   C147      1.0  0.70034  0.85785  0.24651  1.0000
  H   H61       1.0  0.64789  0.77082  0.25211  1.0000
  H   H62       1.0  0.72619  0.87646  0.25243  1.0000
  H   H63       1.0  0.62055  0.84912  0.25221  1.0000
  C   C148      1.0  0.68439  0.90434  0.25837  1.0000
  C   C149      1.0  0.59266  0.77943  0.25805  1.0000
  O   O40       1.0  0.75133  0.83847  0.27042  1.0000
  O   O41       1.0  0.65856  0.91225  0.27067  1.0000
  O   O42       1.0  0.58475  0.74567  0.27009  1.0000
  C   C150      1.0  0.82153  0.62903  0.41501  1.0000
  C   C151      1.0  0.85725  0.65573  0.41535  1.0000
  C   C152      1.0  0.86801  0.69192  0.41502  1.0000
  C   C153      1.0  0.84130  0.70094  0.41538  1.0000
  C   C154      1.0  0.79609  0.63979  0.41544  1.0000
  H   H64       1.0  0.84856  0.72681  0.40971  1.0000
  H   H65       1.0  0.77022  0.62118  0.40982  1.0000
  H   H66       1.0  0.87587  0.64848  0.40954  1.0000
  C   C155      1.0  0.81201  0.59327  0.40367  1.0000
  C   C156      1.0  0.90376  0.71816  0.40355  1.0000
  O   O43       1.0  0.74511  0.65919  0.39165  1.0000
  O   O44       1.0  0.83783  0.58534  0.39153  1.0000
  O   O45       1.0  0.91169  0.75192  0.39140  1.0000
  C   C157      1.0  0.76598  0.73201  0.37253  1.0000
  C   C158      1.0  0.76943  0.76378  0.40518  1.0000
  C   C159      1.0  0.75184  0.77951  0.36625  1.0000
  N   N43       1.0  0.75774  0.80634  0.41868  1.0000
  O   O46       1.0  0.78713  0.78111  0.47998  1.0000
  C   C160      1.0  0.77868  0.80699  0.48423  1.0000
  H   H67       1.0  0.78711  0.82504  0.53440  1.0000
  N   N44       1.0  0.78480  0.71845  0.41081  1.0000
  H   H68       1.0  0.80400  0.73411  0.44967  1.0000
  C   C161      1.0  0.76504  0.53337  0.37260  1.0000
  C   C162      1.0  0.73326  0.50505  0.40525  1.0000
  C   C163      1.0  0.71749  0.97176  0.36623  1.0000
  N   N45       1.0  0.69076  0.95080  0.41889  1.0000
  O   O47       1.0  0.71599  0.50542  0.48017  1.0000
  C   C164      1.0  0.69014  0.97108  0.48451  1.0000
  H   H69       1.0  0.67218  0.96144  0.53487  1.0000
  N   N46       1.0  0.77859  0.56576  0.41078  1.0000
  H   H70       1.0  0.76294  0.56931  0.44966  1.0000
  C   C165      1.0  0.96365  0.73108  0.37237  1.0000
  C   C166      1.0  0.99198  0.72762  0.40500  1.0000
  C   C167      1.0  0.52524  0.74506  0.36582  1.0000
  N   N47       1.0  0.54619  0.73924  0.41838  1.0000
  O   O48       1.0  0.99160  0.70994  0.47985  1.0000
  C   C168      1.0  0.52589  0.71824  0.48385  1.0000
  H   H71       1.0  0.53560  0.71018  0.53461  1.0000
  N   N48       1.0  0.93127  0.71225  0.41062  1.0000
  H   H72       1.0  0.92773  0.69305  0.44950  1.0000
