data_image0
_chemical_formula_structural       C3NC3NC5NC5NC20H18NHNHNHNHC6H6C6H6C8H8NC12H6C3O3NC12H6C3O3C3NC3NC5NC5NC20H18NHNHNHNHC6H6C6H6C8H8NC12H6C3O3NC12H6C3O3
_chemical_formula_sum              "C172 N20 H108 O12"
_cell_length_a       31.634
_cell_length_b       47.9829
_cell_length_c       15.0381
_cell_angle_alpha    89.9456
_cell_angle_beta     90.0412
_cell_angle_gamma    90.0354

_space_group_name_H-M_alt    "P 1"
_space_group_IT_number       1

loop_
  _space_group_symop_operation_xyz
  'x, y, z'

loop_
  _atom_site_type_symbol
  _atom_site_label
  _atom_site_symmetry_multiplicity
  _atom_site_fract_x
  _atom_site_fract_y
  _atom_site_fract_z
  _atom_site_occupancy
  C   C1        1.0  0.09540  0.48732  0.30446  1.0000
  C   C2        1.0  0.09397  0.01604  0.30129  1.0000
  C   C3        1.0  0.05160  0.02416  0.29669  1.0000
  N   N1        1.0  0.02903  0.00016  0.29618  1.0000
  C   C4        1.0  0.05396  0.47727  0.30084  1.0000
  C   C5        1.0  0.04236  0.44866  0.30160  1.0000
  C   C6        1.0  0.00031  0.43840  0.29804  1.0000
  N   N2        1.0  0.96415  0.45332  0.29681  1.0000
  C   C7        1.0  0.92968  0.43673  0.29383  1.0000
  C   C8        1.0  0.94470  0.40936  0.29288  1.0000
  C   C9        1.0  0.98826  0.41039  0.29578  1.0000
  C   C10       1.0  0.88663  0.44500  0.29370  1.0000
  C   C11       1.0  0.87216  0.47301  0.29729  1.0000
  N   N3        1.0  0.89473  0.49701  0.29691  1.0000
  C   C12       1.0  0.86980  0.01990  0.30173  1.0000
  C   C13       1.0  0.82837  0.00984  0.30560  1.0000
  C   C14       1.0  0.82979  0.48112  0.30216  1.0000
  C   C15       1.0  0.88141  0.04851  0.30239  1.0000
  C   C16       1.0  0.92344  0.05878  0.29852  1.0000
  N   N4        1.0  0.95960  0.04385  0.29703  1.0000
  C   C17       1.0  0.99406  0.06044  0.29381  1.0000
  C   C18       1.0  0.97905  0.08781  0.29302  1.0000
  C   C19       1.0  0.93549  0.08679  0.29624  1.0000
  C   C20       1.0  0.03711  0.05217  0.29347  1.0000
  C   C21       1.0  0.06804  0.07365  0.29155  1.0000
  C   C22       1.0  0.08117  0.08519  0.20970  1.0000
  C   C23       1.0  0.11068  0.10711  0.20809  1.0000
  C   C24       1.0  0.12843  0.11746  0.28777  1.0000
  C   C25       1.0  0.84853  0.06854  0.30947  1.0000
  C   C26       1.0  0.82724  0.07819  0.23288  1.0000
  C   C27       1.0  0.79603  0.09892  0.24020  1.0000
  C   C28       1.0  0.78614  0.11078  0.32365  1.0000
  C   C29       1.0  0.85570  0.42352  0.29177  1.0000
  C   C30       1.0  0.79538  0.37967  0.28794  1.0000
  C   C31       1.0  0.81318  0.39002  0.20830  1.0000
  C   C32       1.0  0.84266  0.41195  0.20993  1.0000
  C   C33       1.0  0.07524  0.42862  0.30868  1.0000
  C   C34       1.0  0.09636  0.41893  0.23207  1.0000
  C   C35       1.0  0.12760  0.39821  0.23944  1.0000
  C   C36       1.0  0.13762  0.38638  0.32295  1.0000
  H   H1        1.0  0.14187  0.39100  0.18293  1.0000
  H   H2        1.0  0.08871  0.42655  0.17053  1.0000
  H   H3        1.0  0.12263  0.47593  0.30829  1.0000
  H   H4        1.0  0.11999  0.02867  0.30297  1.0000
  H   H5        1.0  0.99878  0.99944  0.29177  1.0000
  H   H6        1.0  0.92496  0.49774  0.29205  1.0000
  H   H7        1.0  0.00755  0.39331  0.29596  1.0000
  H   H8        1.0  0.92728  0.39142  0.29147  1.0000
  H   H9        1.0  0.85507  0.41907  0.15128  1.0000
  H   H10       1.0  0.80466  0.38160  0.14841  1.0000
  H   H11       1.0  0.80377  0.46850  0.30376  1.0000
  H   H12       1.0  0.80114  0.02123  0.30941  1.0000
  H   H13       1.0  0.99647  0.10575  0.29166  1.0000
  H   H14       1.0  0.91620  0.10386  0.29665  1.0000
  H   H15       1.0  0.83475  0.07052  0.17139  1.0000
  H   H16       1.0  0.78158  0.10606  0.18371  1.0000
  H   H17       1.0  0.11926  0.11551  0.14819  1.0000
  H   H18       1.0  0.06879  0.07808  0.15104  1.0000
  N   N5        1.0  0.75696  0.13176  0.32810  1.0000
  H   H19       1.0  0.73135  0.12925  0.29304  1.0000
  N   N6        1.0  0.15471  0.14008  0.28451  1.0000
  H   H20       1.0  0.14488  0.15552  0.24788  1.0000
  N   N7        1.0  0.16677  0.36538  0.32754  1.0000
  H   H21       1.0  0.19231  0.36784  0.29225  1.0000
  N   N8        1.0  0.76915  0.35702  0.28470  1.0000
  H   H22       1.0  0.77899  0.34161  0.24812  1.0000
  C   C37       1.0  0.23481  0.21374  0.27006  1.0000
  C   C38       1.0  0.21483  0.18767  0.26273  1.0000
  C   C39       1.0  0.24265  0.28990  0.28929  1.0000
  C   C40       1.0  0.21508  0.31284  0.29197  1.0000
  C   C41       1.0  0.38335  0.25064  0.27450  1.0000
  C   C42       1.0  0.33920  0.24747  0.27680  1.0000
  H   H23       1.0  0.21244  0.32490  0.23615  1.0000
  H   H24       1.0  0.25975  0.28612  0.23288  1.0000
  H   H25       1.0  0.23415  0.22722  0.21735  1.0000
  H   H26       1.0  0.20076  0.18276  0.20356  1.0000
  H   H27       1.0  0.39906  0.24708  0.21609  1.0000
  H   H28       1.0  0.32344  0.24184  0.22020  1.0000
  C   C43       1.0  0.68896  0.28342  0.26960  1.0000
  C   C44       1.0  0.70897  0.30949  0.26243  1.0000
  C   C45       1.0  0.68097  0.20718  0.28910  1.0000
  C   C46       1.0  0.70855  0.18425  0.29207  1.0000
  C   C47       1.0  0.54017  0.24660  0.27419  1.0000
  C   C48       1.0  0.58433  0.24975  0.27632  1.0000
  H   H29       1.0  0.71117  0.17216  0.23641  1.0000
  H   H30       1.0  0.66385  0.21094  0.23262  1.0000
  H   H31       1.0  0.68964  0.26998  0.21688  1.0000
  H   H32       1.0  0.72311  0.31443  0.20336  1.0000
  H   H33       1.0  0.52438  0.25021  0.21584  1.0000
  H   H34       1.0  0.60001  0.25540  0.21966  1.0000
  C   C49       1.0  0.11495  0.10588  0.36955  1.0000
  C   C50       1.0  0.08508  0.08419  0.37155  1.0000
  C   C51       1.0  0.80659  0.10031  0.40039  1.0000
  C   C52       1.0  0.83759  0.07947  0.39348  1.0000
  C   C53       1.0  0.83862  0.41299  0.37174  1.0000
  C   C54       1.0  0.80881  0.39126  0.36972  1.0000
  C   C55       1.0  0.08636  0.41775  0.39274  1.0000
  C   C56       1.0  0.11736  0.39690  0.39971  1.0000
  H   H35       1.0  0.12496  0.38935  0.46130  1.0000
  H   H36       1.0  0.07160  0.42464  0.44915  1.0000
  H   H37       1.0  0.84829  0.42073  0.43183  1.0000
  H   H38       1.0  0.79812  0.38327  0.42863  1.0000
  H   H39       1.0  0.85247  0.07261  0.44987  1.0000
  H   H40       1.0  0.79910  0.10789  0.46195  1.0000
  H   H41       1.0  0.07537  0.07645  0.43164  1.0000
  H   H42       1.0  0.12559  0.11388  0.42847  1.0000
  N   N9        1.0  0.27265  0.24830  0.35964  1.0000
  C   C57       1.0  0.24594  0.27181  0.36286  1.0000
  C   C58       1.0  0.31684  0.25182  0.35671  1.0000
  C   C59       1.0  0.25484  0.22150  0.35000  1.0000
  C   C60       1.0  0.21415  0.16879  0.33524  1.0000
  C   C61       1.0  0.23576  0.17647  0.41407  1.0000
  C   C62       1.0  0.25581  0.20253  0.42150  1.0000
  C   C63       1.0  0.19014  0.31826  0.36823  1.0000
  C   C64       1.0  0.19363  0.29984  0.44154  1.0000
  C   C65       1.0  0.22134  0.27697  0.43913  1.0000
  C   C66       1.0  0.33899  0.25967  0.43413  1.0000
  C   C67       1.0  0.38317  0.26277  0.43211  1.0000
  C   C68       1.0  0.40566  0.25813  0.35234  1.0000
  H   H43       1.0  0.22326  0.26394  0.49286  1.0000
  H   H44       1.0  0.17618  0.30299  0.49794  1.0000
  H   H45       1.0  0.32308  0.26278  0.49247  1.0000
  H   H46       1.0  0.39875  0.26803  0.48940  1.0000
  H   H47       1.0  0.26993  0.20799  0.48017  1.0000
  H   H48       1.0  0.23569  0.16364  0.46848  1.0000
  C   C69       1.0  0.16083  0.34073  0.37109  1.0000
  C   C70       1.0  0.19118  0.14325  0.33187  1.0000
  C   C71       1.0  0.44925  0.25996  0.35138  1.0000
  O   O1        1.0  0.46405  0.28358  0.35218  1.0000
  O   O2        1.0  0.20596  0.12159  0.38071  1.0000
  O   O3        1.0  0.12398  0.33602  0.41457  1.0000
  N   N10       1.0  0.65101  0.24883  0.35886  1.0000
  C   C72       1.0  0.67770  0.22530  0.36245  1.0000
  C   C73       1.0  0.60681  0.24533  0.35613  1.0000
  C   C74       1.0  0.66884  0.27562  0.34938  1.0000
  C   C75       1.0  0.70961  0.32832  0.33494  1.0000
  C   C76       1.0  0.68790  0.32061  0.41361  1.0000
  C   C77       1.0  0.66784  0.29455  0.42089  1.0000
  C   C78       1.0  0.73351  0.17886  0.36845  1.0000
  C   C79       1.0  0.73003  0.19730  0.44157  1.0000
  C   C80       1.0  0.70232  0.22018  0.43883  1.0000
  C   C81       1.0  0.58477  0.23743  0.43363  1.0000
  C   C82       1.0  0.54059  0.23437  0.43178  1.0000
  C   C83       1.0  0.51797  0.23907  0.35211  1.0000
  H   H49       1.0  0.70040  0.23323  0.49243  1.0000
  H   H50       1.0  0.74748  0.19418  0.49804  1.0000
  H   H51       1.0  0.60077  0.23429  0.49193  1.0000
  H   H52       1.0  0.52509  0.22909  0.48915  1.0000
  H   H53       1.0  0.65364  0.28906  0.47945  1.0000
  H   H54       1.0  0.68796  0.33341  0.46803  1.0000
  C   C84       1.0  0.76284  0.15641  0.37160  1.0000
  C   C85       1.0  0.73261  0.35385  0.33175  1.0000
  C   C86       1.0  0.47438  0.23725  0.35132  1.0000
  O   O4        1.0  0.45958  0.21363  0.35206  1.0000
  O   O5        1.0  0.71779  0.37550  0.38043  1.0000
  O   O6        1.0  0.79974  0.16118  0.41489  1.0000
  C   C87       1.0  0.09540  0.98732  0.30446  1.0000
  C   C88       1.0  0.09397  0.51604  0.30129  1.0000
  C   C89       1.0  0.05160  0.52416  0.29669  1.0000
  N   N11       1.0  0.02903  0.50016  0.29618  1.0000
  C   C90       1.0  0.05396  0.97727  0.30084  1.0000
  C   C91       1.0  0.04236  0.94866  0.30160  1.0000
  C   C92       1.0  0.00031  0.93839  0.29804  1.0000
  N   N12       1.0  0.96415  0.95332  0.29681  1.0000
  C   C93       1.0  0.92968  0.93673  0.29383  1.0000
  C   C94       1.0  0.94470  0.90936  0.29288  1.0000
  C   C95       1.0  0.98826  0.91039  0.29578  1.0000
  C   C96       1.0  0.88663  0.94500  0.29370  1.0000
  C   C97       1.0  0.87216  0.97301  0.29729  1.0000
  N   N13       1.0  0.89473  0.99701  0.29691  1.0000
  C   C98       1.0  0.86980  0.51990  0.30173  1.0000
  C   C99       1.0  0.82837  0.50984  0.30560  1.0000
  C   C100      1.0  0.82979  0.98112  0.30216  1.0000
  C   C101      1.0  0.88141  0.54851  0.30239  1.0000
  C   C102      1.0  0.92344  0.55878  0.29852  1.0000
  N   N14       1.0  0.95960  0.54385  0.29703  1.0000
  C   C103      1.0  0.99406  0.56044  0.29381  1.0000
  C   C104      1.0  0.97905  0.58781  0.29302  1.0000
  C   C105      1.0  0.93549  0.58678  0.29624  1.0000
  C   C106      1.0  0.03711  0.55217  0.29347  1.0000
  C   C107      1.0  0.06804  0.57365  0.29155  1.0000
  C   C108      1.0  0.08117  0.58519  0.20970  1.0000
  C   C109      1.0  0.11068  0.60711  0.20809  1.0000
  C   C110      1.0  0.12843  0.61746  0.28777  1.0000
  C   C111      1.0  0.84854  0.56854  0.30947  1.0000
  C   C112      1.0  0.82724  0.57819  0.23288  1.0000
  C   C113      1.0  0.79603  0.59892  0.24020  1.0000
  C   C114      1.0  0.78614  0.61078  0.32365  1.0000
  C   C115      1.0  0.85570  0.92352  0.29177  1.0000
  C   C116      1.0  0.79538  0.87967  0.28794  1.0000
  C   C117      1.0  0.81318  0.89002  0.20830  1.0000
  C   C118      1.0  0.84266  0.91195  0.20993  1.0000
  C   C119      1.0  0.07524  0.92862  0.30868  1.0000
  C   C120      1.0  0.09636  0.91893  0.23207  1.0000
  C   C121      1.0  0.12760  0.89821  0.23944  1.0000
  C   C122      1.0  0.13762  0.88638  0.32295  1.0000
  H   H55       1.0  0.14187  0.89100  0.18293  1.0000
  H   H56       1.0  0.08871  0.92655  0.17053  1.0000
  H   H57       1.0  0.12263  0.97593  0.30829  1.0000
  H   H58       1.0  0.11999  0.52867  0.30297  1.0000
  H   H59       1.0  0.99878  0.49944  0.29177  1.0000
  H   H60       1.0  0.92496  0.99774  0.29205  1.0000
  H   H61       1.0  0.00755  0.89331  0.29596  1.0000
  H   H62       1.0  0.92727  0.89143  0.29147  1.0000
  H   H63       1.0  0.85507  0.91907  0.15128  1.0000
  H   H64       1.0  0.80466  0.88160  0.14841  1.0000
  H   H65       1.0  0.80377  0.96850  0.30376  1.0000
  H   H66       1.0  0.80114  0.52123  0.30941  1.0000
  H   H67       1.0  0.99647  0.60575  0.29166  1.0000
  H   H68       1.0  0.91620  0.60386  0.29665  1.0000
  H   H69       1.0  0.83475  0.57052  0.17139  1.0000
  H   H70       1.0  0.78158  0.60606  0.18371  1.0000
  H   H71       1.0  0.11926  0.61551  0.14819  1.0000
  H   H72       1.0  0.06879  0.57808  0.15104  1.0000
  N   N15       1.0  0.75697  0.63176  0.32810  1.0000
  H   H73       1.0  0.73134  0.62925  0.29304  1.0000
  N   N16       1.0  0.15471  0.64008  0.28451  1.0000
  H   H74       1.0  0.14488  0.65552  0.24788  1.0000
  N   N17       1.0  0.16677  0.86537  0.32754  1.0000
  H   H75       1.0  0.19231  0.86784  0.29225  1.0000
  N   N18       1.0  0.76915  0.85703  0.28470  1.0000
  H   H76       1.0  0.77899  0.84160  0.24812  1.0000
  C   C123      1.0  0.23481  0.71374  0.27006  1.0000
  C   C124      1.0  0.21483  0.68767  0.26273  1.0000
  C   C125      1.0  0.24265  0.78990  0.28929  1.0000
  C   C126      1.0  0.21508  0.81284  0.29197  1.0000
  C   C127      1.0  0.38335  0.75064  0.27450  1.0000
  C   C128      1.0  0.33920  0.74747  0.27680  1.0000
  H   H77       1.0  0.21244  0.82490  0.23615  1.0000
  H   H78       1.0  0.25975  0.78612  0.23288  1.0000
  H   H79       1.0  0.23415  0.72722  0.21735  1.0000
  H   H80       1.0  0.20076  0.68276  0.20356  1.0000
  H   H81       1.0  0.39906  0.74708  0.21609  1.0000
  H   H82       1.0  0.32344  0.74184  0.22020  1.0000
  C   C129      1.0  0.68896  0.78342  0.26960  1.0000
  C   C130      1.0  0.70897  0.80949  0.26243  1.0000
  C   C131      1.0  0.68097  0.70718  0.28910  1.0000
  C   C132      1.0  0.70855  0.68425  0.29207  1.0000
  C   C133      1.0  0.54017  0.74661  0.27419  1.0000
  C   C134      1.0  0.58433  0.74975  0.27632  1.0000
  H   H83       1.0  0.71117  0.67216  0.23641  1.0000
  H   H84       1.0  0.66385  0.71093  0.23262  1.0000
  H   H85       1.0  0.68964  0.76998  0.21688  1.0000
  H   H86       1.0  0.72311  0.81443  0.20336  1.0000
  H   H87       1.0  0.52438  0.75021  0.21584  1.0000
  H   H88       1.0  0.60001  0.75540  0.21966  1.0000
  C   C135      1.0  0.11495  0.60588  0.36955  1.0000
  C   C136      1.0  0.08508  0.58419  0.37155  1.0000
  C   C137      1.0  0.80659  0.60031  0.40039  1.0000
  C   C138      1.0  0.83759  0.57947  0.39348  1.0000
  C   C139      1.0  0.83862  0.91299  0.37174  1.0000
  C   C140      1.0  0.80881  0.89126  0.36972  1.0000
  C   C141      1.0  0.08636  0.91775  0.39274  1.0000
  C   C142      1.0  0.11736  0.89690  0.39971  1.0000
  H   H89       1.0  0.12496  0.88935  0.46130  1.0000
  H   H90       1.0  0.07160  0.92464  0.44915  1.0000
  H   H91       1.0  0.84829  0.92073  0.43183  1.0000
  H   H92       1.0  0.79812  0.88327  0.42863  1.0000
  H   H93       1.0  0.85247  0.57261  0.44987  1.0000
  H   H94       1.0  0.79910  0.60788  0.46195  1.0000
  H   H95       1.0  0.07537  0.57645  0.43164  1.0000
  H   H96       1.0  0.12559  0.61388  0.42847  1.0000
  N   N19       1.0  0.27265  0.74830  0.35964  1.0000
  C   C143      1.0  0.24594  0.77181  0.36286  1.0000
  C   C144      1.0  0.31684  0.75182  0.35671  1.0000
  C   C145      1.0  0.25484  0.72150  0.35000  1.0000
  C   C146      1.0  0.21415  0.66879  0.33524  1.0000
  C   C147      1.0  0.23576  0.67647  0.41407  1.0000
  C   C148      1.0  0.25581  0.70253  0.42150  1.0000
  C   C149      1.0  0.19014  0.81826  0.36823  1.0000
  C   C150      1.0  0.19363  0.79984  0.44154  1.0000
  C   C151      1.0  0.22134  0.77697  0.43913  1.0000
  C   C152      1.0  0.33899  0.75968  0.43413  1.0000
  C   C153      1.0  0.38317  0.76277  0.43211  1.0000
  C   C154      1.0  0.40566  0.75813  0.35234  1.0000
  H   H97       1.0  0.22326  0.76394  0.49286  1.0000
  H   H98       1.0  0.17618  0.80299  0.49794  1.0000
  H   H99       1.0  0.32308  0.76278  0.49247  1.0000
  H   H100      1.0  0.39875  0.76803  0.48940  1.0000
  H   H101      1.0  0.26993  0.70799  0.48017  1.0000
  H   H102      1.0  0.23569  0.66364  0.46848  1.0000
  C   C155      1.0  0.16083  0.84073  0.37109  1.0000
  C   C156      1.0  0.19118  0.64325  0.33187  1.0000
  C   C157      1.0  0.44925  0.75996  0.35138  1.0000
  O   O7        1.0  0.46405  0.78358  0.35218  1.0000
  O   O8        1.0  0.20596  0.62159  0.38071  1.0000
  O   O9        1.0  0.12398  0.83603  0.41457  1.0000
  N   N20       1.0  0.65101  0.74883  0.35886  1.0000
  C   C158      1.0  0.67770  0.72530  0.36245  1.0000
  C   C159      1.0  0.60681  0.74533  0.35613  1.0000
  C   C160      1.0  0.66884  0.77563  0.34938  1.0000
  C   C161      1.0  0.70960  0.82832  0.33494  1.0000
  C   C162      1.0  0.68790  0.82061  0.41361  1.0000
  C   C163      1.0  0.66784  0.79455  0.42089  1.0000
  C   C164      1.0  0.73351  0.67886  0.36845  1.0000
  C   C165      1.0  0.73003  0.69730  0.44157  1.0000
  C   C166      1.0  0.70232  0.72018  0.43883  1.0000
  C   C167      1.0  0.58477  0.73743  0.43363  1.0000
  C   C168      1.0  0.54059  0.73437  0.43178  1.0000
  C   C169      1.0  0.51797  0.73907  0.35211  1.0000
  H   H103      1.0  0.70040  0.73323  0.49243  1.0000
  H   H104      1.0  0.74748  0.69418  0.49804  1.0000
  H   H105      1.0  0.60077  0.73429  0.49193  1.0000
  H   H106      1.0  0.52509  0.72909  0.48915  1.0000
  H   H107      1.0  0.65364  0.78907  0.47945  1.0000
  H   H108      1.0  0.68795  0.83341  0.46803  1.0000
  C   C170      1.0  0.76284  0.65641  0.37160  1.0000
  C   C171      1.0  0.73261  0.85385  0.33175  1.0000
  C   C172      1.0  0.47438  0.73725  0.35132  1.0000
  O   O10       1.0  0.45958  0.71363  0.35206  1.0000
  O   O11       1.0  0.71779  0.87550  0.38043  1.0000
  O   O12       1.0  0.79974  0.66118  0.41489  1.0000
