data_image0
_chemical_formula_structural       C3NC3NC5NC5NC20H18N4C3NC3NC5NC5NC20H18N4C3NC3NC5NC5NC20H18N4C3H2CHC3H2CHC3H2CHC3H2CHC3H2CHC3H2CHC8H8C8H8C8H8C3NOCHCHC3NOCHCHC3NOCHCHC3NOCHCHC3NOCHCHC3NOCHCH
_chemical_formula_sum              "C186 N30 H108 O6"
_cell_length_a       50.6771
_cell_length_b       50.677
_cell_length_c       14.8466
_cell_angle_alpha    90.0972
_cell_angle_beta     89.9028
_cell_angle_gamma    120

_space_group_name_H-M_alt    "P 1"
_space_group_IT_number       1

loop_
  _space_group_symop_operation_xyz
  'x, y, z'

loop_
  _atom_site_type_symbol
  _atom_site_label
  _atom_site_symmetry_multiplicity
  _atom_site_fract_x
  _atom_site_fract_y
  _atom_site_fract_z
  _atom_site_occupancy
  C   C1        1.0  0.05169  0.65303  0.32628  1.0000
  C   C2        1.0  0.02018  0.63733  0.32624  1.0000
  C   C3        1.0  0.01011  0.60614  0.32597  1.0000
  N   N1        1.0  0.03583  0.60414  0.32607  1.0000
  C   C4        1.0  0.06163  0.63180  0.32628  1.0000
  C   C5        1.0  0.09266  0.63910  0.32615  1.0000
  C   C6        1.0  0.10244  0.61723  0.32601  1.0000
  N   N2        1.0  0.08514  0.58648  0.32610  1.0000
  C   C7        1.0  0.10228  0.57286  0.32590  1.0000
  C   C8        1.0  0.13258  0.59648  0.32548  1.0000
  C   C9        1.0  0.13268  0.62373  0.32595  1.0000
  C   C10       1.0  0.09232  0.54117  0.32595  1.0000
  C   C11       1.0  0.06125  0.51753  0.32604  1.0000
  N   N3        1.0  0.03553  0.51953  0.32608  1.0000
  C   C12       1.0  0.00973  0.49187  0.32633  1.0000
  C   C13       1.0  0.01967  0.47064  0.32642  1.0000
  C   C14       1.0  0.05118  0.48634  0.32638  1.0000
  C   C15       1.0  0.97870  0.48457  0.32616  1.0000
  C   C16       1.0  0.96892  0.50644  0.32599  1.0000
  N   N4        1.0  0.98622  0.53719  0.32605  1.0000
  C   C17       1.0  0.96908  0.55081  0.32586  1.0000
  C   C18       1.0  0.93878  0.52719  0.32549  1.0000
  C   C19       1.0  0.93868  0.49994  0.32598  1.0000
  C   C20       1.0  0.97904  0.58250  0.32588  1.0000
  C   C21       1.0  0.95590  0.59077  0.32584  1.0000
  C   C22       1.0  0.90352  0.59803  0.32335  1.0000
  C   C23       1.0  0.91874  0.59880  0.24275  1.0000
  C   C24       1.0  0.94453  0.59514  0.24375  1.0000
  C   C25       1.0  0.95545  0.45319  0.32603  1.0000
  C   C26       1.0  0.90325  0.39341  0.32782  1.0000
  C   C27       1.0  0.91505  0.40925  0.24577  1.0000
  C   C28       1.0  0.94078  0.43873  0.24487  1.0000
  C   C29       1.0  0.11545  0.53289  0.32593  1.0000
  C   C30       1.0  0.12671  0.52824  0.24387  1.0000
  C   C31       1.0  0.15243  0.52445  0.24286  1.0000
  C   C32       1.0  0.16761  0.52526  0.32341  1.0000
  C   C33       1.0  0.11593  0.67048  0.32597  1.0000
  C   C34       1.0  0.13063  0.68489  0.24480  1.0000
  C   C35       1.0  0.16829  0.73015  0.32779  1.0000
  C   C36       1.0  0.15644  0.71432  0.24571  1.0000
  H   H1        1.0  0.16707  0.72352  0.18598  1.0000
  H   H2        1.0  0.12339  0.67354  0.18479  1.0000
  H   H3        1.0  0.06493  0.67624  0.32631  1.0000
  H   H4        1.0  0.00704  0.64741  0.32632  1.0000
  H   H5        1.0  0.03577  0.58516  0.32591  1.0000
  H   H6        1.0  0.03559  0.53851  0.32580  1.0000
  H   H7        1.0  0.15194  0.64469  0.32601  1.0000
  H   H8        1.0  0.15176  0.59464  0.32506  1.0000
  H   H9        1.0  0.11701  0.52879  0.18401  1.0000
  H   H10       1.0  0.16058  0.52200  0.18217  1.0000
  H   H11       1.0  0.06432  0.47627  0.32655  1.0000
  H   H12       1.0  0.00644  0.44744  0.32649  1.0000
  H   H13       1.0  0.91960  0.52903  0.32514  1.0000
  H   H14       1.0  0.91943  0.47898  0.32611  1.0000
  H   H15       1.0  0.94803  0.45004  0.18486  1.0000
  H   H16       1.0  0.90450  0.39997  0.18603  1.0000
  H   H17       1.0  0.95426  0.59453  0.18389  1.0000
  H   H18       1.0  0.91051  0.60102  0.18205  1.0000
  N   N5        1.0  0.87785  0.36630  0.33494  1.0000
  N   N6        1.0  0.19310  0.52375  0.31590  1.0000
  N   N7        1.0  0.19381  0.75714  0.33495  1.0000
  N   N8        1.0  0.87791  0.59931  0.31586  1.0000
  C   C37       1.0  0.44387  0.48541  0.32549  1.0000
  C   C38       1.0  0.45957  0.46960  0.32540  1.0000
  C   C39       1.0  0.49076  0.49072  0.32508  1.0000
  N   N9        1.0  0.49276  0.51844  0.32518  1.0000
  C   C40       1.0  0.46509  0.51657  0.32545  1.0000
  C   C41       1.0  0.45779  0.54030  0.32533  1.0000
  C   C42       1.0  0.47966  0.57195  0.32514  1.0000
  N   N10       1.0  0.51041  0.58541  0.32518  1.0000
  C   C43       1.0  0.52403  0.61617  0.32496  1.0000
  C   C44       1.0  0.50040  0.62285  0.32456  1.0000
  C   C45       1.0  0.47315  0.59569  0.32506  1.0000
  C   C46       1.0  0.55572  0.63790  0.32500  1.0000
  C   C47       1.0  0.57935  0.63047  0.32510  1.0000
  N   N11       1.0  0.57736  0.60275  0.32516  1.0000
  C   C48       1.0  0.60502  0.60462  0.32545  1.0000
  C   C49       1.0  0.62624  0.63579  0.32554  1.0000
  C   C50       1.0  0.61054  0.65160  0.32547  1.0000
  C   C51       1.0  0.61233  0.58090  0.32530  1.0000
  C   C52       1.0  0.59046  0.54925  0.32509  1.0000
  N   N12       1.0  0.55971  0.53579  0.32513  1.0000
  C   C53       1.0  0.54609  0.50503  0.32492  1.0000
  C   C54       1.0  0.56972  0.49835  0.32456  1.0000
  C   C55       1.0  0.59697  0.52551  0.32506  1.0000
  C   C56       1.0  0.51440  0.48330  0.32495  1.0000
  C   C57       1.0  0.50615  0.45189  0.32489  1.0000
  C   C58       1.0  0.49887  0.39225  0.32240  1.0000
  C   C59       1.0  0.49811  0.40663  0.24181  1.0000
  C   C60       1.0  0.50175  0.43607  0.24280  1.0000
  C   C61       1.0  0.64371  0.58903  0.32525  1.0000
  C   C62       1.0  0.70351  0.59664  0.32734  1.0000
  C   C63       1.0  0.68769  0.59249  0.24521  1.0000
  C   C64       1.0  0.65821  0.58874  0.24417  1.0000
  C   C65       1.0  0.56399  0.66931  0.32497  1.0000
  C   C66       1.0  0.56865  0.68514  0.24290  1.0000
  C   C67       1.0  0.57244  0.71465  0.24189  1.0000
  C   C68       1.0  0.57160  0.72909  0.32244  1.0000
  C   C69       1.0  0.42641  0.53219  0.32527  1.0000
  C   C70       1.0  0.41196  0.53239  0.24416  1.0000
  C   C71       1.0  0.36674  0.52489  0.32737  1.0000
  C   C72       1.0  0.38255  0.52882  0.24522  1.0000
  H   H19       1.0  0.37331  0.53013  0.18553  1.0000
  H   H20       1.0  0.42329  0.53645  0.18411  1.0000
  H   H21       1.0  0.42066  0.47543  0.32556  1.0000
  H   H22       1.0  0.44950  0.44638  0.32550  1.0000
  H   H23       1.0  0.51173  0.53736  0.32495  1.0000
  H   H24       1.0  0.55838  0.58384  0.32489  1.0000
  H   H25       1.0  0.45219  0.59398  0.32519  1.0000
  H   H26       1.0  0.50224  0.64387  0.32416  1.0000
  H   H27       1.0  0.56809  0.67483  0.18306  1.0000
  H   H28       1.0  0.57487  0.72519  0.18121  1.0000
  H   H29       1.0  0.62061  0.67482  0.32563  1.0000
  H   H30       1.0  0.64945  0.64577  0.32563  1.0000
  H   H31       1.0  0.56788  0.47734  0.32416  1.0000
  H   H32       1.0  0.61793  0.52722  0.32518  1.0000
  H   H33       1.0  0.64692  0.58459  0.18412  1.0000
  H   H34       1.0  0.69700  0.59115  0.18554  1.0000
  H   H35       1.0  0.50237  0.44636  0.18294  1.0000
  H   H36       1.0  0.49583  0.39609  0.18111  1.0000
  N   N13       1.0  0.73059  0.59832  0.33463  1.0000
  N   N14       1.0  0.57312  0.75609  0.31495  1.0000
  N   N15       1.0  0.33975  0.52342  0.33465  1.0000
  N   N16       1.0  0.49757  0.36534  0.31492  1.0000
  C   C73       1.0  0.61148  0.04521  0.32502  1.0000
  C   C74       1.0  0.62729  0.07672  0.32502  1.0000
  C   C75       1.0  0.60617  0.08679  0.32468  1.0000
  N   N17       1.0  0.57845  0.06107  0.32470  1.0000
  C   C76       1.0  0.58031  0.03527  0.32494  1.0000
  C   C77       1.0  0.55658  0.00424  0.32475  1.0000
  C   C78       1.0  0.52493  0.99446  0.32460  1.0000
  N   N18       1.0  0.51148  0.01176  0.32473  1.0000
  C   C79       1.0  0.48072  0.99462  0.32458  1.0000
  C   C80       1.0  0.47403  0.96432  0.32415  1.0000
  C   C81       1.0  0.50119  0.96422  0.32454  1.0000
  C   C82       1.0  0.45899  0.00458  0.32469  1.0000
  C   C83       1.0  0.46642  0.03565  0.32473  1.0000
  N   N19       1.0  0.49414  0.06137  0.32473  1.0000
  C   C84       1.0  0.49228  0.08717  0.32496  1.0000
  C   C85       1.0  0.46112  0.07723  0.32507  1.0000
  C   C86       1.0  0.44530  0.04572  0.32509  1.0000
  C   C87       1.0  0.51601  0.11820  0.32476  1.0000
  C   C88       1.0  0.54766  0.12798  0.32460  1.0000
  N   N20       1.0  0.56111  0.11068  0.32468  1.0000
  C   C89       1.0  0.59187  0.12782  0.32452  1.0000
  C   C90       1.0  0.59855  0.15812  0.32413  1.0000
  C   C91       1.0  0.57139  0.15822  0.32455  1.0000
  C   C92       1.0  0.61360  0.11786  0.32461  1.0000
  C   C93       1.0  0.64501  0.14101  0.32467  1.0000
  C   C94       1.0  0.70465  0.19338  0.32255  1.0000
  C   C95       1.0  0.69032  0.17820  0.24187  1.0000
  C   C96       1.0  0.66088  0.15238  0.24268  1.0000
  C   C97       1.0  0.50789  0.14146  0.32464  1.0000
  C   C98       1.0  0.50026  0.19363  0.32660  1.0000
  C   C99       1.0  0.50442  0.18188  0.24451  1.0000
  C   C100      1.0  0.50816  0.15614  0.24352  1.0000
  C   C101      1.0  0.42758  0.98145  0.32479  1.0000
  C   C102      1.0  0.41170  0.97014  0.24282  1.0000
  C   C103      1.0  0.38218  0.94444  0.24199  1.0000
  C   C104      1.0  0.36780  0.92927  0.32263  1.0000
  C   C105      1.0  0.56469  0.98098  0.32463  1.0000
  C   C106      1.0  0.56446  0.96624  0.24350  1.0000
  C   C107      1.0  0.57198  0.92860  0.32660  1.0000
  C   C108      1.0  0.56805  0.94041  0.24449  1.0000
  H   H37       1.0  0.56674  0.92981  0.18477  1.0000
  H   H38       1.0  0.56042  0.97348  0.18346  1.0000
  H   H39       1.0  0.62145  0.03198  0.32508  1.0000
  H   H40       1.0  0.65051  0.08987  0.32517  1.0000
  H   H41       1.0  0.55954  0.06113  0.32443  1.0000
  H   H42       1.0  0.51306  0.06131  0.32446  1.0000
  H   H43       1.0  0.50289  0.94497  0.32463  1.0000
  H   H44       1.0  0.45302  0.94514  0.32376  1.0000
  H   H45       1.0  0.42196  0.97985  0.18292  1.0000
  H   H46       1.0  0.37161  0.93625  0.18136  1.0000
  H   H47       1.0  0.42208  0.03258  0.32528  1.0000
  H   H48       1.0  0.45114  0.09046  0.32514  1.0000
  H   H49       1.0  0.61957  0.17730  0.32376  1.0000
  H   H50       1.0  0.56969  0.17748  0.32467  1.0000
  H   H51       1.0  0.51235  0.14895  0.18351  1.0000
  H   H52       1.0  0.50579  0.19247  0.18483  1.0000
  H   H53       1.0  0.65064  0.14268  0.18277  1.0000
  H   H54       1.0  0.70090  0.18642  0.18123  1.0000
  N   N21       1.0  0.49856  0.21903  0.33383  1.0000
  N   N22       1.0  0.34080  0.90378  0.31530  1.0000
  N   N23       1.0  0.57346  0.90309  0.33383  1.0000
  N   N24       1.0  0.73156  0.21898  0.31525  1.0000
  C   C109      1.0  0.29315  0.52149  0.30197  1.0000
  C   C110      1.0  0.27412  0.52321  0.23498  1.0000
  C   C111      1.0  0.24698  0.52315  0.25742  1.0000
  H   H55       1.0  0.23431  0.52464  0.20619  1.0000
  H   H56       1.0  0.27994  0.52473  0.16834  1.0000
  C   C112      1.0  0.32004  0.52202  0.27732  1.0000
  H   H57       1.0  0.32437  0.52182  0.21214  1.0000
  C   C113      1.0  0.57539  0.85839  0.30110  1.0000
  C   C114      1.0  0.57367  0.83758  0.23409  1.0000
  C   C115      1.0  0.57372  0.81052  0.25650  1.0000
  H   H58       1.0  0.57223  0.79631  0.20526  1.0000
  H   H59       1.0  0.57214  0.84181  0.16745  1.0000
  C   C116      1.0  0.57485  0.88472  0.27648  1.0000
  H   H60       1.0  0.57504  0.88920  0.21130  1.0000
  C   C117      1.0  0.23848  0.80374  0.30202  1.0000
  C   C118      1.0  0.25925  0.82274  0.23489  1.0000
  C   C119      1.0  0.28634  0.84988  0.25716  1.0000
  H   H61       1.0  0.30051  0.86254  0.20585  1.0000
  H   H62       1.0  0.25497  0.81690  0.16828  1.0000
  C   C120      1.0  0.21212  0.77686  0.27752  1.0000
  H   H63       1.0  0.20757  0.77254  0.21237  1.0000
  C   C121      1.0  0.77739  0.60063  0.30195  1.0000
  C   C122      1.0  0.79657  0.59905  0.23495  1.0000
  C   C123      1.0  0.82382  0.59938  0.25738  1.0000
  H   H64       1.0  0.83660  0.59798  0.20615  1.0000
  H   H65       1.0  0.79078  0.59743  0.16831  1.0000
  C   C124      1.0  0.75041  0.59985  0.27729  1.0000
  H   H66       1.0  0.74611  0.60001  0.21211  1.0000
  C   C125      1.0  0.49625  0.26349  0.30108  1.0000
  C   C126      1.0  0.49783  0.28417  0.23407  1.0000
  C   C127      1.0  0.49749  0.31111  0.25648  1.0000
  H   H67       1.0  0.49888  0.32523  0.20524  1.0000
  H   H68       1.0  0.49945  0.27993  0.16743  1.0000
  C   C128      1.0  0.49706  0.23728  0.27647  1.0000
  H   H69       1.0  0.49695  0.23277  0.21129  1.0000
  C   C129      1.0  0.83342  0.31951  0.30197  1.0000
  C   C130      1.0  0.81277  0.30035  0.23485  1.0000
  C   C131      1.0  0.78582  0.27309  0.25712  1.0000
  H   H70       1.0  0.77173  0.26034  0.20580  1.0000
  H   H71       1.0  0.81705  0.30618  0.16825  1.0000
  C   C132      1.0  0.85964  0.34651  0.27750  1.0000
  H   H72       1.0  0.86417  0.35087  0.21234  1.0000
  C   C133      1.0  0.94108  0.59050  0.40683  1.0000
  C   C134      1.0  0.91526  0.59409  0.40560  1.0000
  C   C135      1.0  0.94402  0.43731  0.40794  1.0000
  C   C136      1.0  0.91830  0.40780  0.40858  1.0000
  C   C137      1.0  0.15599  0.52951  0.40563  1.0000
  C   C138      1.0  0.13026  0.53327  0.40689  1.0000
  C   C139      1.0  0.12738  0.68636  0.40791  1.0000
  C   C140      1.0  0.15318  0.71583  0.40857  1.0000
  H   H73       1.0  0.16146  0.72641  0.46916  1.0000
  H   H74       1.0  0.11774  0.67614  0.46789  1.0000
  H   H75       1.0  0.12316  0.53752  0.46696  1.0000
  H   H76       1.0  0.16670  0.53099  0.46517  1.0000
  H   H77       1.0  0.95366  0.44756  0.46790  1.0000
  H   H78       1.0  0.91008  0.39718  0.46915  1.0000
  H   H79       1.0  0.90450  0.59261  0.46516  1.0000
  H   H80       1.0  0.94821  0.58638  0.46693  1.0000
  C   C141      1.0  0.50639  0.43742  0.40591  1.0000
  C   C142      1.0  0.50284  0.40802  0.40465  1.0000
  C   C143      1.0  0.65955  0.59357  0.40722  1.0000
  C   C144      1.0  0.68907  0.59737  0.40802  1.0000
  C   C145      1.0  0.56737  0.71330  0.40466  1.0000
  C   C146      1.0  0.56363  0.68383  0.40593  1.0000
  C   C147      1.0  0.41056  0.52784  0.40728  1.0000
  C   C148      1.0  0.38109  0.52417  0.40807  1.0000
  H   H81       1.0  0.37053  0.52191  0.46870  1.0000
  H   H82       1.0  0.42080  0.52847  0.46721  1.0000
  H   H83       1.0  0.55934  0.67252  0.46600  1.0000
  H   H84       1.0  0.56585  0.72258  0.46419  1.0000
  H   H85       1.0  0.64927  0.59299  0.46714  1.0000
  H   H86       1.0  0.69964  0.59979  0.46865  1.0000
  H   H87       1.0  0.50427  0.39878  0.46422  1.0000
  H   H88       1.0  0.51054  0.44874  0.46599  1.0000
  C   C149      1.0  0.65943  0.15579  0.40577  1.0000
  C   C150      1.0  0.68884  0.18161  0.40471  1.0000
  C   C151      1.0  0.50333  0.15285  0.40659  1.0000
  C   C152      1.0  0.49949  0.17854  0.40731  1.0000
  C   C153      1.0  0.38363  0.94095  0.40476  1.0000
  C   C154      1.0  0.41312  0.96667  0.40582  1.0000
  C   C155      1.0  0.56906  0.96955  0.40660  1.0000
  C   C156      1.0  0.57269  0.94374  0.40733  1.0000
  H   H89       1.0  0.57498  0.93550  0.46794  1.0000
  H   H90       1.0  0.56843  0.97922  0.46654  1.0000
  H   H91       1.0  0.42445  0.97379  0.46584  1.0000
  H   H92       1.0  0.37440  0.93023  0.46435  1.0000
  H   H93       1.0  0.50386  0.14318  0.46653  1.0000
  H   H94       1.0  0.49705  0.18675  0.46791  1.0000
  H   H95       1.0  0.69803  0.19233  0.46433  1.0000
  H   H96       1.0  0.64807  0.14863  0.46580  1.0000
  C   C157      1.0  0.23746  0.52133  0.34825  1.0000
  C   C158      1.0  0.25647  0.51952  0.41481  1.0000
  C   C159      1.0  0.28329  0.51963  0.39215  1.0000
  N   N25       1.0  0.29579  0.51783  0.46911  1.0000
  O   O1        1.0  0.25199  0.51773  0.50574  1.0000
  C   C160      1.0  0.27704  0.51671  0.53470  1.0000
  H   H97       1.0  0.28120  0.51530  0.60126  1.0000
  C   C161      1.0  0.21110  0.52178  0.37320  1.0000
  H   H98       1.0  0.20620  0.52091  0.43829  1.0000
  C   C162      1.0  0.57555  0.80290  0.34732  1.0000
  C   C163      1.0  0.57737  0.82379  0.41390  1.0000
  C   C164      1.0  0.57725  0.85047  0.39127  1.0000
  N   N26       1.0  0.57905  0.86484  0.46823  1.0000
  O   O2        1.0  0.57916  0.82118  0.50482  1.0000
  C   C165      1.0  0.58018  0.84727  0.53381  1.0000
  H   H99       1.0  0.58160  0.85292  0.60038  1.0000
  C   C166      1.0  0.57510  0.77612  0.37225  1.0000
  H   H100      1.0  0.57598  0.77215  0.43733  1.0000
  C   C167      1.0  0.29401  0.85943  0.34795  1.0000
  C   C168      1.0  0.27317  0.84046  0.41463  1.0000
  C   C169      1.0  0.24646  0.81363  0.39214  1.0000
  N   N27       1.0  0.23213  0.80116  0.46919  1.0000
  O   O3        1.0  0.27583  0.84497  0.50555  1.0000
  C   C170      1.0  0.24975  0.81993  0.53467  1.0000
  H   H101      1.0  0.24415  0.81580  0.60127  1.0000
  C   C171      1.0  0.32081  0.88580  0.37272  1.0000
  H   H102      1.0  0.32483  0.89072  0.43779  1.0000
  C   C172      1.0  0.83332  0.60136  0.34821  1.0000
  C   C173      1.0  0.81416  0.60303  0.41477  1.0000
  C   C174      1.0  0.78723  0.60265  0.39212  1.0000
  N   N28       1.0  0.77461  0.60438  0.46908  1.0000
  O   O4        1.0  0.81859  0.60492  0.50570  1.0000
  C   C175      1.0  0.79340  0.60572  0.53466  1.0000
  H   H103      1.0  0.78916  0.60715  0.60122  1.0000
  C   C176      1.0  0.85979  0.60118  0.37315  1.0000
  H   H104      1.0  0.86466  0.60214  0.43824  1.0000
  C   C177      1.0  0.49551  0.31873  0.34729  1.0000
  C   C178      1.0  0.49384  0.29797  0.41387  1.0000
  C   C179      1.0  0.49423  0.27141  0.39124  1.0000
  N   N29       1.0  0.49251  0.25714  0.46821  1.0000
  O   O5        1.0  0.49195  0.30061  0.50479  1.0000
  C   C180      1.0  0.49116  0.27465  0.53378  1.0000
  H   H105      1.0  0.48974  0.26906  0.60035  1.0000
  C   C181      1.0  0.49569  0.34541  0.37221  1.0000
  H   H106      1.0  0.49474  0.34939  0.43730  1.0000
  C   C182      1.0  0.77815  0.26356  0.34789  1.0000
  C   C183      1.0  0.79887  0.28268  0.41458  1.0000
  C   C184      1.0  0.82545  0.30963  0.39210  1.0000
  N   N30       1.0  0.83968  0.32222  0.46914  1.0000
  O   O6        1.0  0.79619  0.27821  0.50548  1.0000
  C   C185      1.0  0.82213  0.30340  0.53462  1.0000
  H   H107      1.0  0.82768  0.30761  0.60121  1.0000
  C   C186      1.0  0.75146  0.23708  0.37266  1.0000
  H   H108      1.0  0.74742  0.23218  0.43773  1.0000
