data_image0
_chemical_formula_structural       OC2NC30H17NHNHNHC30H17NHNHNHC3H2OCH2C3H2OCH2C2H2CH10C3NC2NH2CH2C3NC2NH2CH2C2NC2H2CH2
_chemical_formula_sum              "O3 C90 N12 H72"
_cell_length_a       44.9523
_cell_length_b       44.9523
_cell_length_c       14.9831
_cell_angle_alpha    90
_cell_angle_beta     90
_cell_angle_gamma    120

_space_group_name_H-M_alt    "P 1"
_space_group_IT_number       1

loop_
  _space_group_symop_operation_xyz
  'x, y, z'

loop_
  _atom_site_type_symbol
  _atom_site_label
  _atom_site_symmetry_multiplicity
  _atom_site_fract_x
  _atom_site_fract_y
  _atom_site_fract_z
  _atom_site_occupancy
  O   O1        1.0  0.00892  0.52396  0.00478  1.0000
  C   C1        1.0  0.01187  0.51309  0.43154  1.0000
  C   C2        1.0  0.02298  0.50897  0.27384  1.0000
  N   N1        1.0  0.02136  0.52173  0.51917  1.0000
  C   C3        1.0  0.13232  0.56446  0.31745  1.0000
  C   C4        1.0  0.15163  0.59809  0.35224  1.0000
  C   C5        1.0  0.18725  0.61308  0.36566  1.0000
  C   C6        1.0  0.20427  0.59474  0.34423  1.0000
  C   C7        1.0  0.18486  0.56096  0.31053  1.0000
  C   C8        1.0  0.14927  0.54611  0.29661  1.0000
  C   C9        1.0  0.23944  0.60944  0.35500  1.0000
  C   C10       1.0  0.26220  0.63655  0.30662  1.0000
  C   C11       1.0  0.29769  0.65138  0.31328  1.0000
  C   C12       1.0  0.31386  0.63127  0.31255  1.0000
  C   C13       1.0  0.35004  0.64660  0.31312  1.0000
  C   C14       1.0  0.37015  0.68288  0.31247  1.0000
  C   C15       1.0  0.35482  0.70373  0.31313  1.0000
  C   C16       1.0  0.31855  0.68756  0.31259  1.0000
  C   C17       1.0  0.37548  0.73922  0.30646  1.0000
  C   C18       1.0  0.37114  0.76197  0.35488  1.0000
  C   C19       1.0  0.39161  0.79715  0.34413  1.0000
  C   C20       1.0  0.37725  0.81656  0.31038  1.0000
  C   C21       1.0  0.42698  0.81416  0.36558  1.0000
  C   C22       1.0  0.44761  0.84979  0.35224  1.0000
  C   C23       1.0  0.43330  0.86910  0.31740  1.0000
  C   C24       1.0  0.39800  0.85216  0.29656  1.0000
  C   C25       1.0  0.36488  0.62594  0.30645  1.0000
  C   C26       1.0  0.39198  0.63030  0.35483  1.0000
  C   C27       1.0  0.40667  0.60981  0.34408  1.0000
  C   C28       1.0  0.38832  0.57445  0.36555  1.0000
  C   C29       1.0  0.44045  0.62417  0.31032  1.0000
  C   C30       1.0  0.45529  0.60342  0.29648  1.0000
  C   C31       1.0  0.43693  0.56812  0.31734  1.0000
  C   C32       1.0  0.40331  0.55381  0.35218  1.0000
  H   H1        1.0  0.13988  0.61201  0.36644  1.0000
  H   H2        1.0  0.20070  0.63761  0.39015  1.0000
  H   H3        1.0  0.30712  0.70237  0.30953  1.0000
  H   H4        1.0  0.29905  0.60503  0.30952  1.0000
  H   H5        1.0  0.39640  0.69431  0.30938  1.0000
  H   H6        1.0  0.36380  0.56339  0.39008  1.0000
  H   H7        1.0  0.35174  0.80486  0.29389  1.0000
  H   H8        1.0  0.47328  0.86153  0.36639  1.0000
  H   H9        1.0  0.43805  0.80071  0.39009  1.0000
  H   H10       1.0  0.38939  0.52815  0.36639  1.0000
  H   H11       1.0  0.45426  0.64968  0.29383  1.0000
  H   H12       1.0  0.35182  0.75369  0.39812  1.0000
  H   H13       1.0  0.39487  0.74811  0.26312  1.0000
  H   H14       1.0  0.24773  0.59838  0.39814  1.0000
  H   H15       1.0  0.25331  0.64707  0.26334  1.0000
  H   H16       1.0  0.40303  0.64962  0.39802  1.0000
  H   H17       1.0  0.35436  0.60654  0.26316  1.0000
  N   N2        1.0  0.45341  0.90464  0.29872  1.0000
  H   H18       1.0  0.47322  0.90831  0.25745  1.0000
  N   N3        1.0  0.09678  0.54903  0.29874  1.0000
  H   H19       1.0  0.09311  0.56517  0.25746  1.0000
  N   N4        1.0  0.45236  0.54801  0.29869  1.0000
  H   H20       1.0  0.43622  0.52819  0.25743  1.0000
  C   C33       1.0  0.86909  0.42357  0.34147  1.0000
  C   C34       1.0  0.84892  0.39484  0.28637  1.0000
  C   C35       1.0  0.81332  0.38176  0.27765  1.0000
  C   C36       1.0  0.79717  0.39712  0.32435  1.0000
  C   C37       1.0  0.81717  0.42570  0.37982  1.0000
  C   C38       1.0  0.85269  0.43853  0.38882  1.0000
  C   C39       1.0  0.76236  0.38481  0.31502  1.0000
  C   C40       1.0  0.73883  0.35977  0.36723  1.0000
  C   C41       1.0  0.70368  0.34727  0.36099  1.0000
  C   C42       1.0  0.68999  0.36958  0.36168  1.0000
  C   C43       1.0  0.65415  0.35670  0.36104  1.0000
  C   C44       1.0  0.63183  0.32070  0.36168  1.0000
  C   C45       1.0  0.64471  0.29774  0.36103  1.0000
  C   C46       1.0  0.68072  0.31142  0.36164  1.0000
  C   C47       1.0  0.62207  0.26258  0.36730  1.0000
  C   C48       1.0  0.62357  0.23906  0.31502  1.0000
  C   C49       1.0  0.60107  0.20424  0.32437  1.0000
  C   C50       1.0  0.60965  0.18425  0.37986  1.0000
  C   C51       1.0  0.56956  0.18809  0.27763  1.0000
  C   C52       1.0  0.54705  0.15249  0.28636  1.0000
  C   C53       1.0  0.55560  0.13232  0.34149  1.0000
  C   C54       1.0  0.58696  0.14873  0.38887  1.0000
  C   C55       1.0  0.64164  0.37934  0.36731  1.0000
  C   C56       1.0  0.61661  0.37784  0.31505  1.0000
  C   C57       1.0  0.60430  0.40034  0.32439  1.0000
  C   C58       1.0  0.61964  0.43184  0.27765  1.0000
  C   C59       1.0  0.57573  0.39177  0.37992  1.0000
  C   C60       1.0  0.56290  0.41446  0.38891  1.0000
  C   C61       1.0  0.57784  0.44581  0.34153  1.0000
  C   C62       1.0  0.60656  0.45436  0.28637  1.0000
  H   H21       1.0  0.86016  0.38346  0.25162  1.0000
  H   H22       1.0  0.79937  0.36106  0.23685  1.0000
  H   H23       1.0  0.69036  0.29503  0.36440  1.0000
  H   H24       1.0  0.70639  0.39562  0.36442  1.0000
  H   H25       1.0  0.60579  0.31105  0.36447  1.0000
  H   H26       1.0  0.64033  0.43859  0.23682  1.0000
  H   H27       1.0  0.63236  0.19537  0.41441  1.0000
  H   H28       1.0  0.52444  0.14125  0.25159  1.0000
  H   H29       1.0  0.56282  0.20203  0.23682  1.0000
  H   H30       1.0  0.61793  0.47697  0.25160  1.0000
  H   H31       1.0  0.56414  0.36906  0.41446  1.0000
  H   H32       1.0  0.64167  0.24638  0.26849  1.0000
  H   H33       1.0  0.60350  0.25468  0.41285  1.0000
  H   H34       1.0  0.75504  0.39561  0.26853  1.0000
  H   H35       1.0  0.74674  0.34909  0.41275  1.0000
  H   H36       1.0  0.60583  0.35974  0.26852  1.0000
  H   H37       1.0  0.65230  0.39791  0.41286  1.0000
  N   N5        1.0  0.53352  0.09635  0.35204  1.0000
  H   H38       1.0  0.50875  0.08916  0.33412  1.0000
  N   N6        1.0  0.90507  0.43746  0.35202  1.0000
  H   H39       1.0  0.91225  0.41987  0.33411  1.0000
  N   N7        1.0  0.56395  0.46789  0.35208  1.0000
  H   H40       1.0  0.58153  0.49266  0.33416  1.0000
  C   C63       1.0  0.51550  0.47795  0.32376  1.0000
  C   C64       1.0  0.50924  0.49576  0.25562  1.0000
  C   C65       1.0  0.49242  0.51427  0.27383  1.0000
  H   H41       1.0  0.48841  0.52643  0.22152  1.0000
  H   H42       1.0  0.51641  0.49496  0.19122  1.0000
  O   O2        1.0  0.47744  0.48526  0.00480  1.0000
  C   C66       1.0  0.53152  0.45669  0.30174  1.0000
  H   H43       1.0  0.53681  0.45739  0.23015  1.0000
  H   H44       1.0  0.51274  0.43009  0.31843  1.0000
  C   C67       1.0  0.52346  0.03784  0.32373  1.0000
  C   C68       1.0  0.50564  0.01377  0.25562  1.0000
  C   C69       1.0  0.48714  0.97844  0.27383  1.0000
  H   H45       1.0  0.47498  0.96227  0.22152  1.0000
  H   H46       1.0  0.50645  0.02174  0.19120  1.0000
  O   O3        1.0  0.51617  0.99249  0.00479  1.0000
  C   C70       1.0  0.54472  0.07512  0.30171  1.0000
  H   H47       1.0  0.54401  0.07970  0.23011  1.0000
  H   H48       1.0  0.57132  0.08294  0.31838  1.0000
  C   C71       1.0  0.96357  0.48590  0.32372  1.0000
  C   C72       1.0  0.98765  0.49214  0.25561  1.0000
  H   H49       1.0  0.03916  0.51298  0.22154  1.0000
  H   H50       1.0  0.97969  0.48499  0.19120  1.0000
  C   C73       1.0  0.92630  0.46988  0.30168  1.0000
  H   H51       1.0  0.92172  0.46459  0.23008  1.0000
  H   H52       1.0  0.91848  0.48867  0.31834  1.0000
  H   H53       1.0  0.13575  0.52186  0.27060  1.0000
  H   H54       1.0  0.19657  0.54716  0.29398  1.0000
  H   H55       1.0  0.38728  0.86568  0.27052  1.0000
  H   H56       1.0  0.47954  0.61414  0.27047  1.0000
  H   H57       1.0  0.86669  0.45914  0.42974  1.0000
  H   H58       1.0  0.80606  0.43730  0.41435  1.0000
  H   H59       1.0  0.59356  0.13473  0.42980  1.0000
  H   H60       1.0  0.54230  0.40786  0.42987  1.0000
  C   C74       1.0  0.48103  0.51582  0.36093  1.0000
  C   C75       1.0  0.48830  0.49906  0.43155  1.0000
  C   C76       1.0  0.50511  0.47999  0.41177  1.0000
  N   N8        1.0  0.51112  0.46359  0.47966  1.0000
  C   C77       1.0  0.50236  0.46457  0.56545  1.0000
  C   C78       1.0  0.48624  0.48352  0.58604  1.0000
  N   N9        1.0  0.47966  0.49991  0.51917  1.0000
  H   H61       1.0  0.50766  0.45187  0.61379  1.0000
  H   H62       1.0  0.46857  0.51284  0.53644  1.0000
  C   C79       1.0  0.46151  0.53424  0.37795  1.0000
  H   H63       1.0  0.47709  0.55568  0.42282  1.0000
  H   H64       1.0  0.43767  0.51645  0.41244  1.0000
  C   C80       1.0  0.48559  0.96550  0.36093  1.0000
  C   C81       1.0  0.50236  0.98954  0.43154  1.0000
  C   C82       1.0  0.52142  0.02541  0.41175  1.0000
  N   N10       1.0  0.53783  0.04783  0.47964  1.0000
  C   C83       1.0  0.53686  0.03809  0.56543  1.0000
  C   C84       1.0  0.51790  0.00302  0.58602  1.0000
  N   N11       1.0  0.50151  0.98005  0.51917  1.0000
  H   H65       1.0  0.54956  0.05610  0.61376  1.0000
  H   H66       1.0  0.48858  0.95603  0.53645  1.0000
  C   C85       1.0  0.46718  0.92757  0.37797  1.0000
  H   H67       1.0  0.44574  0.92170  0.42286  1.0000
  H   H68       1.0  0.48497  0.92151  0.41246  1.0000
  C   C86       1.0  0.03592  0.52036  0.36093  1.0000
  C   C87       1.0  0.97600  0.49629  0.41173  1.0000
  N   N12       1.0  0.95359  0.49029  0.47961  1.0000
  C   C88       1.0  0.96332  0.49905  0.56541  1.0000
  C   C89       1.0  0.99839  0.51516  0.58602  1.0000
  H   H69       1.0  0.94532  0.49376  0.61373  1.0000
  H   H70       1.0  0.04539  0.53283  0.53645  1.0000
  C   C90       1.0  0.07385  0.53988  0.37799  1.0000
  H   H71       1.0  0.07971  0.52430  0.42288  1.0000
  H   H72       1.0  0.07990  0.56372  0.41247  1.0000
