data_image0
_chemical_formula_structural       C7N2O4CHC3N2O4CHC3H2CHC3H2CHC3H2CHC3H2CHC3N2O4CHC3N2O4CHC3N2O4CHC3N2O4CHC3H2CHC3H2CHC3H2CHC3H2CHC3N2O4CHC3N2O4CHC3N2O4CHC3N2O4CHCNCNCN4CNCNCN4CNCNCN4CNCNCN5CNCN5CNCN5CNCN5CNCN4CNCNCN4CNCNCN4CNCNCN4CNCNCN4C3H2CHC3H2CHC3N2O4CHC3N2O4CHC3N2O4CHC3N2O4CHC3H2CHC3H2CHC3H2CHC3H2CHC3N2O4CHC3N2O4CHC3N2O4CHC3N2O4CHC3H2CHC3H2CHC3H2CHC3H2CH
_chemical_formula_sum              "C180 N108 O72 H72"
_cell_length_a       51.8046
_cell_length_b       51.5656
_cell_length_c       14.6294
_cell_angle_alpha    90
_cell_angle_beta     90
_cell_angle_gamma    90.2637

_space_group_name_H-M_alt    "P 1"
_space_group_IT_number       1

loop_
  _space_group_symop_operation_xyz
  'x, y, z'

loop_
  _atom_site_type_symbol
  _atom_site_label
  _atom_site_symmetry_multiplicity
  _atom_site_fract_x
  _atom_site_fract_y
  _atom_site_fract_z
  _atom_site_occupancy
  C   C1        1.0  0.05254  0.20445  0.36838  1.0000
  C   C2        1.0  0.96824  0.81681  0.36714  1.0000
  C   C3        1.0  0.81588  0.05267  0.36682  1.0000
  C   C4        1.0  0.20490  0.96872  0.36795  1.0000
  C   C5        1.0  0.03304  0.49439  0.35157  1.0000
  C   C6        1.0  0.02322  0.50581  0.27019  1.0000
  C   C7        1.0  0.00070  0.52181  0.27259  1.0000
  N   N1        1.0  0.03650  0.50024  0.18764  1.0000
  N   N2        1.0  0.99195  0.53199  0.18807  1.0000
  O   O1        1.0  0.02253  0.48818  0.13158  1.0000
  O   O2        1.0  0.99316  0.55631  0.18563  1.0000
  O   O3        1.0  0.04545  0.52032  0.15049  1.0000
  O   O4        1.0  0.96949  0.52460  0.16827  1.0000
  C   C8        1.0  0.05648  0.48093  0.35298  1.0000
  H   H1        1.0  0.07258  0.49139  0.34759  1.0000
  C   C9        1.0  0.52696  0.03252  0.35292  1.0000
  C   C10       1.0  0.51644  0.02226  0.27059  1.0000
  C   C11       1.0  0.50015  0.99974  0.27223  1.0000
  N   N3        1.0  0.52307  0.03515  0.18806  1.0000
  N   N4        1.0  0.49080  0.99053  0.18702  1.0000
  O   O5        1.0  0.53546  0.02077  0.13456  1.0000
  O   O6        1.0  0.46664  0.99171  0.18154  1.0000
  O   O7        1.0  0.50363  0.04404  0.14764  1.0000
  O   O8        1.0  0.49811  0.96787  0.16965  1.0000
  C   C12       1.0  0.54061  0.05602  0.35492  1.0000
  H   H2        1.0  0.53028  0.07222  0.35323  1.0000
  C   C13       1.0  0.06882  0.32979  0.35386  1.0000
  C   C14       1.0  0.06053  0.31651  0.27457  1.0000
  C   C15       1.0  0.05502  0.28981  0.27635  1.0000
  H   H3        1.0  0.04788  0.28137  0.21821  1.0000
  H   H4        1.0  0.05724  0.32645  0.21513  1.0000
  C   C16       1.0  0.06945  0.35693  0.35067  1.0000
  H   H5        1.0  0.05312  0.36591  0.33453  1.0000
  C   C17       1.0  0.95153  0.69147  0.35190  1.0000
  C   C18       1.0  0.95946  0.70483  0.27232  1.0000
  C   C19       1.0  0.96506  0.73152  0.27411  1.0000
  H   H6        1.0  0.97201  0.73999  0.21572  1.0000
  H   H7        1.0  0.96252  0.69493  0.21263  1.0000
  C   C20       1.0  0.95095  0.66432  0.34859  1.0000
  H   H8        1.0  0.96736  0.65539  0.33304  1.0000
  C   C21       1.0  0.69121  0.06925  0.35248  1.0000
  C   C22       1.0  0.70445  0.06144  0.27275  1.0000
  C   C23       1.0  0.73098  0.05586  0.27443  1.0000
  H   H9        1.0  0.73936  0.04900  0.21588  1.0000
  H   H10       1.0  0.69458  0.05843  0.21301  1.0000
  C   C24       1.0  0.66419  0.06976  0.34922  1.0000
  H   H11       1.0  0.65520  0.05325  0.33367  1.0000
  C   C25       1.0  0.32953  0.95167  0.35259  1.0000
  C   C26       1.0  0.31655  0.96057  0.27375  1.0000
  C   C27       1.0  0.29006  0.96632  0.27545  1.0000
  H   H12       1.0  0.28187  0.97391  0.21768  1.0000
  H   H13       1.0  0.32659  0.96420  0.21479  1.0000
  C   C28       1.0  0.35656  0.95090  0.34987  1.0000
  H   H14       1.0  0.36571  0.96735  0.33459  1.0000
  C   C29       1.0  0.46034  0.77457  0.35594  1.0000
  C   C30       1.0  0.45844  0.78999  0.27546  1.0000
  C   C31       1.0  0.44814  0.81579  0.28015  1.0000
  N   N5        1.0  0.46676  0.77814  0.19308  1.0000
  N   N6        1.0  0.44501  0.83206  0.20278  1.0000
  O   O9        1.0  0.44901  0.77472  0.13592  1.0000
  O   O10       1.0  0.46586  0.83808  0.16446  1.0000
  O   O11       1.0  0.48577  0.78920  0.15672  1.0000
  O   O12       1.0  0.42906  0.82354  0.14556  1.0000
  C   C32       1.0  0.47237  0.75037  0.35577  1.0000
  H   H15       1.0  0.49143  0.75008  0.34774  1.0000
  C   C33       1.0  0.56007  0.24581  0.35205  1.0000
  C   C34       1.0  0.56260  0.23103  0.27046  1.0000
  C   C35       1.0  0.57273  0.20526  0.27329  1.0000
  N   N7        1.0  0.55505  0.24311  0.18752  1.0000
  N   N8        1.0  0.57515  0.19203  0.18874  1.0000
  O   O13       1.0  0.57362  0.24569  0.13297  1.0000
  O   O14       1.0  0.56108  0.17216  0.18494  1.0000
  O   O15       1.0  0.53693  0.23116  0.14869  1.0000
  O   O16       1.0  0.59808  0.18609  0.17068  1.0000
  C   C36       1.0  0.54808  0.27001  0.35289  1.0000
  H   H16       1.0  0.52890  0.27025  0.35032  1.0000
  C   C37       1.0  0.77479  0.56052  0.35776  1.0000
  C   C38       1.0  0.78851  0.56457  0.27473  1.0000
  C   C39       1.0  0.81439  0.57444  0.27603  1.0000
  N   N9        1.0  0.77537  0.55864  0.19213  1.0000
  N   N10       1.0  0.82664  0.57833  0.19037  1.0000
  O   O17       1.0  0.77257  0.57828  0.14234  1.0000
  O   O18       1.0  0.84624  0.56433  0.18099  1.0000
  O   O19       1.0  0.78644  0.54109  0.14750  1.0000
  O   O20       1.0  0.83263  0.60164  0.17665  1.0000
  C   C40       1.0  0.75048  0.54872  0.35990  1.0000
  H   H17       1.0  0.74990  0.52949  0.36450  1.0000
  C   C41       1.0  0.24591  0.45995  0.35079  1.0000
  C   C42       1.0  0.22954  0.46014  0.27252  1.0000
  C   C43       1.0  0.20360  0.45028  0.27837  1.0000
  N   N11       1.0  0.24064  0.46998  0.19080  1.0000
  N   N12       1.0  0.18647  0.44912  0.20281  1.0000
  O   O21       1.0  0.24279  0.45336  0.12866  1.0000
  O   O22       1.0  0.18073  0.47091  0.17086  1.0000
  O   O23       1.0  0.22987  0.49003  0.16128  1.0000
  O   O24       1.0  0.19376  0.43413  0.14049  1.0000
  C   C44       1.0  0.27038  0.47153  0.34999  1.0000
  H   H18       1.0  0.27121  0.49057  0.33945  1.0000
  C   C45       1.0  0.11611  0.11349  0.36771  1.0000
  C   C46       1.0  0.12049  0.10117  0.28299  1.0000
  C   C47       1.0  0.13075  0.07601  0.27911  1.0000
  H   H19       1.0  0.13265  0.06736  0.21649  1.0000
  H   H20       1.0  0.11556  0.11013  0.22307  1.0000
  C   C48       1.0  0.10495  0.13793  0.36786  1.0000
  H   H21       1.0  0.11618  0.15357  0.37041  1.0000
  C   C49       1.0  0.90483  0.90799  0.36732  1.0000
  C   C50       1.0  0.89791  0.91972  0.28368  1.0000
  C   C51       1.0  0.88766  0.94491  0.28143  1.0000
  H   H22       1.0  0.88406  0.95320  0.21918  1.0000
  H   H23       1.0  0.90112  0.91037  0.22302  1.0000
  C   C52       1.0  0.91591  0.88351  0.36525  1.0000
  H   H24       1.0  0.90462  0.86792  0.36120  1.0000
  C   C53       1.0  0.90744  0.11621  0.36818  1.0000
  C   C54       1.0  0.92027  0.11885  0.28355  1.0000
  C   C55       1.0  0.94559  0.12868  0.27913  1.0000
  H   H25       1.0  0.95454  0.12938  0.21678  1.0000
  H   H26       1.0  0.91156  0.11295  0.22423  1.0000
  C   C56       1.0  0.88287  0.10530  0.36919  1.0000
  H   H27       1.0  0.86756  0.11668  0.37559  1.0000
  C   C57       1.0  0.11326  0.90529  0.36854  1.0000
  C   C58       1.0  0.10051  0.90232  0.28388  1.0000
  C   C59       1.0  0.07521  0.89244  0.27962  1.0000
  H   H28       1.0  0.06632  0.89148  0.21721  1.0000
  H   H29       1.0  0.10929  0.90798  0.22439  1.0000
  C   C60       1.0  0.13784  0.91619  0.36932  1.0000
  H   H30       1.0  0.15316  0.90477  0.37454  1.0000
  C   C61       1.0  0.38371  0.56089  0.35078  1.0000
  C   C62       1.0  0.39266  0.57294  0.26912  1.0000
  C   C63       1.0  0.40320  0.59869  0.27223  1.0000
  N   N13       1.0  0.39063  0.55803  0.18781  1.0000
  N   N14       1.0  0.41272  0.61202  0.19425  1.0000
  O   O25       1.0  0.37572  0.56763  0.12945  1.0000
  O   O26       1.0  0.43195  0.60145  0.15808  1.0000
  O   O27       1.0  0.41196  0.55249  0.15246  1.0000
  O   O28       1.0  0.39574  0.61673  0.13552  1.0000
  C   C64       1.0  0.37833  0.53450  0.35371  1.0000
  H   H31       1.0  0.39356  0.52282  0.35245  1.0000
  C   C65       1.0  0.63692  0.45943  0.35803  1.0000
  C   C66       1.0  0.63271  0.44710  0.27234  1.0000
  C   C67       1.0  0.62215  0.42147  0.26875  1.0000
  N   N15       1.0  0.63871  0.46149  0.19229  1.0000
  N   N16       1.0  0.61774  0.41060  0.18101  1.0000
  O   O29       1.0  0.65577  0.45065  0.14491  1.0000
  O   O30       1.0  0.59419  0.40657  0.16585  1.0000
  O   O31       1.0  0.61914  0.46561  0.14376  1.0000
  O   O32       1.0  0.63012  0.39000  0.16882  1.0000
  C   C68       1.0  0.64272  0.48570  0.36468  1.0000
  H   H32       1.0  0.62820  0.49725  0.38217  1.0000
  C   C69       1.0  0.56182  0.63727  0.34776  1.0000
  C   C70       1.0  0.57365  0.62766  0.26683  1.0000
  C   C71       1.0  0.59930  0.61735  0.27035  1.0000
  N   N17       1.0  0.55864  0.62883  0.18574  1.0000
  N   N18       1.0  0.61238  0.60727  0.19298  1.0000
  O   O33       1.0  0.56805  0.64337  0.12548  1.0000
  O   O34       1.0  0.60181  0.58755  0.15911  1.0000
  O   O35       1.0  0.55304  0.60704  0.15296  1.0000
  O   O36       1.0  0.61696  0.62388  0.13241  1.0000
  C   C72       1.0  0.53552  0.64246  0.35075  1.0000
  H   H33       1.0  0.52389  0.62707  0.34827  1.0000
  C   C73       1.0  0.45869  0.38304  0.36101  1.0000
  C   C74       1.0  0.44611  0.38582  0.27519  1.0000
  C   C75       1.0  0.42054  0.39606  0.27078  1.0000
  N   N19       1.0  0.46020  0.37884  0.19572  1.0000
  N   N20       1.0  0.40946  0.39914  0.18279  1.0000
  O   O37       1.0  0.44933  0.36091  0.15190  1.0000
  O   O38       1.0  0.40519  0.42251  0.16401  1.0000
  O   O39       1.0  0.46409  0.39783  0.14360  1.0000
  O   O40       1.0  0.38904  0.38619  0.17336  1.0000
  C   C76       1.0  0.48485  0.37741  0.36795  1.0000
  H   H34       1.0  0.49629  0.39194  0.38750  1.0000
  C   C77       1.0  0.07848  0.44005  0.35840  1.0000
  N   N21       1.0  0.07397  0.41399  0.36098  1.0000
  C   C78       1.0  0.09354  0.39632  0.36233  1.0000
  N   N22       1.0  0.11820  0.40547  0.36140  1.0000
  C   C79       1.0  0.12378  0.43134  0.35885  1.0000
  N   N23       1.0  0.10361  0.44828  0.35679  1.0000
  N   N24       1.0  0.05804  0.45598  0.35778  1.0000
  N   N25       1.0  0.14807  0.44040  0.35506  1.0000
  N   N26       1.0  0.09001  0.37058  0.36429  1.0000
  C   C80       1.0  0.94219  0.58112  0.35711  1.0000
  N   N27       1.0  0.94661  0.60721  0.35801  1.0000
  C   C81       1.0  0.92698  0.62481  0.36039  1.0000
  N   N28       1.0  0.90236  0.61553  0.36146  1.0000
  C   C82       1.0  0.89687  0.58962  0.36009  1.0000
  N   N29       1.0  0.91710  0.57278  0.35759  1.0000
  N   N30       1.0  0.96264  0.56523  0.35404  1.0000
  N   N31       1.0  0.87264  0.58031  0.35841  1.0000
  N   N32       1.0  0.93044  0.65058  0.36201  1.0000
  C   C83       1.0  0.58144  0.07815  0.35737  1.0000
  N   N33       1.0  0.60740  0.07387  0.35922  1.0000
  C   C84       1.0  0.62500  0.09370  0.36059  1.0000
  N   N34       1.0  0.61586  0.11840  0.36028  1.0000
  C   C85       1.0  0.59008  0.12374  0.35833  1.0000
  N   N35       1.0  0.57325  0.10332  0.35654  1.0000
  N   N36       1.0  0.56549  0.05754  0.35652  1.0000
  N   N37       1.0  0.58080  0.14796  0.35570  1.0000
  N   N38       1.0  0.65063  0.09033  0.36242  1.0000
  C   C86       1.0  0.43924  0.94194  0.35709  1.0000
  N   N39       1.0  0.41331  0.94639  0.35874  1.0000
  C   C87       1.0  0.39559  0.92668  0.36126  1.0000
  N   N40       1.0  0.40458  0.90193  0.36175  1.0000
  C   C88       1.0  0.43032  0.89643  0.35971  1.0000
  N   N41       1.0  0.44728  0.91673  0.35684  1.0000
  N   N42       1.0  0.45532  0.96242  0.35420  1.0000
  N   N43       1.0  0.43939  0.87214  0.35678  1.0000
  N   N44       1.0  0.36997  0.93021  0.36291  1.0000
  N   N45       1.0  0.07083  0.18548  0.36764  1.0000
  C   C89       1.0  0.06416  0.15985  0.36726  1.0000
  N   N46       1.0  0.03877  0.15351  0.36774  1.0000
  C   C90       1.0  0.01983  0.17167  0.36827  1.0000
  N   N47       1.0  0.02711  0.19709  0.36909  1.0000
  N   N48       1.0  0.06031  0.22929  0.36796  1.0000
  N   N49       1.0  0.99490  0.16482  0.37050  1.0000
  N   N50       1.0  0.08026  0.13994  0.36653  1.0000
  N   N51       1.0  0.94995  0.83579  0.36699  1.0000
  C   C91       1.0  0.95665  0.86142  0.36734  1.0000
  N   N52       1.0  0.98203  0.86773  0.36818  1.0000
  C   C92       1.0  0.00097  0.84958  0.36806  1.0000
  N   N53       1.0  0.99367  0.82415  0.36808  1.0000
  N   N54       1.0  0.96042  0.79198  0.36649  1.0000
  N   N55       1.0  0.02591  0.85645  0.37041  1.0000
  N   N56       1.0  0.94058  0.88135  0.36793  1.0000
  N   N57       1.0  0.83490  0.07110  0.36637  1.0000
  C   C93       1.0  0.86036  0.06444  0.36599  1.0000
  N   N58       1.0  0.86647  0.03897  0.36620  1.0000
  C   C94       1.0  0.84831  0.01986  0.36664  1.0000
  N   N59       1.0  0.82304  0.02713  0.36730  1.0000
  N   N60       1.0  0.79122  0.06047  0.36650  1.0000
  N   N61       1.0  0.85506  0.99483  0.36866  1.0000
  N   N62       1.0  0.88036  0.08055  0.36503  1.0000
  N   N63       1.0  0.18585  0.95033  0.36735  1.0000
  C   C95       1.0  0.16040  0.95703  0.36706  1.0000
  N   N64       1.0  0.15433  0.98251  0.36745  1.0000
  C   C96       1.0  0.17253  0.00158  0.36789  1.0000
  N   N65       1.0  0.19779  0.99427  0.36860  1.0000
  N   N66       1.0  0.22955  0.96086  0.36738  1.0000
  N   N67       1.0  0.16576  0.02660  0.37013  1.0000
  N   N68       1.0  0.14036  0.94095  0.36611  1.0000
  C   C97       1.0  0.46786  0.70421  0.35913  1.0000
  N   N69       1.0  0.44966  0.68499  0.35760  1.0000
  C   C98       1.0  0.45645  0.65949  0.35459  1.0000
  N   N70       1.0  0.48186  0.65356  0.35276  1.0000
  C   C99       1.0  0.50076  0.67195  0.35478  1.0000
  N   N71       1.0  0.49333  0.69728  0.35767  1.0000
  N   N72       1.0  0.45972  0.72882  0.36087  1.0000
  N   N73       1.0  0.52577  0.66546  0.35355  1.0000
  N   N74       1.0  0.44038  0.63943  0.35075  1.0000
  C   C100      1.0  0.55265  0.31620  0.35328  1.0000
  N   N75       1.0  0.57081  0.33547  0.35397  1.0000
  C   C101      1.0  0.56399  0.36099  0.35358  1.0000
  N   N76       1.0  0.53857  0.36690  0.35257  1.0000
  C   C102      1.0  0.51973  0.34846  0.35222  1.0000
  N   N77       1.0  0.52716  0.32312  0.35199  1.0000
  N   N78       1.0  0.56078  0.29158  0.35390  1.0000
  N   N79       1.0  0.49477  0.35505  0.34982  1.0000
  N   N80       1.0  0.57997  0.38116  0.35371  1.0000
  C   C103      1.0  0.70460  0.55359  0.35429  1.0000
  N   N81       1.0  0.68564  0.57191  0.35342  1.0000
  C   C104      1.0  0.66016  0.56513  0.35147  1.0000
  N   N82       1.0  0.65398  0.53961  0.34965  1.0000
  C   C105      1.0  0.67209  0.52062  0.35114  1.0000
  N   N83       1.0  0.69739  0.52801  0.35270  1.0000
  N   N84       1.0  0.72924  0.56161  0.35470  1.0000
  N   N85       1.0  0.66525  0.49555  0.34869  1.0000
  N   N86       1.0  0.64028  0.58120  0.34805  1.0000
  C   C106      1.0  0.31617  0.46661  0.35713  1.0000
  N   N87       1.0  0.33515  0.44831  0.35752  1.0000
  C   C107      1.0  0.36062  0.45514  0.35697  1.0000
  N   N88       1.0  0.36676  0.48066  0.35632  1.0000
  C   C108      1.0  0.34863  0.49964  0.35596  1.0000
  N   N89       1.0  0.32334  0.49220  0.35634  1.0000
  N   N90       1.0  0.29153  0.45862  0.35820  1.0000
  N   N91       1.0  0.35533  0.52475  0.35497  1.0000
  N   N92       1.0  0.38061  0.43916  0.35729  1.0000
  C   C109      1.0  0.98789  0.52691  0.35712  1.0000
  C   C110      1.0  0.99781  0.51513  0.43701  1.0000
  C   C111      1.0  0.02007  0.49950  0.43454  1.0000
  H   H35       1.0  0.02684  0.49196  0.49459  1.0000
  H   H36       1.0  0.98892  0.51796  0.49865  1.0000
  C   C112      1.0  0.96451  0.54039  0.36300  1.0000
  H   H37       1.0  0.94868  0.53004  0.37578  1.0000
  C   C113      1.0  0.49391  0.98740  0.35685  1.0000
  C   C114      1.0  0.50477  0.99777  0.43774  1.0000
  C   C115      1.0  0.52066  0.02004  0.43600  1.0000
  H   H38       1.0  0.52754  0.02717  0.49662  1.0000
  H   H39       1.0  0.50108  0.98921  0.49952  1.0000
  C   C116      1.0  0.48010  0.96403  0.36218  1.0000
  H   H40       1.0  0.49018  0.94800  0.37358  1.0000
  C   C117      1.0  0.05756  0.27519  0.35747  1.0000
  C   C118      1.0  0.06650  0.28800  0.43781  1.0000
  C   C119      1.0  0.07218  0.31533  0.43597  1.0000
  N   N93       1.0  0.06813  0.27249  0.51768  1.0000
  N   N94       1.0  0.08014  0.32971  0.51377  1.0000
  O   O41       1.0  0.09058  0.27077  0.54922  1.0000
  O   O42       1.0  0.10154  0.32277  0.54524  1.0000
  O   O43       1.0  0.05255  0.27890  0.57922  1.0000
  O   O44       1.0  0.06349  0.33063  0.57596  1.0000
  C   C120      1.0  0.04698  0.25018  0.35827  1.0000
  H   H41       1.0  0.02803  0.24874  0.34827  1.0000
  C   C121      1.0  0.96298  0.74606  0.35557  1.0000
  C   C122      1.0  0.95441  0.73318  0.43628  1.0000
  C   C123      1.0  0.94866  0.70586  0.43441  1.0000
  N   N95       1.0  0.95324  0.74860  0.51646  1.0000
  N   N96       1.0  0.94110  0.69142  0.51255  1.0000
  O   O45       1.0  0.93097  0.75036  0.54950  1.0000
  O   O46       1.0  0.91989  0.69839  0.54562  1.0000
  O   O47       1.0  0.96913  0.74210  0.57688  1.0000
  O   O48       1.0  0.95808  0.69040  0.57356  1.0000
  C   C124      1.0  0.97365  0.77104  0.35616  1.0000
  H   H42       1.0  0.99258  0.77243  0.34574  1.0000
  C   C125      1.0  0.74548  0.05788  0.35593  1.0000
  C   C126      1.0  0.73270  0.06629  0.43681  1.0000
  C   C127      1.0  0.70555  0.07203  0.43505  1.0000
  N   N97       1.0  0.74807  0.06739  0.51700  1.0000
  N   N98       1.0  0.69122  0.07943  0.51335  1.0000
  O   O49       1.0  0.74996  0.08971  0.55045  1.0000
  O   O50       1.0  0.69829  0.10069  0.54697  1.0000
  O   O51       1.0  0.74148  0.05132  0.57713  1.0000
  O   O52       1.0  0.69007  0.06225  0.57391  1.0000
  C   C128      1.0  0.77026  0.04717  0.35624  1.0000
  H   H43       1.0  0.77148  0.02816  0.34569  1.0000
  C   C129      1.0  0.27532  0.96340  0.35606  1.0000
  C   C130      1.0  0.28780  0.95378  0.43587  1.0000
  C   C131      1.0  0.31492  0.94786  0.43409  1.0000
  N   N99       1.0  0.27220  0.95171  0.51524  1.0000
  N   N100      1.0  0.32896  0.93929  0.51155  1.0000
  O   O53       1.0  0.27004  0.92897  0.54481  1.0000
  O   O54       1.0  0.32164  0.91765  0.54124  1.0000
  O   O55       1.0  0.27872  0.96689  0.57824  1.0000
  O   O56       1.0  0.33004  0.95562  0.57501  1.0000
  C   C132      1.0  0.25053  0.97412  0.35697  1.0000
  H   H44       1.0  0.24931  0.99313  0.34632  1.0000
  C   C133      1.0  0.44008  0.82624  0.36558  1.0000
  C   C134      1.0  0.44186  0.81044  0.44427  1.0000
  C   C135      1.0  0.45205  0.78522  0.43978  1.0000
  H   H45       1.0  0.45351  0.77471  0.49891  1.0000
  H   H46       1.0  0.43585  0.81725  0.50641  1.0000
  C   C136      1.0  0.42796  0.85035  0.37360  1.0000
  H   H47       1.0  0.40961  0.85036  0.39357  1.0000
  C   C137      1.0  0.58006  0.19391  0.35838  1.0000
  C   C138      1.0  0.57764  0.20905  0.43848  1.0000
  C   C139      1.0  0.56754  0.23435  0.43559  1.0000
  H   H48       1.0  0.56563  0.24436  0.49561  1.0000
  H   H49       1.0  0.58320  0.20172  0.50043  1.0000
  C   C140      1.0  0.59249  0.16998  0.36462  1.0000
  H   H50       1.0  0.61139  0.17032  0.37646  1.0000
  C   C141      1.0  0.82689  0.57994  0.36086  1.0000
  C   C142      1.0  0.81283  0.57595  0.44250  1.0000
  C   C143      1.0  0.78744  0.56607  0.44107  1.0000
  H   H51       1.0  0.77820  0.56303  0.50200  1.0000
  H   H52       1.0  0.82101  0.58022  0.50443  1.0000
  C   C144      1.0  0.85090  0.59227  0.36606  1.0000
  H   H53       1.0  0.85083  0.61137  0.37538  1.0000
  C   C145      1.0  0.19391  0.44058  0.36290  1.0000
  C   C146      1.0  0.21064  0.44030  0.43929  1.0000
  C   C147      1.0  0.23603  0.45001  0.43366  1.0000
  H   H54       1.0  0.24720  0.44995  0.49137  1.0000
  H   H55       1.0  0.20440  0.43309  0.50065  1.0000
  C   C148      1.0  0.16962  0.42877  0.37155  1.0000
  H   H56       1.0  0.16924  0.41037  0.39192  1.0000
  C   C149      1.0  0.13753  0.06253  0.35960  1.0000
  C   C150      1.0  0.13338  0.07467  0.44560  1.0000
  C   C151      1.0  0.12272  0.10017  0.44984  1.0000
  N   N101      1.0  0.13949  0.06024  0.52530  1.0000
  N   N102      1.0  0.11835  0.11084  0.53786  1.0000
  O   O57       1.0  0.15655  0.07123  0.57270  1.0000
  O   O58       1.0  0.09479  0.11450  0.55341  1.0000
  O   O59       1.0  0.11998  0.05579  0.57396  1.0000
  O   O60       1.0  0.13064  0.13159  0.55027  1.0000
  C   C152      1.0  0.14338  0.03633  0.35232  1.0000
  H   H57       1.0  0.12896  0.02471  0.33334  1.0000
  C   C153      1.0  0.88337  0.95894  0.36285  1.0000
  C   C154      1.0  0.88997  0.94737  0.44785  1.0000
  C   C155      1.0  0.90065  0.92188  0.45031  1.0000
  N   N103      1.0  0.88609  0.96232  0.52818  1.0000
  N   N104      1.0  0.90732  0.91174  0.53730  1.0000
  O   O61       1.0  0.87040  0.95169  0.58208  1.0000
  O   O62       1.0  0.93121  0.90845  0.54590  1.0000
  O   O63       1.0  0.90685  0.96702  0.56951  1.0000
  O   O64       1.0  0.89562  0.89096  0.55505  1.0000
  C   C156      1.0  0.87774  0.98517  0.35615  1.0000
  H   H58       1.0  0.89261  0.99685  0.34278  1.0000
  C   C157      1.0  0.95876  0.13672  0.35888  1.0000
  C   C158      1.0  0.94613  0.13428  0.44477  1.0000
  C   C159      1.0  0.92047  0.12406  0.44959  1.0000
  N   N105      1.0  0.96025  0.14158  0.52395  1.0000
  N   N106      1.0  0.90933  0.12131  0.53768  1.0000
  O   O65       1.0  0.94951  0.15968  0.56682  1.0000
  O   O66       1.0  0.90487  0.09800  0.55757  1.0000
  O   O67       1.0  0.96395  0.12280  0.57702  1.0000
  O   O68       1.0  0.88901  0.13427  0.54639  1.0000
  C   C160      1.0  0.98494  0.14245  0.35166  1.0000
  H   H59       1.0  0.99633  0.12804  0.33150  1.0000
  C   C161      1.0  0.06198  0.88470  0.35959  1.0000
  C   C162      1.0  0.07453  0.88745  0.44552  1.0000
  C   C163      1.0  0.10018  0.89772  0.45016  1.0000
  N   N107      1.0  0.06036  0.88040  0.52486  1.0000
  N   N108      1.0  0.11125  0.90077  0.53822  1.0000
  O   O69       1.0  0.07108  0.86247  0.56860  1.0000
  O   O70       1.0  0.11565  0.92415  0.55724  1.0000
  O   O71       1.0  0.05660  0.89936  0.57709  1.0000
  O   O72       1.0  0.13159  0.88789  0.54762  1.0000
  C   C164      1.0  0.03581  0.87891  0.35248  1.0000
  H   H60       1.0  0.02439  0.89336  0.33308  1.0000
  C   C165      1.0  0.40483  0.61211  0.35712  1.0000
  C   C166      1.0  0.39541  0.59994  0.43697  1.0000
  C   C167      1.0  0.38529  0.57462  0.43404  1.0000
  H   H61       1.0  0.37991  0.56597  0.49413  1.0000
  H   H62       1.0  0.39676  0.60902  0.49902  1.0000
  C   C168      1.0  0.41606  0.63661  0.36511  1.0000
  H   H63       1.0  0.40544  0.65147  0.38602  1.0000
  C   C169      1.0  0.61568  0.40818  0.35124  1.0000
  C   C170      1.0  0.62012  0.42069  0.43564  1.0000
  C   C171      1.0  0.63030  0.44599  0.43889  1.0000
  H   H64       1.0  0.63221  0.45477  0.50130  1.0000
  H   H65       1.0  0.61527  0.41178  0.49580  1.0000
  C   C172      1.0  0.60465  0.38358  0.35174  1.0000
  H   H66       1.0  0.61597  0.36810  0.34907  1.0000
  C   C173      1.0  0.61286  0.61656  0.35496  1.0000
  C   C174      1.0  0.60091  0.62665  0.43403  1.0000
  C   C175      1.0  0.57569  0.63656  0.43073  1.0000
  H   H67       1.0  0.56721  0.64237  0.49047  1.0000
  H   H68       1.0  0.61007  0.62587  0.49598  1.0000
  C   C176      1.0  0.63729  0.60554  0.36345  1.0000
  H   H69       1.0  0.65200  0.61631  0.38527  1.0000
  C   C177      1.0  0.40756  0.40360  0.35251  1.0000
  C   C178      1.0  0.42034  0.40060  0.43705  1.0000
  C   C179      1.0  0.44556  0.39073  0.44109  1.0000
  H   H70       1.0  0.45448  0.38978  0.50343  1.0000
  H   H71       1.0  0.41164  0.40622  0.49663  1.0000
  C   C180      1.0  0.38304  0.41443  0.35200  1.0000
  H   H72       1.0  0.36768  0.40300  0.34503  1.0000
