data_image0
_chemical_formula_structural       C2NCH3C6H2CHC2HC2OHCNCHC2NCHCHC6NOHC4NC2NHOHC4NC2NHOHOC2H2OC2H2OC2H2OC2H2OC6H3C6H3C6H3C6H3C6H3CHC2H2C2H2CNHC4NC2NH2CNCHC4NC2NH2C4NC2NH2C4NC2NH2
_chemical_formula_sum              "C108 N18 H54 O9"
_cell_length_a       30.5341
_cell_length_b       30.534
_cell_length_c       14.706
_cell_angle_alpha    90
_cell_angle_beta     90
_cell_angle_gamma    120

_space_group_name_H-M_alt    "P 1"
_space_group_IT_number       1

loop_
  _space_group_symop_operation_xyz
  'x, y, z'

loop_
  _atom_site_type_symbol
  _atom_site_label
  _atom_site_symmetry_multiplicity
  _atom_site_fract_x
  _atom_site_fract_y
  _atom_site_fract_z
  _atom_site_occupancy
  C   C1        1.0  0.04205  0.52328  0.24844  1.0000
  C   C2        1.0  0.06937  0.53720  0.33132  1.0000
  N   N1        1.0  0.06728  0.53574  0.16788  1.0000
  C   C3        1.0  0.04376  0.52376  0.08621  1.0000
  H   H1        1.0  0.06456  0.53405  0.02761  1.0000
  H   H2        1.0  0.23254  0.52246  0.22976  1.0000
  H   H3        1.0  0.23227  0.71455  0.23006  1.0000
  C   C4        1.0  0.20348  0.56399  0.35673  1.0000
  C   C5        1.0  0.22844  0.61716  0.36557  1.0000
  C   C6        1.0  0.20314  0.64505  0.35722  1.0000
  C   C7        1.0  0.15041  0.61805  0.34069  1.0000
  C   C8        1.0  0.12350  0.56441  0.33469  1.0000
  C   C9        1.0  0.15080  0.53802  0.33956  1.0000
  H   H4        1.0  0.13105  0.63741  0.33854  1.0000
  H   H5        1.0  0.13167  0.49930  0.33699  1.0000
  C   C10       1.0  0.04137  0.52343  0.41317  1.0000
  H   H6        1.0  0.05976  0.53282  0.47454  1.0000
  C   C11       1.0  0.23292  0.54026  0.36903  1.0000
  C   C12       1.0  0.23220  0.69817  0.37028  1.0000
  H   H7        1.0  0.21457  0.65968  0.53636  1.0000
  C   C13       1.0  0.24960  0.52543  0.29130  1.0000
  C   C14       1.0  0.24950  0.72888  0.29141  1.0000
  O   O1        1.0  0.25965  0.68061  0.02046  1.0000
  H   H8        1.0  0.26686  0.63649  0.37598  1.0000
  C   C15       1.0  0.26184  0.55024  0.44982  1.0000
  N   N2        1.0  0.24691  0.56355  0.52726  1.0000
  C   C16       1.0  0.27311  0.57530  0.60614  1.0000
  H   H9        1.0  0.25987  0.58471  0.66231  1.0000
  C   C17       1.0  0.26119  0.71728  0.45145  1.0000
  C   C18       1.0  0.27541  0.70738  0.60887  1.0000
  N   N3        1.0  0.24687  0.69105  0.53204  1.0000
  C   C19       1.0  0.29575  0.52518  0.29188  1.0000
  H   H10       1.0  0.30987  0.52177  0.23066  1.0000
  C   C20       1.0  0.29602  0.77493  0.29060  1.0000
  H   H11       1.0  0.31012  0.79171  0.22886  1.0000
  C   C21       1.0  0.30801  0.54937  0.45159  1.0000
  C   C22       1.0  0.31838  0.57408  0.60874  1.0000
  C   C23       1.0  0.30821  0.76348  0.44951  1.0000
  C   C24       1.0  0.96043  0.48263  0.33018  1.0000
  C   C25       1.0  0.98789  0.49615  0.24689  1.0000
  C   C26       1.0  0.99072  0.49718  0.08397  1.0000
  N   N4        1.0  0.96455  0.48426  0.16361  1.0000
  O   O2        1.0  0.96621  0.48472  0.00322  1.0000
  H   H12       1.0  0.92780  0.46584  0.15959  1.0000
  C   C27       1.0  0.54231  0.48277  0.33019  1.0000
  C   C28       1.0  0.52860  0.49652  0.24689  1.0000
  C   C29       1.0  0.50143  0.52351  0.24846  1.0000
  C   C30       1.0  0.48767  0.53706  0.33134  1.0000
  N   N5        1.0  0.48882  0.53613  0.16790  1.0000
  C   C31       1.0  0.50068  0.52447  0.08622  1.0000
  C   C32       1.0  0.52729  0.49804  0.08397  1.0000
  N   N6        1.0  0.54037  0.48495  0.16362  1.0000
  H   H13       1.0  0.49028  0.53487  0.02762  1.0000
  O   O3        1.0  0.53964  0.48588  0.00322  1.0000
  H   H14       1.0  0.55881  0.46664  0.15959  1.0000
  C   C33       1.0  0.54231  0.06452  0.33029  1.0000
  C   C34       1.0  0.52848  0.03706  0.24698  1.0000
  C   C35       1.0  0.50145  0.98291  0.24853  1.0000
  C   C36       1.0  0.48794  0.95559  0.33142  1.0000
  N   N7        1.0  0.48876  0.95768  0.16797  1.0000
  C   C37       1.0  0.50038  0.98120  0.08630  1.0000
  C   C38       1.0  0.52685  0.03424  0.08406  1.0000
  N   N8        1.0  0.54001  0.06040  0.16371  1.0000
  H   H15       1.0  0.48993  0.96040  0.02770  1.0000
  O   O4        1.0  0.53897  0.05875  0.00331  1.0000
  H   H16       1.0  0.55835  0.09716  0.15968  1.0000
  O   O5        1.0  0.34534  0.58533  0.02014  1.0000
  C   C39       1.0  0.49887  0.72886  0.29061  1.0000
  C   C40       1.0  0.49945  0.77543  0.29111  1.0000
  H   H17       1.0  0.50245  0.79266  0.22972  1.0000
  H   H18       1.0  0.50182  0.71473  0.22908  1.0000
  O   O6        1.0  0.44041  0.76543  0.01997  1.0000
  C   C41       1.0  0.78009  0.49405  0.29175  1.0000
  C   C42       1.0  0.73403  0.49450  0.29225  1.0000
  H   H19       1.0  0.71980  0.49749  0.23085  1.0000
  H   H20       1.0  0.79701  0.49682  0.23012  1.0000
  O   O7        1.0  0.68486  0.43539  0.02105  1.0000
  C   C43       1.0  0.53095  0.29102  0.29141  1.0000
  C   C44       1.0  0.53055  0.24453  0.29211  1.0000
  H   H21       1.0  0.52755  0.22727  0.23075  1.0000
  H   H22       1.0  0.52816  0.30511  0.22974  1.0000
  O   O8        1.0  0.58964  0.25472  0.02086  1.0000
  C   C45       1.0  0.73413  0.24491  0.29180  1.0000
  C   C46       1.0  0.78066  0.29096  0.29252  1.0000
  H   H23       1.0  0.79799  0.30532  0.23126  1.0000
  H   H24       1.0  0.72006  0.22802  0.23012  1.0000
  O   O9        1.0  0.77002  0.33992  0.02125  1.0000
  C   C47       1.0  0.46099  0.64447  0.35631  1.0000
  C   C48       1.0  0.40784  0.61633  0.36524  1.0000
  C   C49       1.0  0.37990  0.56311  0.35723  1.0000
  C   C50       1.0  0.40683  0.53733  0.34051  1.0000
  C   C51       1.0  0.46049  0.56401  0.33468  1.0000
  C   C52       1.0  0.48694  0.61770  0.33953  1.0000
  H   H25       1.0  0.38745  0.49861  0.33867  1.0000
  H   H26       1.0  0.52565  0.63725  0.33703  1.0000
  H   H27       1.0  0.38856  0.63547  0.37560  1.0000
  C   C53       1.0  0.38047  0.82149  0.35602  1.0000
  C   C54       1.0  0.40859  0.79645  0.36487  1.0000
  C   C55       1.0  0.46180  0.82171  0.35675  1.0000
  C   C56       1.0  0.48761  0.87446  0.34035  1.0000
  C   C57       1.0  0.46095  0.90146  0.33471  1.0000
  C   C58       1.0  0.40726  0.87423  0.33953  1.0000
  H   H28       1.0  0.52634  0.89379  0.33850  1.0000
  H   H29       1.0  0.38773  0.89341  0.33716  1.0000
  H   H30       1.0  0.38944  0.75802  0.37514  1.0000
  C   C59       1.0  0.82642  0.45597  0.35726  1.0000
  C   C60       1.0  0.80149  0.40284  0.36668  1.0000
  C   C61       1.0  0.82671  0.37489  0.35803  1.0000
  C   C62       1.0  0.87936  0.40181  0.34063  1.0000
  C   C63       1.0  0.90631  0.45546  0.33454  1.0000
  C   C64       1.0  0.87907  0.48190  0.33981  1.0000
  H   H31       1.0  0.89868  0.38242  0.33822  1.0000
  H   H32       1.0  0.89818  0.52060  0.33682  1.0000
  H   H33       1.0  0.76310  0.38356  0.37743  1.0000
  C   C65       1.0  0.56904  0.37545  0.35684  1.0000
  C   C66       1.0  0.62218  0.40365  0.36608  1.0000
  C   C67       1.0  0.65012  0.45684  0.35757  1.0000
  C   C68       1.0  0.62316  0.48257  0.34058  1.0000
  C   C69       1.0  0.56951  0.45585  0.33452  1.0000
  C   C70       1.0  0.54309  0.40217  0.33962  1.0000
  H   H34       1.0  0.64254  0.52129  0.33831  1.0000
  H   H35       1.0  0.50438  0.38257  0.33671  1.0000
  H   H36       1.0  0.64148  0.38455  0.37670  1.0000
  C   C71       1.0  0.64965  0.19857  0.35705  1.0000
  C   C72       1.0  0.62144  0.22351  0.36614  1.0000
  C   C73       1.0  0.56827  0.19827  0.35754  1.0000
  C   C74       1.0  0.54253  0.14557  0.34060  1.0000
  C   C75       1.0  0.56925  0.11864  0.33462  1.0000
  C   C76       1.0  0.62293  0.14589  0.33986  1.0000
  H   H37       1.0  0.50382  0.12624  0.33813  1.0000
  H   H38       1.0  0.64252  0.12678  0.33702  1.0000
  H   H39       1.0  0.64055  0.26192  0.37677  1.0000
  C   C77       1.0  0.98807  0.49671  0.41257  1.0000
  H   H40       1.0  0.96937  0.48752  0.47362  1.0000
  C   C78       1.0  0.50164  0.52303  0.41319  1.0000
  C   C79       1.0  0.52839  0.49649  0.41258  1.0000
  H   H41       1.0  0.53773  0.48713  0.47363  1.0000
  H   H42       1.0  0.49236  0.53215  0.47456  1.0000
  C   C80       1.0  0.50205  0.98357  0.41327  1.0000
  C   C81       1.0  0.52864  0.03688  0.41267  1.0000
  H   H43       1.0  0.53805  0.05557  0.47372  1.0000
  H   H44       1.0  0.49296  0.96518  0.47464  1.0000
  C   C82       1.0  0.32677  0.53910  0.37035  1.0000
  N   N9        1.0  0.33446  0.56154  0.53198  1.0000
  H   H45       1.0  0.36579  0.56054  0.53622  1.0000
  C   C83       1.0  0.48585  0.79262  0.36982  1.0000
  C   C84       1.0  0.47583  0.76378  0.45119  1.0000
  C   C85       1.0  0.47509  0.71679  0.44948  1.0000
  C   C86       1.0  0.48478  0.69762  0.36871  1.0000
  N   N10       1.0  0.46205  0.68869  0.52707  1.0000
  C   C87       1.0  0.45049  0.70325  0.60603  1.0000
  C   C88       1.0  0.45155  0.74966  0.60854  1.0000
  N   N11       1.0  0.46381  0.77815  0.53163  1.0000
  H   H46       1.0  0.44129  0.68071  0.66232  1.0000
  H   H47       1.0  0.46471  0.81044  0.53580  1.0000
  C   C89       1.0  0.32733  0.79218  0.36858  1.0000
  N   N12       1.0  0.33639  0.77865  0.52700  1.0000
  C   C90       1.0  0.32186  0.75267  0.60612  1.0000
  H   H48       1.0  0.34446  0.76608  0.66232  1.0000
  C   C91       1.0  0.70324  0.48093  0.37100  1.0000
  C   C92       1.0  0.72205  0.47092  0.45235  1.0000
  C   C93       1.0  0.76825  0.47009  0.45065  1.0000
  C   C94       1.0  0.79706  0.47977  0.36986  1.0000
  N   N13       1.0  0.78325  0.45696  0.52821  1.0000
  C   C95       1.0  0.75710  0.44538  0.60714  1.0000
  C   C96       1.0  0.71180  0.44654  0.60964  1.0000
  N   N14       1.0  0.69565  0.45890  0.53276  1.0000
  H   H49       1.0  0.77039  0.43610  0.66340  1.0000
  H   H50       1.0  0.66426  0.45982  0.53688  1.0000
  C   C97       1.0  0.54421  0.22731  0.37083  1.0000
  C   C98       1.0  0.55416  0.25627  0.45207  1.0000
  C   C99       1.0  0.55495  0.30327  0.45031  1.0000
  C   C100      1.0  0.54524  0.32229  0.36942  1.0000
  N   N15       1.0  0.56805  0.33145  0.52782  1.0000
  C   C101      1.0  0.57962  0.31692  0.60681  1.0000
  C   C102      1.0  0.57850  0.27048  0.60940  1.0000
  N   N16       1.0  0.56618  0.24194  0.53255  1.0000
  H   H51       1.0  0.58887  0.33950  0.66304  1.0000
  H   H52       1.0  0.56528  0.20966  0.53676  1.0000
  C   C103      1.0  0.79765  0.32176  0.37133  1.0000
  C   C104      1.0  0.76870  0.30288  0.45256  1.0000
  C   C105      1.0  0.72173  0.25665  0.45069  1.0000
  C   C106      1.0  0.70280  0.22793  0.36976  1.0000
  N   N17       1.0  0.69348  0.24157  0.52812  1.0000
  C   C107      1.0  0.70793  0.26769  0.60710  1.0000
  C   C108      1.0  0.75436  0.31302  0.60979  1.0000
  N   N18       1.0  0.78296  0.32925  0.53302  1.0000
  H   H53       1.0  0.68530  0.25434  0.66327  1.0000
  H   H54       1.0  0.81525  0.36063  0.53728  1.0000
