data_image0
_chemical_formula_structural       C4NC4NH4N2C4NC4NH4N2C4NC4NH4N2CN2CHCN2CHCN2CHCN2CHCN2CHCN2CHC2HC2H3N2C2HC2H3N2C2HC2H3N2C3NH3CHC3NH3CHC3NH3CHC3NH3CHC3NH3CHC3NH3CH
_chemical_formula_sum              "C72 N36 H54"
_cell_length_a       31.4385
_cell_length_b       31.4385
_cell_length_c       14.986
_cell_angle_alpha    90
_cell_angle_beta     90
_cell_angle_gamma    120

_space_group_name_H-M_alt    "P 1"
_space_group_IT_number       1

loop_
  _space_group_symop_operation_xyz
  'x, y, z'

loop_
  _atom_site_type_symbol
  _atom_site_label
  _atom_site_symmetry_multiplicity
  _atom_site_fract_x
  _atom_site_fract_y
  _atom_site_fract_z
  _atom_site_occupancy
  C   C1        1.0  0.97813  0.48906  0.34669  1.0000
  C   C2        1.0  0.87246  0.43268  0.36356  1.0000
  C   C3        1.0  0.89990  0.40821  0.35171  1.0000
  C   C4        1.0  0.95177  0.43661  0.34914  1.0000
  N   N1        1.0  0.82463  0.40798  0.39160  1.0000
  C   C5        1.0  0.03060  0.51781  0.33568  1.0000
  C   C6        1.0  0.05699  0.56962  0.34915  1.0000
  C   C7        1.0  0.10673  0.60011  0.32517  1.0000
  C   C8        1.0  0.13453  0.57826  0.29581  1.0000
  N   N2        1.0  0.18431  0.60539  0.28428  1.0000
  H   H1        1.0  0.20327  0.63870  0.30590  1.0000
  H   H2        1.0  0.81091  0.37535  0.41705  1.0000
  H   H3        1.0  0.97004  0.41752  0.34568  1.0000
  H   H4        1.0  0.03957  0.58681  0.37527  1.0000
  N   N3        1.0  0.12464  0.64909  0.33711  1.0000
  N   N4        1.0  0.87922  0.35878  0.33743  1.0000
  C   C9        1.0  0.51190  0.48520  0.36572  1.0000
  C   C10       1.0  0.56338  0.43061  0.36577  1.0000
  C   C11       1.0  0.59002  0.48267  0.35580  1.0000
  C   C12       1.0  0.56413  0.50865  0.36003  1.0000
  N   N5        1.0  0.58624  0.40470  0.38767  1.0000
  C   C13       1.0  0.48616  0.51225  0.36856  1.0000
  C   C14       1.0  0.43482  0.48975  0.35054  1.0000
  C   C15       1.0  0.40874  0.51551  0.35211  1.0000
  C   C16       1.0  0.43321  0.56505  0.38252  1.0000
  N   N6        1.0  0.40743  0.58720  0.40950  1.0000
  H   H5        1.0  0.37245  0.56775  0.42086  1.0000
  H   H6        1.0  0.61931  0.42170  0.41166  1.0000
  H   H7        1.0  0.58444  0.54571  0.35081  1.0000
  H   H8        1.0  0.41607  0.45468  0.32674  1.0000
  N   N7        1.0  0.36158  0.49094  0.32115  1.0000
  N   N8        1.0  0.63939  0.50995  0.34012  1.0000
  C   C17       1.0  0.51580  0.02661  0.35396  1.0000
  C   C18       1.0  0.57282  0.13217  0.33471  1.0000
  C   C19       1.0  0.52052  0.10786  0.33428  1.0000
  C   C20       1.0  0.49375  0.05660  0.34794  1.0000
  N   N9        1.0  0.60054  0.18176  0.34794  1.0000
  C   C21       1.0  0.48715  0.97498  0.37336  1.0000
  C   C22       1.0  0.50834  0.94699  0.40456  1.0000
  C   C23       1.0  0.47978  0.89741  0.43078  1.0000
  C   C24       1.0  0.42807  0.87679  0.44221  1.0000
  N   N10       1.0  0.40236  0.83390  0.48828  1.0000
  H   H9        1.0  0.41911  0.82227  0.52721  1.0000
  H   H10       1.0  0.58579  0.19992  0.37234  1.0000
  H   H11       1.0  0.45675  0.04155  0.35592  1.0000
  H   H12       1.0  0.54552  0.96172  0.40546  1.0000
  N   N11       1.0  0.50405  0.87148  0.42982  1.0000
  N   N12       1.0  0.49295  0.12995  0.32345  1.0000
  C   C25       1.0  0.28425  0.48816  0.27551  1.0000
  N   N13       1.0  0.27025  0.52073  0.24950  1.0000
  N   N14       1.0  0.22510  0.51136  0.24744  1.0000
  C   C26       1.0  0.33560  0.51029  0.28458  1.0000
  H   H13       1.0  0.35573  0.54653  0.26624  1.0000
  C   C27       1.0  0.50964  0.79519  0.42130  1.0000
  N   N15       1.0  0.47859  0.74666  0.40615  1.0000
  N   N16       1.0  0.49144  0.71340  0.40683  1.0000
  C   C28       1.0  0.48534  0.82258  0.41814  1.0000
  H   H14       1.0  0.44925  0.80333  0.39902  1.0000
  C   C29       1.0  0.19056  0.73493  0.33881  1.0000
  N   N17       1.0  0.23005  0.76727  0.28966  1.0000
  N   N18       1.0  0.26775  0.80674  0.32165  1.0000
  C   C30       1.0  0.16088  0.68932  0.29653  1.0000
  H   H15       1.0  0.17222  0.68403  0.23549  1.0000
  C   C31       1.0  0.72087  0.51784  0.31316  1.0000
  N   N19       1.0  0.73775  0.48660  0.29461  1.0000
  N   N20       1.0  0.78283  0.49694  0.30590  1.0000
  C   C32       1.0  0.66941  0.49481  0.30552  1.0000
  H   H16       1.0  0.65233  0.46062  0.27689  1.0000
  C   C33       1.0  0.48051  0.20055  0.30167  1.0000
  N   N21       1.0  0.50932  0.24900  0.28257  1.0000
  N   N22       1.0  0.49760  0.28226  0.30028  1.0000
  C   C34       1.0  0.50497  0.17394  0.28717  1.0000
  H   H17       1.0  0.53763  0.19168  0.25341  1.0000
  C   C35       1.0  0.80588  0.27638  0.30785  1.0000
  N   N23       1.0  0.75863  0.25903  0.28187  1.0000
  N   N24       1.0  0.72397  0.21355  0.28857  1.0000
  C   C36       1.0  0.83394  0.32805  0.30348  1.0000
  H   H18       1.0  0.81676  0.34499  0.27447  1.0000
  C   C37       1.0  0.94846  0.51158  0.34776  1.0000
  C   C38       1.0  0.89701  0.48445  0.35518  1.0000
  H   H19       1.0  0.96329  0.54833  0.33724  1.0000
  C   C39       1.0  0.11049  0.52612  0.29079  1.0000
  C   C40       1.0  0.05988  0.49713  0.30931  1.0000
  H   H20       1.0  0.04478  0.46027  0.30041  1.0000
  H   H21       1.0  0.20364  0.59060  0.26621  1.0000
  H   H22       1.0  0.80702  0.42510  0.40642  1.0000
  N   N25       1.0  0.13870  0.50540  0.27760  1.0000
  N   N26       1.0  0.86917  0.50599  0.35054  1.0000
  C   C41       1.0  0.48662  0.43291  0.36623  1.0000
  C   C42       1.0  0.51140  0.40611  0.36394  1.0000
  H   H23       1.0  0.44933  0.41278  0.37122  1.0000
  C   C43       1.0  0.48491  0.58961  0.39333  1.0000
  C   C44       1.0  0.51041  0.56355  0.38703  1.0000
  H   H24       1.0  0.54700  0.58284  0.40113  1.0000
  H   H25       1.0  0.42369  0.61900  0.43861  1.0000
  H   H26       1.0  0.56766  0.36990  0.40159  1.0000
  N   N27       1.0  0.50869  0.63859  0.40690  1.0000
  N   N28       1.0  0.48674  0.35670  0.35814  1.0000
  C   C45       1.0  0.56785  0.05185  0.34436  1.0000
  C   C46       1.0  0.59595  0.10324  0.33440  1.0000
  H   H27       1.0  0.58667  0.03325  0.34371  1.0000
  C   C47       1.0  0.40529  0.90137  0.40182  1.0000
  C   C48       1.0  0.43517  0.94801  0.36307  1.0000
  H   H28       1.0  0.41754  0.96357  0.33147  1.0000
  H   H29       1.0  0.36706  0.81578  0.49178  1.0000
  H   H30       1.0  0.63594  0.19823  0.35444  1.0000
  N   N29       1.0  0.35609  0.88251  0.39153  1.0000
  N   N30       1.0  0.64549  0.12675  0.32975  1.0000
  C   C49       1.0  0.18635  0.46734  0.27082  1.0000
  C   C50       1.0  0.19679  0.43007  0.29486  1.0000
  C   C51       1.0  0.24617  0.43999  0.29891  1.0000
  N   N31       1.0  0.25456  0.40350  0.32550  1.0000
  H   H31       1.0  0.22754  0.37098  0.34031  1.0000
  H   H32       1.0  0.28715  0.40750  0.32567  1.0000
  H   H33       1.0  0.16858  0.39648  0.31416  1.0000
  C   C52       1.0  0.13962  0.46296  0.27622  1.0000
  H   H34       1.0  0.10959  0.43109  0.29677  1.0000
  C   C53       1.0  0.53790  0.72333  0.42291  1.0000
  C   C54       1.0  0.57333  0.77298  0.43866  1.0000
  C   C55       1.0  0.55981  0.81000  0.43858  1.0000
  N   N32       1.0  0.59511  0.85726  0.45430  1.0000
  H   H35       1.0  0.62902  0.86595  0.46538  1.0000
  H   H36       1.0  0.58812  0.88393  0.45423  1.0000
  H   H37       1.0  0.60895  0.78209  0.45071  1.0000
  C   C56       1.0  0.54713  0.68391  0.42157  1.0000
  H   H38       1.0  0.58169  0.68911  0.42950  1.0000
  C   C57       1.0  0.27154  0.81891  0.40921  1.0000
  C   C58       1.0  0.23139  0.78876  0.46486  1.0000
  C   C59       1.0  0.18925  0.74693  0.43022  1.0000
  N   N33       1.0  0.15109  0.72024  0.48664  1.0000
  H   H39       1.0  0.15180  0.73089  0.54790  1.0000
  H   H40       1.0  0.11945  0.69520  0.46454  1.0000
  H   H41       1.0  0.23326  0.79677  0.53151  1.0000
  C   C60       1.0  0.31704  0.85445  0.44425  1.0000
  H   H42       1.0  0.32262  0.85477  0.51161  1.0000
  C   C61       1.0  0.81871  0.54090  0.33673  1.0000
  C   C62       1.0  0.80541  0.57683  0.35448  1.0000
  C   C63       1.0  0.75575  0.56550  0.34519  1.0000
  N   N34       1.0  0.74408  0.60055  0.36547  1.0000
  H   H43       1.0  0.76907  0.63307  0.38532  1.0000
  H   H44       1.0  0.71153  0.59567  0.35514  1.0000
  H   H45       1.0  0.83148  0.61049  0.37796  1.0000
  C   C64       1.0  0.86584  0.54708  0.34896  1.0000
  H   H46       1.0  0.89559  0.58039  0.36417  1.0000
  C   C65       1.0  0.45459  0.27206  0.33919  1.0000
  C   C66       1.0  0.42095  0.22225  0.35775  1.0000
  C   C67       1.0  0.43383  0.18553  0.34130  1.0000
  N   N35       1.0  0.40084  0.13812  0.36188  1.0000
  H   H47       1.0  0.36892  0.12915  0.38717  1.0000
  H   H48       1.0  0.40635  0.11135  0.34643  1.0000
  H   H49       1.0  0.38802  0.21308  0.38696  1.0000
  C   C68       1.0  0.44686  0.31146  0.35833  1.0000
  H   H50       1.0  0.41380  0.30621  0.38021  1.0000
  C   C69       1.0  0.73121  0.17761  0.32193  1.0000
  C   C70       1.0  0.77976  0.19136  0.34684  1.0000
  C   C71       1.0  0.81795  0.24136  0.34192  1.0000
  N   N36       1.0  0.86378  0.25337  0.36948  1.0000
  H   H51       1.0  0.87089  0.22839  0.39114  1.0000
  H   H52       1.0  0.89140  0.28638  0.36370  1.0000
  H   H53       1.0  0.78676  0.16535  0.37275  1.0000
  C   C72       1.0  0.69005  0.13033  0.33211  1.0000
  H   H54       1.0  0.69332  0.10134  0.35410  1.0000
