data_image0
_chemical_formula_structural       C4NC2HNHNC2HNHNC2HNHC5H3C2O3C5H3C2O3CNC3H3ONHCNC3H3ONHCNC3H3ONHC4NC2HNHNC2HNHNC2HNHC5H3C2O3C5H3C2O3CNC3H3ONHCNC3H3ONHCNC3H3ONHC4NC2HNHNC2HNHNC2HNHC5H3C2O3C5H3C2O3CNC3H3ONHCNC3H3ONHCNC3H3ONHC4NC2HNHNC2HNHNC2HNHC5H3C2O3C5H3C2O3CNC3H3ONHCNC3H3ONHCNC3H3ONH
_chemical_formula_sum              "C144 N48 H96 O36"
_cell_length_a       43.6686
_cell_length_b       43.6686
_cell_length_c       15.0868
_cell_angle_alpha    90
_cell_angle_beta     90
_cell_angle_gamma    120

_space_group_name_H-M_alt    "P 1"
_space_group_IT_number       1

loop_
  _space_group_symop_operation_xyz
  'x, y, z'

loop_
  _atom_site_type_symbol
  _atom_site_label
  _atom_site_symmetry_multiplicity
  _atom_site_fract_x
  _atom_site_fract_y
  _atom_site_fract_z
  _atom_site_occupancy
  C   C1        1.0  0.18619  0.31648  0.25312  1.0000
  C   C2        1.0  0.20974  0.30330  0.26614  1.0000
  C   C3        1.0  0.30121  0.17197  0.39933  1.0000
  C   C4        1.0  0.27328  0.17965  0.39266  1.0000
  N   N1        1.0  0.23014  0.20669  0.32104  1.0000
  C   C5        1.0  0.21043  0.21898  0.28216  1.0000
  C   C6        1.0  0.21847  0.25392  0.29987  1.0000
  H   H1        1.0  0.19126  0.20342  0.23767  1.0000
  N   N2        1.0  0.20037  0.26843  0.26208  1.0000
  H   H2        1.0  0.17933  0.25252  0.22843  1.0000
  N   N3        1.0  0.28630  0.02170  0.32106  1.0000
  C   C7        1.0  0.27401  0.48963  0.28257  1.0000
  C   C8        1.0  0.23905  0.46279  0.30030  1.0000
  H   H3        1.0  0.28959  0.48592  0.23837  1.0000
  N   N4        1.0  0.22453  0.43012  0.26279  1.0000
  H   H4        1.0  0.24044  0.42497  0.22921  1.0000
  N   N5        1.0  0.47130  0.26290  0.32108  1.0000
  C   C9        1.0  0.00335  0.28261  0.28245  1.0000
  C   C10       1.0  0.03017  0.27446  0.30012  1.0000
  H   H5        1.0  0.00705  0.30188  0.23820  1.0000
  N   N6        1.0  0.06284  0.29259  0.26256  1.0000
  H   H6        1.0  0.06799  0.31365  0.22900  1.0000
  C   C11       1.0  0.17647  0.36789  0.25357  1.0000
  C   C12       1.0  0.13959  0.34387  0.25273  1.0000
  C   C13       1.0  0.12504  0.30675  0.25339  1.0000
  C   C14       1.0  0.14907  0.29390  0.25237  1.0000
  C   C15       1.0  0.19906  0.35336  0.25234  1.0000
  H   H7        1.0  0.13910  0.26730  0.25773  1.0000
  H   H8        1.0  0.22564  0.36996  0.25796  1.0000
  H   H9        1.0  0.12298  0.35384  0.25837  1.0000
  C   C16       1.0  0.18966  0.40460  0.26687  1.0000
  C   C17       1.0  0.08833  0.28321  0.26659  1.0000
  O   O1        1.0  0.24404  0.32703  0.28509  1.0000
  O   O2        1.0  0.16592  0.41513  0.28609  1.0000
  O   O3        1.0  0.07779  0.24892  0.28564  1.0000
  C   C18       1.0  0.32105  0.12765  0.39883  1.0000
  C   C19       1.0  0.35641  0.15583  0.39847  1.0000
  C   C20       1.0  0.36537  0.19181  0.39905  1.0000
  C   C21       1.0  0.33719  0.19900  0.39893  1.0000
  C   C22       1.0  0.29403  0.13661  0.39875  1.0000
  H   H10       1.0  0.34326  0.22474  0.39415  1.0000
  H   H11       1.0  0.26830  0.11696  0.39379  1.0000
  H   H12       1.0  0.37607  0.14976  0.39325  1.0000
  C   C23       1.0  0.31336  0.09205  0.39191  1.0000
  C   C24       1.0  0.40098  0.21971  0.39221  1.0000
  O   O4        1.0  0.24066  0.15317  0.36922  1.0000
  O   O5        1.0  0.33981  0.08591  0.36820  1.0000
  O   O6        1.0  0.40715  0.25234  0.36878  1.0000
  C   C25       1.0  0.25660  0.22521  0.38050  1.0000
  N   N7        1.0  0.24412  0.27194  0.36112  1.0000
  C   C26       1.0  0.26334  0.25965  0.40285  1.0000
  C   C27       1.0  0.28773  0.28099  0.46609  1.0000
  C   C28       1.0  0.27571  0.27533  0.55747  1.0000
  H   H13       1.0  0.26317  0.24739  0.57514  1.0000
  H   H14       1.0  0.25670  0.28440  0.56796  1.0000
  H   H15       1.0  0.29808  0.28991  0.60212  1.0000
  O   O7        1.0  0.30717  0.31194  0.44529  1.0000
  N   N8        1.0  0.27741  0.21217  0.40976  1.0000
  H   H16       1.0  0.29795  0.22814  0.44461  1.0000
  C   C29       1.0  0.26776  0.02978  0.38009  1.0000
  N   N9        1.0  0.22099  0.47054  0.36113  1.0000
  C   C30       1.0  0.23327  0.00215  0.40241  1.0000
  C   C31       1.0  0.21187  0.00538  0.46525  1.0000
  C   C32       1.0  0.21743  0.99988  0.55721  1.0000
  H   H17       1.0  0.24538  0.01554  0.57494  1.0000
  H   H18       1.0  0.20846  0.97198  0.56943  1.0000
  H   H19       1.0  0.20273  0.00801  0.60049  1.0000
  O   O8        1.0  0.18108  0.49396  0.44288  1.0000
  N   N10       1.0  0.28083  0.06366  0.40905  1.0000
  H   H20       1.0  0.26488  0.06827  0.44391  1.0000
  C   C33       1.0  0.46323  0.23632  0.38024  1.0000
  N   N11       1.0  0.02242  0.24867  0.36103  1.0000
  C   C34       1.0  0.49083  0.22939  0.40243  1.0000
  C   C35       1.0  0.48761  0.20481  0.46539  1.0000
  C   C36       1.0  0.49305  0.21592  0.55733  1.0000
  H   H21       1.0  0.47735  0.22818  0.57489  1.0000
  H   H22       1.0  0.52094  0.23488  0.56960  1.0000
  H   H23       1.0  0.48494  0.19312  0.60070  1.0000
  O   O9        1.0  0.99908  0.18547  0.44324  1.0000
  N   N12       1.0  0.42934  0.21552  0.40924  1.0000
  H   H24       1.0  0.42472  0.19495  0.44402  1.0000
  C   C37       1.0  0.18619  0.81647  0.25312  1.0000
  C   C38       1.0  0.20974  0.80330  0.26614  1.0000
  C   C39       1.0  0.30121  0.67197  0.39933  1.0000
  C   C40       1.0  0.27328  0.67965  0.39266  1.0000
  N   N13       1.0  0.23014  0.70669  0.32104  1.0000
  C   C41       1.0  0.21043  0.71898  0.28216  1.0000
  C   C42       1.0  0.21847  0.75392  0.29987  1.0000
  H   H25       1.0  0.19126  0.70342  0.23767  1.0000
  N   N14       1.0  0.20037  0.76843  0.26208  1.0000
  H   H26       1.0  0.17933  0.75253  0.22843  1.0000
  N   N15       1.0  0.28630  0.52170  0.32106  1.0000
  C   C43       1.0  0.27401  0.98963  0.28257  1.0000
  C   C44       1.0  0.23905  0.96279  0.30030  1.0000
  H   H27       1.0  0.28959  0.98593  0.23837  1.0000
  N   N16       1.0  0.22453  0.93011  0.26279  1.0000
  H   H28       1.0  0.24044  0.92497  0.22921  1.0000
  N   N17       1.0  0.47130  0.76290  0.32108  1.0000
  C   C45       1.0  0.00335  0.78261  0.28245  1.0000
  C   C46       1.0  0.03017  0.77446  0.30012  1.0000
  H   H29       1.0  0.00705  0.80188  0.23820  1.0000
  N   N18       1.0  0.06284  0.79259  0.26256  1.0000
  H   H30       1.0  0.06799  0.81365  0.22900  1.0000
  C   C47       1.0  0.17647  0.86789  0.25357  1.0000
  C   C48       1.0  0.13959  0.84387  0.25273  1.0000
  C   C49       1.0  0.12504  0.80675  0.25339  1.0000
  C   C50       1.0  0.14907  0.79390  0.25237  1.0000
  C   C51       1.0  0.19906  0.85336  0.25234  1.0000
  H   H31       1.0  0.13910  0.76730  0.25773  1.0000
  H   H32       1.0  0.22564  0.86996  0.25796  1.0000
  H   H33       1.0  0.12298  0.85384  0.25837  1.0000
  C   C52       1.0  0.18966  0.90460  0.26687  1.0000
  C   C53       1.0  0.08833  0.78321  0.26659  1.0000
  O   O10       1.0  0.24404  0.82704  0.28509  1.0000
  O   O11       1.0  0.16592  0.91513  0.28609  1.0000
  O   O12       1.0  0.07779  0.74892  0.28564  1.0000
  C   C54       1.0  0.32105  0.62765  0.39883  1.0000
  C   C55       1.0  0.35641  0.65583  0.39847  1.0000
  C   C56       1.0  0.36537  0.69181  0.39905  1.0000
  C   C57       1.0  0.33719  0.69900  0.39893  1.0000
  C   C58       1.0  0.29404  0.63661  0.39875  1.0000
  H   H34       1.0  0.34326  0.72474  0.39415  1.0000
  H   H35       1.0  0.26830  0.61696  0.39379  1.0000
  H   H36       1.0  0.37607  0.64976  0.39325  1.0000
  C   C59       1.0  0.31335  0.59205  0.39191  1.0000
  C   C60       1.0  0.40098  0.71971  0.39221  1.0000
  O   O13       1.0  0.24066  0.65317  0.36922  1.0000
  O   O14       1.0  0.33981  0.58591  0.36820  1.0000
  O   O15       1.0  0.40715  0.75234  0.36878  1.0000
  C   C61       1.0  0.25660  0.72521  0.38050  1.0000
  N   N19       1.0  0.24412  0.77194  0.36112  1.0000
  C   C62       1.0  0.26334  0.75965  0.40285  1.0000
  C   C63       1.0  0.28773  0.78099  0.46609  1.0000
  C   C64       1.0  0.27571  0.77533  0.55747  1.0000
  H   H37       1.0  0.26317  0.74739  0.57514  1.0000
  H   H38       1.0  0.25670  0.78440  0.56796  1.0000
  H   H39       1.0  0.29808  0.78991  0.60212  1.0000
  O   O16       1.0  0.30717  0.81194  0.44529  1.0000
  N   N20       1.0  0.27741  0.71217  0.40976  1.0000
  H   H40       1.0  0.29795  0.72814  0.44461  1.0000
  C   C65       1.0  0.26776  0.52978  0.38009  1.0000
  N   N21       1.0  0.22099  0.97055  0.36113  1.0000
  C   C66       1.0  0.23327  0.50215  0.40241  1.0000
  C   C67       1.0  0.21187  0.50539  0.46525  1.0000
  C   C68       1.0  0.21743  0.49988  0.55721  1.0000
  H   H41       1.0  0.24538  0.51554  0.57494  1.0000
  H   H42       1.0  0.20846  0.47198  0.56943  1.0000
  H   H43       1.0  0.20273  0.50801  0.60049  1.0000
  O   O17       1.0  0.18108  0.99396  0.44288  1.0000
  N   N22       1.0  0.28083  0.56367  0.40905  1.0000
  H   H44       1.0  0.26489  0.56827  0.44391  1.0000
  C   C69       1.0  0.46323  0.73632  0.38024  1.0000
  N   N23       1.0  0.02242  0.74867  0.36103  1.0000
  C   C70       1.0  0.49083  0.72940  0.40243  1.0000
  C   C71       1.0  0.48761  0.70481  0.46539  1.0000
  C   C72       1.0  0.49305  0.71592  0.55733  1.0000
  H   H45       1.0  0.47735  0.72818  0.57489  1.0000
  H   H46       1.0  0.52094  0.73488  0.56960  1.0000
  H   H47       1.0  0.48494  0.69312  0.60070  1.0000
  O   O18       1.0  0.99908  0.68547  0.44324  1.0000
  N   N24       1.0  0.42934  0.71552  0.40924  1.0000
  H   H48       1.0  0.42472  0.69495  0.44402  1.0000
  C   C73       1.0  0.68619  0.31648  0.25312  1.0000
  C   C74       1.0  0.70974  0.30330  0.26614  1.0000
  C   C75       1.0  0.80121  0.17197  0.39933  1.0000
  C   C76       1.0  0.77328  0.17965  0.39266  1.0000
  N   N25       1.0  0.73014  0.20669  0.32104  1.0000
  C   C77       1.0  0.71043  0.21898  0.28216  1.0000
  C   C78       1.0  0.71847  0.25392  0.29987  1.0000
  H   H49       1.0  0.69126  0.20342  0.23767  1.0000
  N   N26       1.0  0.70037  0.26843  0.26208  1.0000
  H   H50       1.0  0.67933  0.25252  0.22843  1.0000
  N   N27       1.0  0.78631  0.02170  0.32106  1.0000
  C   C79       1.0  0.77401  0.48963  0.28257  1.0000
  C   C80       1.0  0.73905  0.46279  0.30030  1.0000
  H   H51       1.0  0.78959  0.48592  0.23837  1.0000
  N   N28       1.0  0.72453  0.43012  0.26279  1.0000
  H   H52       1.0  0.74044  0.42497  0.22921  1.0000
  N   N29       1.0  0.97130  0.26290  0.32108  1.0000
  C   C81       1.0  0.50335  0.28261  0.28245  1.0000
  C   C82       1.0  0.53017  0.27446  0.30012  1.0000
  H   H53       1.0  0.50705  0.30188  0.23820  1.0000
  N   N30       1.0  0.56283  0.29259  0.26256  1.0000
  H   H54       1.0  0.56799  0.31365  0.22900  1.0000
  C   C83       1.0  0.67647  0.36789  0.25357  1.0000
  C   C84       1.0  0.63959  0.34387  0.25273  1.0000
  C   C85       1.0  0.62505  0.30675  0.25339  1.0000
  C   C86       1.0  0.64907  0.29390  0.25237  1.0000
  C   C87       1.0  0.69906  0.35336  0.25234  1.0000
  H   H55       1.0  0.63910  0.26730  0.25773  1.0000
  H   H56       1.0  0.72564  0.36996  0.25796  1.0000
  H   H57       1.0  0.62297  0.35384  0.25837  1.0000
  C   C88       1.0  0.68966  0.40460  0.26687  1.0000
  C   C89       1.0  0.58833  0.28321  0.26659  1.0000
  O   O19       1.0  0.74404  0.32703  0.28509  1.0000
  O   O20       1.0  0.66592  0.41513  0.28609  1.0000
  O   O21       1.0  0.57779  0.24892  0.28564  1.0000
  C   C90       1.0  0.82105  0.12765  0.39883  1.0000
  C   C91       1.0  0.85641  0.15583  0.39847  1.0000
  C   C92       1.0  0.86537  0.19181  0.39905  1.0000
  C   C93       1.0  0.83719  0.19900  0.39893  1.0000
  C   C94       1.0  0.79403  0.13661  0.39875  1.0000
  H   H58       1.0  0.84326  0.22474  0.39415  1.0000
  H   H59       1.0  0.76829  0.11696  0.39379  1.0000
  H   H60       1.0  0.87607  0.14976  0.39325  1.0000
  C   C95       1.0  0.81336  0.09205  0.39191  1.0000
  C   C96       1.0  0.90098  0.21971  0.39221  1.0000
  O   O22       1.0  0.74066  0.15317  0.36922  1.0000
  O   O23       1.0  0.83981  0.08591  0.36820  1.0000
  O   O24       1.0  0.90715  0.25234  0.36878  1.0000
  C   C97       1.0  0.75660  0.22521  0.38050  1.0000
  N   N31       1.0  0.74412  0.27194  0.36112  1.0000
  C   C98       1.0  0.76334  0.25965  0.40285  1.0000
  C   C99       1.0  0.78773  0.28099  0.46609  1.0000
  C   C100      1.0  0.77571  0.27533  0.55747  1.0000
  H   H61       1.0  0.76317  0.24739  0.57514  1.0000
  H   H62       1.0  0.75670  0.28440  0.56796  1.0000
  H   H63       1.0  0.79808  0.28991  0.60212  1.0000
  O   O25       1.0  0.80717  0.31194  0.44529  1.0000
  N   N32       1.0  0.77741  0.21217  0.40976  1.0000
  H   H64       1.0  0.79795  0.22814  0.44461  1.0000
  C   C101      1.0  0.76776  0.02978  0.38009  1.0000
  N   N33       1.0  0.72099  0.47054  0.36113  1.0000
  C   C102      1.0  0.73327  0.00215  0.40241  1.0000
  C   C103      1.0  0.71187  0.00538  0.46525  1.0000
  C   C104      1.0  0.71743  0.99988  0.55721  1.0000
  H   H65       1.0  0.74538  0.01554  0.57494  1.0000
  H   H66       1.0  0.70845  0.97198  0.56943  1.0000
  H   H67       1.0  0.70273  0.00801  0.60049  1.0000
  O   O26       1.0  0.68108  0.49396  0.44288  1.0000
  N   N34       1.0  0.78083  0.06366  0.40905  1.0000
  H   H68       1.0  0.76489  0.06827  0.44391  1.0000
  C   C105      1.0  0.96323  0.23632  0.38024  1.0000
  N   N35       1.0  0.52242  0.24867  0.36103  1.0000
  C   C106      1.0  0.99083  0.22939  0.40243  1.0000
  C   C107      1.0  0.98761  0.20481  0.46539  1.0000
  C   C108      1.0  0.99305  0.21592  0.55733  1.0000
  H   H69       1.0  0.97735  0.22818  0.57489  1.0000
  H   H70       1.0  0.02094  0.23488  0.56960  1.0000
  H   H71       1.0  0.98494  0.19312  0.60070  1.0000
  O   O27       1.0  0.49908  0.18547  0.44324  1.0000
  N   N36       1.0  0.92934  0.21552  0.40924  1.0000
  H   H72       1.0  0.92472  0.19495  0.44402  1.0000
  C   C109      1.0  0.68619  0.81647  0.25312  1.0000
  C   C110      1.0  0.70974  0.80330  0.26614  1.0000
  C   C111      1.0  0.80121  0.67197  0.39933  1.0000
  C   C112      1.0  0.77328  0.67965  0.39266  1.0000
  N   N37       1.0  0.73014  0.70669  0.32104  1.0000
  C   C113      1.0  0.71042  0.71898  0.28216  1.0000
  C   C114      1.0  0.71847  0.75392  0.29987  1.0000
  H   H73       1.0  0.69126  0.70342  0.23767  1.0000
  N   N38       1.0  0.70037  0.76843  0.26208  1.0000
  H   H74       1.0  0.67933  0.75253  0.22843  1.0000
  N   N39       1.0  0.78631  0.52170  0.32106  1.0000
  C   C115      1.0  0.77401  0.98963  0.28257  1.0000
  C   C116      1.0  0.73905  0.96279  0.30030  1.0000
  H   H75       1.0  0.78959  0.98593  0.23837  1.0000
  N   N40       1.0  0.72453  0.93011  0.26279  1.0000
  H   H76       1.0  0.74044  0.92497  0.22921  1.0000
  N   N41       1.0  0.97130  0.76290  0.32108  1.0000
  C   C117      1.0  0.50335  0.78261  0.28245  1.0000
  C   C118      1.0  0.53017  0.77446  0.30012  1.0000
  H   H77       1.0  0.50705  0.80188  0.23820  1.0000
  N   N42       1.0  0.56284  0.79259  0.26256  1.0000
  H   H78       1.0  0.56799  0.81365  0.22900  1.0000
  C   C119      1.0  0.67647  0.86789  0.25357  1.0000
  C   C120      1.0  0.63959  0.84387  0.25273  1.0000
  C   C121      1.0  0.62505  0.80675  0.25339  1.0000
  C   C122      1.0  0.64907  0.79390  0.25237  1.0000
  C   C123      1.0  0.69905  0.85336  0.25234  1.0000
  H   H79       1.0  0.63910  0.76730  0.25773  1.0000
  H   H80       1.0  0.72564  0.86996  0.25796  1.0000
  H   H81       1.0  0.62298  0.85384  0.25837  1.0000
  C   C124      1.0  0.68966  0.90460  0.26687  1.0000
  C   C125      1.0  0.58833  0.78321  0.26659  1.0000
  O   O28       1.0  0.74404  0.82704  0.28509  1.0000
  O   O29       1.0  0.66592  0.91513  0.28609  1.0000
  O   O30       1.0  0.57779  0.74892  0.28564  1.0000
  C   C126      1.0  0.82105  0.62765  0.39883  1.0000
  C   C127      1.0  0.85641  0.65583  0.39847  1.0000
  C   C128      1.0  0.86537  0.69181  0.39905  1.0000
  C   C129      1.0  0.83719  0.69900  0.39893  1.0000
  C   C130      1.0  0.79404  0.63661  0.39875  1.0000
  H   H82       1.0  0.84326  0.72474  0.39415  1.0000
  H   H83       1.0  0.76830  0.61696  0.39379  1.0000
  H   H84       1.0  0.87607  0.64976  0.39325  1.0000
  C   C131      1.0  0.81335  0.59205  0.39191  1.0000
  C   C132      1.0  0.90098  0.71971  0.39221  1.0000
  O   O31       1.0  0.74066  0.65317  0.36922  1.0000
  O   O32       1.0  0.83981  0.58591  0.36820  1.0000
  O   O33       1.0  0.90715  0.75234  0.36878  1.0000
  C   C133      1.0  0.75660  0.72521  0.38050  1.0000
  N   N43       1.0  0.74412  0.77194  0.36112  1.0000
  C   C134      1.0  0.76334  0.75965  0.40285  1.0000
  C   C135      1.0  0.78773  0.78099  0.46609  1.0000
  C   C136      1.0  0.77571  0.77533  0.55747  1.0000
  H   H85       1.0  0.76317  0.74739  0.57514  1.0000
  H   H86       1.0  0.75670  0.78440  0.56796  1.0000
  H   H87       1.0  0.79808  0.78991  0.60212  1.0000
  O   O34       1.0  0.80718  0.81194  0.44529  1.0000
  N   N44       1.0  0.77741  0.71217  0.40976  1.0000
  H   H88       1.0  0.79795  0.72814  0.44461  1.0000
  C   C137      1.0  0.76776  0.52978  0.38009  1.0000
  N   N45       1.0  0.72099  0.97055  0.36113  1.0000
  C   C138      1.0  0.73327  0.50215  0.40241  1.0000
  C   C139      1.0  0.71187  0.50539  0.46525  1.0000
  C   C140      1.0  0.71743  0.49988  0.55721  1.0000
  H   H89       1.0  0.74538  0.51554  0.57494  1.0000
  H   H90       1.0  0.70845  0.47198  0.56943  1.0000
  H   H91       1.0  0.70273  0.50801  0.60049  1.0000
  O   O35       1.0  0.68108  0.99396  0.44288  1.0000
  N   N46       1.0  0.78083  0.56367  0.40905  1.0000
  H   H92       1.0  0.76489  0.56827  0.44391  1.0000
  C   C141      1.0  0.96323  0.73632  0.38024  1.0000
  N   N47       1.0  0.52242  0.74867  0.36103  1.0000
  C   C142      1.0  0.99083  0.72940  0.40243  1.0000
  C   C143      1.0  0.98761  0.70481  0.46539  1.0000
  C   C144      1.0  0.99305  0.71592  0.55733  1.0000
  H   H93       1.0  0.97735  0.72818  0.57489  1.0000
  H   H94       1.0  0.02094  0.73488  0.56960  1.0000
  H   H95       1.0  0.98493  0.69312  0.60070  1.0000
  O   O36       1.0  0.49908  0.68547  0.44324  1.0000
  N   N48       1.0  0.92934  0.71552  0.40924  1.0000
  H   H96       1.0  0.92472  0.69495  0.44402  1.0000
