data_image0
_chemical_formula_structural       C4NC2HNHNC2HNHNC2HNHC5H3C2O3C5H3C2O3CNCNO2NHCNCNO2NHCNCNO2NHC4NC2HNHNC2HNHNC2HNHC5H3C2O3C5H3C2O3CNCNO2NHCNCNO2NHCNCNO2NHC4NC2HNHNC2HNHNC2HNHC5H3C2O3C5H3C2O3CNCNO2NHCNCNO2NHCNCNO2NHC4NC2HNHNC2HNHNC2HNHC5H3C2O3C5H3C2O3CNCNO2NHCNCNO2NHCNCNO2NH
_chemical_formula_sum              "C120 N60 H60 O48"
_cell_length_a       43.5929
_cell_length_b       43.5929
_cell_length_c       15.0515
_cell_angle_alpha    90
_cell_angle_beta     90
_cell_angle_gamma    120

_space_group_name_H-M_alt    "P 1"
_space_group_IT_number       1

loop_
  _space_group_symop_operation_xyz
  'x, y, z'

loop_
  _atom_site_type_symbol
  _atom_site_label
  _atom_site_symmetry_multiplicity
  _atom_site_fract_x
  _atom_site_fract_y
  _atom_site_fract_z
  _atom_site_occupancy
  C   C1        1.0  0.18927  0.31941  0.24854  1.0000
  C   C2        1.0  0.21446  0.30807  0.26136  1.0000
  C   C3        1.0  0.30474  0.17608  0.42814  1.0000
  C   C4        1.0  0.27868  0.18641  0.41727  1.0000
  N   N1        1.0  0.23672  0.21318  0.33421  1.0000
  C   C5        1.0  0.21693  0.22475  0.29218  1.0000
  C   C6        1.0  0.22645  0.26069  0.29965  1.0000
  H   H1        1.0  0.19571  0.20736  0.25489  1.0000
  N   N2        1.0  0.20681  0.27358  0.26136  1.0000
  H   H2        1.0  0.18505  0.25621  0.23247  1.0000
  N   N3        1.0  0.28253  0.02268  0.33433  1.0000
  C   C7        1.0  0.27096  0.49131  0.29230  1.0000
  C   C8        1.0  0.23502  0.46490  0.29980  1.0000
  H   H3        1.0  0.28834  0.48750  0.25493  1.0000
  N   N4        1.0  0.22213  0.43237  0.26153  1.0000
  H   H4        1.0  0.23949  0.42798  0.23260  1.0000
  N   N5        1.0  0.47303  0.25899  0.33404  1.0000
  C   C9        1.0  0.00439  0.27878  0.29201  1.0000
  C   C10       1.0  0.03081  0.26926  0.29947  1.0000
  H   H5        1.0  0.00820  0.29997  0.25463  1.0000
  N   N6        1.0  0.06333  0.28889  0.26116  1.0000
  H   H6        1.0  0.06773  0.31066  0.23228  1.0000
  C   C11       1.0  0.17629  0.36900  0.24872  1.0000
  C   C12       1.0  0.13971  0.34341  0.24769  1.0000
  C   C13       1.0  0.12671  0.30644  0.24847  1.0000
  C   C14       1.0  0.15230  0.29545  0.24757  1.0000
  C   C15       1.0  0.20028  0.35600  0.24763  1.0000
  H   H7        1.0  0.14350  0.26904  0.25263  1.0000
  H   H8        1.0  0.22667  0.37360  0.25301  1.0000
  H   H9        1.0  0.12210  0.35221  0.25284  1.0000
  C   C16       1.0  0.18765  0.40553  0.26160  1.0000
  C   C17       1.0  0.09017  0.28124  0.26120  1.0000
  O   O1        1.0  0.24856  0.33329  0.27775  1.0000
  O   O2        1.0  0.16242  0.41440  0.27804  1.0000
  O   O3        1.0  0.08128  0.24713  0.27753  1.0000
  C   C18       1.0  0.31966  0.12782  0.42810  1.0000
  C   C19       1.0  0.35596  0.15421  0.42868  1.0000
  C   C20       1.0  0.36793  0.19100  0.42810  1.0000
  C   C21       1.0  0.34153  0.20090  0.42860  1.0000
  C   C22       1.0  0.29483  0.13978  0.42868  1.0000
  H   H10       1.0  0.34961  0.22716  0.42339  1.0000
  H   H11       1.0  0.26857  0.12160  0.42353  1.0000
  H   H12       1.0  0.37414  0.14613  0.42345  1.0000
  C   C23       1.0  0.30933  0.09142  0.41734  1.0000
  C   C24       1.0  0.40432  0.21706  0.41718  1.0000
  O   O4        1.0  0.24493  0.16070  0.39933  1.0000
  O   O5        1.0  0.33503  0.08339  0.39934  1.0000
  O   O6        1.0  0.41234  0.25079  0.39912  1.0000
  C   C25       1.0  0.26539  0.23369  0.38619  1.0000
  N   N7        1.0  0.25486  0.28109  0.35218  1.0000
  C   C26       1.0  0.27476  0.26974  0.39551  1.0000
  N   N8        1.0  0.30357  0.29361  0.44847  1.0000
  O   O7        1.0  0.32579  0.31911  0.40249  1.0000
  O   O8        1.0  0.29310  0.30580  0.50952  1.0000
  N   N9        1.0  0.28533  0.22053  0.42160  1.0000
  H   H13       1.0  0.30694  0.23751  0.45144  1.0000
  C   C27       1.0  0.26204  0.03084  0.38638  1.0000
  N   N10       1.0  0.21464  0.47291  0.35240  1.0000
  C   C28       1.0  0.22599  0.00415  0.39575  1.0000
  N   N11       1.0  0.20214  0.00910  0.44879  1.0000
  O   O9        1.0  0.17663  0.50582  0.40286  1.0000
  O   O10       1.0  0.18998  0.98644  0.50984  1.0000
  N   N12       1.0  0.27521  0.06395  0.42173  1.0000
  H   H14       1.0  0.25823  0.06858  0.45158  1.0000
  C   C29       1.0  0.46488  0.23033  0.38607  1.0000
  N   N13       1.0  0.02281  0.24087  0.35207  1.0000
  C   C30       1.0  0.49157  0.22098  0.39545  1.0000
  N   N14       1.0  0.48664  0.19220  0.44851  1.0000
  O   O11       1.0  0.98993  0.16996  0.40260  1.0000
  O   O12       1.0  0.50931  0.20270  0.50954  1.0000
  N   N15       1.0  0.43179  0.21041  0.42154  1.0000
  H   H15       1.0  0.42717  0.18881  0.45144  1.0000
  C   C31       1.0  0.18927  0.81941  0.24854  1.0000
  C   C32       1.0  0.21446  0.80807  0.26136  1.0000
  C   C33       1.0  0.30474  0.67608  0.42814  1.0000
  C   C34       1.0  0.27868  0.68641  0.41727  1.0000
  N   N16       1.0  0.23672  0.71318  0.33421  1.0000
  C   C35       1.0  0.21693  0.72475  0.29218  1.0000
  C   C36       1.0  0.22645  0.76069  0.29965  1.0000
  H   H16       1.0  0.19571  0.70736  0.25489  1.0000
  N   N17       1.0  0.20681  0.77358  0.26136  1.0000
  H   H17       1.0  0.18505  0.75621  0.23247  1.0000
  N   N18       1.0  0.28253  0.52268  0.33433  1.0000
  C   C37       1.0  0.27096  0.99131  0.29230  1.0000
  C   C38       1.0  0.23502  0.96490  0.29980  1.0000
  H   H18       1.0  0.28834  0.98750  0.25493  1.0000
  N   N19       1.0  0.22213  0.93237  0.26153  1.0000
  H   H19       1.0  0.23949  0.92798  0.23260  1.0000
  N   N20       1.0  0.47304  0.75899  0.33404  1.0000
  C   C39       1.0  0.00439  0.77878  0.29201  1.0000
  C   C40       1.0  0.03081  0.76926  0.29947  1.0000
  H   H20       1.0  0.00820  0.79997  0.25463  1.0000
  N   N21       1.0  0.06333  0.78889  0.26116  1.0000
  H   H21       1.0  0.06773  0.81066  0.23228  1.0000
  C   C41       1.0  0.17629  0.86899  0.24872  1.0000
  C   C42       1.0  0.13971  0.84341  0.24769  1.0000
  C   C43       1.0  0.12671  0.80644  0.24847  1.0000
  C   C44       1.0  0.15229  0.79544  0.24757  1.0000
  C   C45       1.0  0.20028  0.85600  0.24763  1.0000
  H   H22       1.0  0.14350  0.76904  0.25263  1.0000
  H   H23       1.0  0.22668  0.87360  0.25301  1.0000
  H   H24       1.0  0.12210  0.85221  0.25284  1.0000
  C   C46       1.0  0.18765  0.90553  0.26160  1.0000
  C   C47       1.0  0.09017  0.78124  0.26120  1.0000
  O   O13       1.0  0.24857  0.83329  0.27775  1.0000
  O   O14       1.0  0.16242  0.91440  0.27804  1.0000
  O   O15       1.0  0.08128  0.74713  0.27753  1.0000
  C   C48       1.0  0.31966  0.62782  0.42810  1.0000
  C   C49       1.0  0.35596  0.65421  0.42868  1.0000
  C   C50       1.0  0.36793  0.69100  0.42810  1.0000
  C   C51       1.0  0.34153  0.70090  0.42860  1.0000
  C   C52       1.0  0.29483  0.63978  0.42868  1.0000
  H   H25       1.0  0.34961  0.72716  0.42339  1.0000
  H   H26       1.0  0.26857  0.62160  0.42353  1.0000
  H   H27       1.0  0.37414  0.64613  0.42345  1.0000
  C   C53       1.0  0.30933  0.59142  0.41734  1.0000
  C   C54       1.0  0.40432  0.71706  0.41718  1.0000
  O   O16       1.0  0.24493  0.66070  0.39933  1.0000
  O   O17       1.0  0.33503  0.58339  0.39934  1.0000
  O   O18       1.0  0.41234  0.75079  0.39912  1.0000
  C   C55       1.0  0.26539  0.73369  0.38619  1.0000
  N   N22       1.0  0.25486  0.78109  0.35218  1.0000
  C   C56       1.0  0.27476  0.76974  0.39551  1.0000
  N   N23       1.0  0.30357  0.79361  0.44847  1.0000
  O   O19       1.0  0.32580  0.81911  0.40249  1.0000
  O   O20       1.0  0.29310  0.80580  0.50952  1.0000
  N   N24       1.0  0.28533  0.72053  0.42160  1.0000
  H   H28       1.0  0.30694  0.73751  0.45144  1.0000
  C   C57       1.0  0.26204  0.53083  0.38638  1.0000
  N   N25       1.0  0.21464  0.97291  0.35240  1.0000
  C   C58       1.0  0.22599  0.50415  0.39575  1.0000
  N   N26       1.0  0.20214  0.50910  0.44879  1.0000
  O   O21       1.0  0.17663  0.00581  0.40286  1.0000
  O   O22       1.0  0.18998  0.48644  0.50984  1.0000
  N   N27       1.0  0.27521  0.56395  0.42173  1.0000
  H   H29       1.0  0.25823  0.56858  0.45158  1.0000
  C   C59       1.0  0.46488  0.73033  0.38607  1.0000
  N   N28       1.0  0.02281  0.74087  0.35207  1.0000
  C   C60       1.0  0.49157  0.72098  0.39545  1.0000
  N   N29       1.0  0.48665  0.69220  0.44851  1.0000
  O   O23       1.0  0.98993  0.66996  0.40260  1.0000
  O   O24       1.0  0.50931  0.70271  0.50954  1.0000
  N   N30       1.0  0.43179  0.71041  0.42154  1.0000
  H   H30       1.0  0.42717  0.68881  0.45144  1.0000
  C   C61       1.0  0.68927  0.31941  0.24854  1.0000
  C   C62       1.0  0.71446  0.30807  0.26136  1.0000
  C   C63       1.0  0.80474  0.17608  0.42814  1.0000
  C   C64       1.0  0.77868  0.18641  0.41727  1.0000
  N   N31       1.0  0.73672  0.21318  0.33421  1.0000
  C   C65       1.0  0.71693  0.22475  0.29218  1.0000
  C   C66       1.0  0.72645  0.26069  0.29965  1.0000
  H   H31       1.0  0.69571  0.20736  0.25489  1.0000
  N   N32       1.0  0.70681  0.27358  0.26136  1.0000
  H   H32       1.0  0.68505  0.25621  0.23247  1.0000
  N   N33       1.0  0.78254  0.02268  0.33433  1.0000
  C   C67       1.0  0.77096  0.49131  0.29230  1.0000
  C   C68       1.0  0.73502  0.46490  0.29980  1.0000
  H   H33       1.0  0.78834  0.48750  0.25493  1.0000
  N   N34       1.0  0.72213  0.43237  0.26153  1.0000
  H   H34       1.0  0.73949  0.42798  0.23260  1.0000
  N   N35       1.0  0.97304  0.25899  0.33404  1.0000
  C   C69       1.0  0.50439  0.27878  0.29201  1.0000
  C   C70       1.0  0.53081  0.26926  0.29947  1.0000
  H   H35       1.0  0.50820  0.29997  0.25463  1.0000
  N   N36       1.0  0.56333  0.28889  0.26116  1.0000
  H   H36       1.0  0.56773  0.31066  0.23228  1.0000
  C   C71       1.0  0.67629  0.36900  0.24872  1.0000
  C   C72       1.0  0.63971  0.34341  0.24769  1.0000
  C   C73       1.0  0.62671  0.30644  0.24847  1.0000
  C   C74       1.0  0.65230  0.29545  0.24757  1.0000
  C   C75       1.0  0.70028  0.35600  0.24763  1.0000
  H   H37       1.0  0.64350  0.26904  0.25263  1.0000
  H   H38       1.0  0.72668  0.37360  0.25301  1.0000
  H   H39       1.0  0.62210  0.35221  0.25284  1.0000
  C   C76       1.0  0.68764  0.40553  0.26160  1.0000
  C   C77       1.0  0.59017  0.28124  0.26120  1.0000
  O   O25       1.0  0.74856  0.33329  0.27775  1.0000
  O   O26       1.0  0.66242  0.41440  0.27804  1.0000
  O   O27       1.0  0.58128  0.24713  0.27753  1.0000
  C   C78       1.0  0.81966  0.12782  0.42810  1.0000
  C   C79       1.0  0.85596  0.15421  0.42868  1.0000
  C   C80       1.0  0.86792  0.19100  0.42810  1.0000
  C   C81       1.0  0.84153  0.20090  0.42860  1.0000
  C   C82       1.0  0.79483  0.13978  0.42868  1.0000
  H   H40       1.0  0.84961  0.22716  0.42339  1.0000
  H   H41       1.0  0.76857  0.12160  0.42353  1.0000
  H   H42       1.0  0.87414  0.14613  0.42345  1.0000
  C   C83       1.0  0.80933  0.09142  0.41734  1.0000
  C   C84       1.0  0.90432  0.21706  0.41718  1.0000
  O   O28       1.0  0.74493  0.16070  0.39933  1.0000
  O   O29       1.0  0.83503  0.08339  0.39934  1.0000
  O   O30       1.0  0.91234  0.25079  0.39912  1.0000
  C   C85       1.0  0.76539  0.23369  0.38619  1.0000
  N   N37       1.0  0.75486  0.28109  0.35218  1.0000
  C   C86       1.0  0.77476  0.26974  0.39551  1.0000
  N   N38       1.0  0.80357  0.29361  0.44847  1.0000
  O   O31       1.0  0.82579  0.31911  0.40249  1.0000
  O   O32       1.0  0.79310  0.30580  0.50952  1.0000
  N   N39       1.0  0.78533  0.22053  0.42160  1.0000
  H   H43       1.0  0.80694  0.23751  0.45144  1.0000
  C   C87       1.0  0.76204  0.03084  0.38638  1.0000
  N   N40       1.0  0.71464  0.47291  0.35240  1.0000
  C   C88       1.0  0.72599  0.00415  0.39575  1.0000
  N   N41       1.0  0.70214  0.00910  0.44879  1.0000
  O   O33       1.0  0.67663  0.50582  0.40286  1.0000
  O   O34       1.0  0.68998  0.98644  0.50984  1.0000
  N   N42       1.0  0.77521  0.06395  0.42173  1.0000
  H   H44       1.0  0.75823  0.06858  0.45158  1.0000
  C   C89       1.0  0.96488  0.23033  0.38607  1.0000
  N   N43       1.0  0.52281  0.24087  0.35207  1.0000
  C   C90       1.0  0.99157  0.22098  0.39545  1.0000
  N   N44       1.0  0.98665  0.19220  0.44851  1.0000
  O   O35       1.0  0.48993  0.16996  0.40260  1.0000
  O   O36       1.0  0.00931  0.20270  0.50954  1.0000
  N   N45       1.0  0.93179  0.21041  0.42154  1.0000
  H   H45       1.0  0.92717  0.18881  0.45144  1.0000
  C   C91       1.0  0.68927  0.81941  0.24854  1.0000
  C   C92       1.0  0.71446  0.80807  0.26136  1.0000
  C   C93       1.0  0.80474  0.67608  0.42814  1.0000
  C   C94       1.0  0.77868  0.68641  0.41727  1.0000
  N   N46       1.0  0.73672  0.71318  0.33421  1.0000
  C   C95       1.0  0.71693  0.72475  0.29218  1.0000
  C   C96       1.0  0.72645  0.76069  0.29965  1.0000
  H   H46       1.0  0.69571  0.70736  0.25489  1.0000
  N   N47       1.0  0.70681  0.77358  0.26136  1.0000
  H   H47       1.0  0.68505  0.75621  0.23247  1.0000
  N   N48       1.0  0.78253  0.52268  0.33433  1.0000
  C   C97       1.0  0.77096  0.99131  0.29230  1.0000
  C   C98       1.0  0.73502  0.96490  0.29980  1.0000
  H   H48       1.0  0.78834  0.98750  0.25493  1.0000
  N   N49       1.0  0.72213  0.93237  0.26153  1.0000
  H   H49       1.0  0.73949  0.92798  0.23260  1.0000
  N   N50       1.0  0.97304  0.75899  0.33404  1.0000
  C   C99       1.0  0.50439  0.77878  0.29201  1.0000
  C   C100      1.0  0.53081  0.76926  0.29947  1.0000
  H   H50       1.0  0.50820  0.79997  0.25463  1.0000
  N   N51       1.0  0.56333  0.78889  0.26116  1.0000
  H   H51       1.0  0.56773  0.81066  0.23228  1.0000
  C   C101      1.0  0.67629  0.86899  0.24872  1.0000
  C   C102      1.0  0.63971  0.84341  0.24769  1.0000
  C   C103      1.0  0.62671  0.80644  0.24847  1.0000
  C   C104      1.0  0.65229  0.79544  0.24757  1.0000
  C   C105      1.0  0.70028  0.85600  0.24763  1.0000
  H   H52       1.0  0.64350  0.76904  0.25263  1.0000
  H   H53       1.0  0.72668  0.87360  0.25301  1.0000
  H   H54       1.0  0.62210  0.85221  0.25284  1.0000
  C   C106      1.0  0.68765  0.90553  0.26160  1.0000
  C   C107      1.0  0.59017  0.78124  0.26120  1.0000
  O   O37       1.0  0.74856  0.83329  0.27775  1.0000
  O   O38       1.0  0.66242  0.91440  0.27804  1.0000
  O   O39       1.0  0.58129  0.74713  0.27753  1.0000
  C   C108      1.0  0.81966  0.62782  0.42810  1.0000
  C   C109      1.0  0.85596  0.65421  0.42868  1.0000
  C   C110      1.0  0.86793  0.69100  0.42810  1.0000
  C   C111      1.0  0.84153  0.70090  0.42860  1.0000
  C   C112      1.0  0.79483  0.63978  0.42868  1.0000
  H   H55       1.0  0.84961  0.72716  0.42339  1.0000
  H   H56       1.0  0.76857  0.62160  0.42353  1.0000
  H   H57       1.0  0.87414  0.64613  0.42345  1.0000
  C   C113      1.0  0.80933  0.59142  0.41734  1.0000
  C   C114      1.0  0.90432  0.71706  0.41718  1.0000
  O   O40       1.0  0.74494  0.66070  0.39933  1.0000
  O   O41       1.0  0.83503  0.58339  0.39934  1.0000
  O   O42       1.0  0.91234  0.75079  0.39912  1.0000
  C   C115      1.0  0.76539  0.73369  0.38619  1.0000
  N   N52       1.0  0.75486  0.78109  0.35218  1.0000
  C   C116      1.0  0.77476  0.76974  0.39551  1.0000
  N   N53       1.0  0.80357  0.79361  0.44847  1.0000
  O   O43       1.0  0.82580  0.81911  0.40249  1.0000
  O   O44       1.0  0.79310  0.80580  0.50952  1.0000
  N   N54       1.0  0.78533  0.72053  0.42160  1.0000
  H   H58       1.0  0.80694  0.73751  0.45144  1.0000
  C   C117      1.0  0.76204  0.53083  0.38638  1.0000
  N   N55       1.0  0.71464  0.97291  0.35240  1.0000
  C   C118      1.0  0.72599  0.50415  0.39575  1.0000
  N   N56       1.0  0.70214  0.50910  0.44879  1.0000
  O   O45       1.0  0.67663  0.00581  0.40286  1.0000
  O   O46       1.0  0.68998  0.48644  0.50984  1.0000
  N   N57       1.0  0.77521  0.56395  0.42173  1.0000
  H   H59       1.0  0.75823  0.56858  0.45158  1.0000
  C   C119      1.0  0.96488  0.73033  0.38607  1.0000
  N   N58       1.0  0.52281  0.74087  0.35207  1.0000
  C   C120      1.0  0.99158  0.72098  0.39545  1.0000
  N   N59       1.0  0.98665  0.69220  0.44851  1.0000
  O   O47       1.0  0.48993  0.66996  0.40260  1.0000
  O   O48       1.0  0.00931  0.70271  0.50954  1.0000
  N   N60       1.0  0.93179  0.71041  0.42154  1.0000
  H   H60       1.0  0.92717  0.68881  0.45144  1.0000
