data_image0
_chemical_formula_structural       C2NHCHC2NHCH3C2H2C3NH2C2OC2H2C3NH2C2OCHC2H2C2NC3NC2HC2H2C2NC3NC4NH3C6N2H4C6N2H4C2H2C2H2C2H2C2H2C3H2C3H2C3H2C3H2C3H2C2OC5NCONH2CNH2C5NCONH2C5NCONH2C5NCONH2C3NH3C6N2H4C6N2H4C2H2C2H2C2H2C2H2C3H2C3H2C3H2C3H2C3H2C2OC5NCONH2CNH2C5NCONH2C5NCONH2C5NCONH2C6N2H3C6N2H4C6N2H4C2H2C2H2C2H2C2H2C2H2C2H2C3H2C3H2C3H2C3H2C3H2C3H2C5NCONH2C5NCONH2C5NCONH2C5NCONH2C5NCONH2C5NCONH2C6N2H3C6N2H4C6N2H4C2H2C2H2C2H2C2H2C2H2C2H2C3H2C3H2C3H2C3H2C3H2C3H2C5NCONH2C5NCONH2C5NCONH2C5NCONH2C5NCONH2C5NCONH2
_chemical_formula_sum              "C336 N72 H192 O24"
_cell_length_a       46.3481
_cell_length_b       46.3482
_cell_length_c       14.9044
_cell_angle_alpha    90
_cell_angle_beta     90
_cell_angle_gamma    120

_space_group_name_H-M_alt    "P 1"
_space_group_IT_number       1

loop_
  _space_group_symop_operation_xyz
  'x, y, z'

loop_
  _atom_site_type_symbol
  _atom_site_label
  _atom_site_symmetry_multiplicity
  _atom_site_fract_x
  _atom_site_fract_y
  _atom_site_fract_z
  _atom_site_occupancy
  C   C1        1.0  0.02294  0.26262  0.30642  1.0000
  C   C2        1.0  0.04281  0.29855  0.29845  1.0000
  N   N1        1.0  0.03126  0.31606  0.25205  1.0000
  H   H1        1.0  0.04374  0.34014  0.24696  1.0000
  C   C3        1.0  0.04129  0.24619  0.32765  1.0000
  H   H2        1.0  0.02954  0.22116  0.33829  1.0000
  C   C4        1.0  0.02294  0.76262  0.30642  1.0000
  C   C5        1.0  0.04281  0.79854  0.29845  1.0000
  N   N2        1.0  0.03126  0.81606  0.25205  1.0000
  H   H3        1.0  0.04374  0.84014  0.24696  1.0000
  C   C6        1.0  0.04129  0.74619  0.32765  1.0000
  H   H4        1.0  0.02954  0.72116  0.33829  1.0000
  H   H5        1.0  0.01248  0.30470  0.21129  1.0000
  H   H6        1.0  0.01249  0.80470  0.21129  1.0000
  C   C7        1.0  0.07568  0.31625  0.33626  1.0000
  C   C8        1.0  0.10655  0.24124  0.27415  1.0000
  H   H7        1.0  0.09580  0.24182  0.21456  1.0000
  H   H8        1.0  0.10207  0.36097  0.20770  1.0000
  C   C9        1.0  0.09144  0.29782  0.35829  1.0000
  C   C10       1.0  0.07554  0.26316  0.34792  1.0000
  C   C11       1.0  0.09500  0.24746  0.35564  1.0000
  N   N3        1.0  0.10229  0.25549  0.51679  1.0000
  H   H9        1.0  0.11005  0.26135  0.65428  1.0000
  H   H10       1.0  0.08162  0.25606  0.52149  1.0000
  C   C12       1.0  0.09623  0.35139  0.34773  1.0000
  C   C13       1.0  0.09891  0.34879  0.51525  1.0000
  O   O1        1.0  0.06841  0.32141  0.52376  1.0000
  C   C14       1.0  0.07568  0.81624  0.33626  1.0000
  C   C15       1.0  0.10655  0.74124  0.27415  1.0000
  H   H11       1.0  0.09580  0.74182  0.21456  1.0000
  H   H12       1.0  0.10207  0.86097  0.20770  1.0000
  C   C16       1.0  0.09143  0.79782  0.35829  1.0000
  C   C17       1.0  0.07554  0.76316  0.34792  1.0000
  C   C18       1.0  0.09500  0.74746  0.35564  1.0000
  N   N4        1.0  0.10229  0.75549  0.51679  1.0000
  H   H13       1.0  0.11005  0.76135  0.65428  1.0000
  H   H14       1.0  0.08162  0.75606  0.52149  1.0000
  C   C19       1.0  0.09623  0.85140  0.34773  1.0000
  C   C20       1.0  0.09891  0.84879  0.51525  1.0000
  O   O2        1.0  0.06841  0.82141  0.52376  1.0000
  C   C21       1.0  0.13702  0.24149  0.27001  1.0000
  H   H15       1.0  0.14682  0.24248  0.20772  1.0000
  C   C22       1.0  0.11077  0.37086  0.26997  1.0000
  C   C23       1.0  0.14108  0.40125  0.27397  1.0000
  H   H16       1.0  0.15241  0.41189  0.21428  1.0000
  H   H17       1.0  0.11625  0.31025  0.37539  1.0000
  C   C24       1.0  0.11319  0.25067  0.43554  1.0000
  C   C25       1.0  0.14328  0.24923  0.43174  1.0000
  N   N5        1.0  0.14683  0.25618  0.59263  1.0000
  C   C26       1.0  0.11886  0.25832  0.59419  1.0000
  C   C27       1.0  0.14382  0.39491  0.43534  1.0000
  C   C28       1.0  0.11228  0.36482  0.43181  1.0000
  N   N6        1.0  0.11576  0.36142  0.59270  1.0000
  C   C29       1.0  0.14588  0.38940  0.59406  1.0000
  C   C30       1.0  0.13702  0.74149  0.27001  1.0000
  H   H18       1.0  0.14682  0.74248  0.20772  1.0000
  C   C31       1.0  0.11077  0.87086  0.26997  1.0000
  C   C32       1.0  0.14108  0.90125  0.27397  1.0000
  H   H19       1.0  0.15241  0.91189  0.21428  1.0000
  H   H20       1.0  0.11625  0.81025  0.37539  1.0000
  C   C33       1.0  0.11319  0.75067  0.43554  1.0000
  C   C34       1.0  0.14328  0.74923  0.43174  1.0000
  N   N7        1.0  0.14683  0.75618  0.59263  1.0000
  C   C35       1.0  0.11886  0.75832  0.59419  1.0000
  C   C36       1.0  0.14382  0.89491  0.43534  1.0000
  C   C37       1.0  0.11229  0.86482  0.43181  1.0000
  N   N8        1.0  0.11576  0.86142  0.59270  1.0000
  C   C38       1.0  0.14588  0.88940  0.59406  1.0000
  C   C39       1.0  0.48667  0.24373  0.30643  1.0000
  C   C40       1.0  0.43384  0.19012  0.33569  1.0000
  C   C41       1.0  0.46678  0.20781  0.29825  1.0000
  N   N9        1.0  0.47840  0.19030  0.25205  1.0000
  H   H21       1.0  0.99708  0.20172  0.21107  1.0000
  H   H22       1.0  0.46572  0.16626  0.24636  1.0000
  H   H23       1.0  0.51249  0.30470  0.21129  1.0000
  C   C42       1.0  0.26426  0.24452  0.30673  1.0000
  C   C43       1.0  0.31786  0.24525  0.33537  1.0000
  C   C44       1.0  0.30016  0.26053  0.29827  1.0000
  C   C45       1.0  0.24537  0.26190  0.30675  1.0000
  C   C46       1.0  0.20945  0.24588  0.29851  1.0000
  C   C47       1.0  0.19176  0.26112  0.33593  1.0000
  N   N10       1.0  0.31766  0.28967  0.25209  1.0000
  N   N11       1.0  0.19193  0.21678  0.25223  1.0000
  H   H24       1.0  0.30622  0.29696  0.21126  1.0000
  H   H25       1.0  0.34169  0.30098  0.24609  1.0000
  H   H26       1.0  0.16786  0.20524  0.24693  1.0000
  H   H27       1.0  0.20330  0.20933  0.21163  1.0000
  C   C48       1.0  0.26353  0.02134  0.30669  1.0000
  C   C49       1.0  0.26274  0.07417  0.33579  1.0000
  C   C50       1.0  0.24750  0.04123  0.29846  1.0000
  C   C51       1.0  0.24615  0.48507  0.30675  1.0000
  C   C52       1.0  0.26217  0.46518  0.29834  1.0000
  C   C53       1.0  0.24689  0.43220  0.33540  1.0000
  N   N12       1.0  0.21837  0.02961  0.25229  1.0000
  N   N13       1.0  0.29133  0.47683  0.25224  1.0000
  H   H28       1.0  0.21107  0.51088  0.21143  1.0000
  H   H29       1.0  0.20693  0.04222  0.24655  1.0000
  H   H30       1.0  0.30263  0.46411  0.24615  1.0000
  H   H31       1.0  0.29856  0.99553  0.21131  1.0000
  C   C54       1.0  0.26651  0.39712  0.26955  1.0000
  C   C55       1.0  0.26663  0.36684  0.27391  1.0000
  H   H32       1.0  0.26597  0.35545  0.21435  1.0000
  H   H33       1.0  0.26531  0.40575  0.20719  1.0000
  C   C56       1.0  0.37255  0.26482  0.26955  1.0000
  C   C57       1.0  0.40296  0.26495  0.27381  1.0000
  H   H34       1.0  0.41367  0.26428  0.21423  1.0000
  H   H35       1.0  0.36270  0.26363  0.20720  1.0000
  C   C58       1.0  0.24301  0.10923  0.26983  1.0000
  C   C59       1.0  0.24283  0.13949  0.27405  1.0000
  H   H36       1.0  0.24346  0.15088  0.21453  1.0000
  H   H37       1.0  0.24416  0.10057  0.20748  1.0000
  C   C60       1.0  0.39876  0.13545  0.26960  1.0000
  C   C61       1.0  0.36844  0.10510  0.27382  1.0000
  H   H38       1.0  0.35705  0.09427  0.21433  1.0000
  H   H39       1.0  0.40743  0.14530  0.20727  1.0000
  C   C62       1.0  0.46834  0.26017  0.32778  1.0000
  C   C63       1.0  0.43405  0.24322  0.34747  1.0000
  C   C64       1.0  0.41810  0.20855  0.35776  1.0000
  H   H40       1.0  0.48010  0.28520  0.33842  1.0000
  H   H41       1.0  0.39326  0.19612  0.37451  1.0000
  C   C65       1.0  0.24780  0.20976  0.32812  1.0000
  C   C66       1.0  0.26475  0.19238  0.34746  1.0000
  C   C67       1.0  0.29943  0.21107  0.35734  1.0000
  H   H42       1.0  0.22278  0.19652  0.33891  1.0000
  H   H43       1.0  0.31186  0.19866  0.37418  1.0000
  C   C68       1.0  0.21020  0.29532  0.35775  1.0000
  C   C69       1.0  0.24487  0.31403  0.34760  1.0000
  C   C70       1.0  0.26182  0.29667  0.32811  1.0000
  H   H44       1.0  0.19779  0.30774  0.37463  1.0000
  H   H45       1.0  0.28686  0.30992  0.33873  1.0000
  C   C71       1.0  0.29830  0.03967  0.32794  1.0000
  C   C72       1.0  0.31564  0.07396  0.34764  1.0000
  C   C73       1.0  0.29693  0.08992  0.35779  1.0000
  H   H46       1.0  0.31155  0.02790  0.33884  1.0000
  H   H47       1.0  0.30935  0.11477  0.37455  1.0000
  C   C74       1.0  0.21270  0.41643  0.35730  1.0000
  C   C75       1.0  0.19401  0.43242  0.34733  1.0000
  C   C76       1.0  0.21138  0.46674  0.32808  1.0000
  H   H48       1.0  0.20028  0.39158  0.37400  1.0000
  H   H49       1.0  0.19813  0.47852  0.33881  1.0000
  C   C77       1.0  0.15663  0.24652  0.34756  1.0000
  C   C78       1.0  0.15940  0.25193  0.51507  1.0000
  O   O3        1.0  0.18677  0.24880  0.52341  1.0000
  C   C79       1.0  0.26066  0.34918  0.35559  1.0000
  C   C80       1.0  0.25748  0.36426  0.43532  1.0000
  C   C81       1.0  0.25889  0.39577  0.43145  1.0000
  C   C82       1.0  0.26154  0.41170  0.34714  1.0000
  C   C83       1.0  0.25619  0.40922  0.51471  1.0000
  N   N14       1.0  0.25197  0.39245  0.59232  1.0000
  C   C84       1.0  0.24987  0.36235  0.59399  1.0000
  O   O4        1.0  0.25927  0.43971  0.52290  1.0000
  N   N15       1.0  0.25268  0.34858  0.51662  1.0000
  H   H50       1.0  0.24681  0.35051  0.65409  1.0000
  H   H51       1.0  0.25210  0.32732  0.52137  1.0000
  C   C85       1.0  0.15887  0.41306  0.35542  1.0000
  N   N16       1.0  0.15957  0.40588  0.51652  1.0000
  H   H52       1.0  0.15778  0.39824  0.65405  1.0000
  H   H53       1.0  0.18086  0.42652  0.52105  1.0000
  C   C86       1.0  0.41467  0.25899  0.35547  1.0000
  C   C87       1.0  0.39643  0.25583  0.43522  1.0000
  C   C88       1.0  0.36634  0.25725  0.43138  1.0000
  C   C89       1.0  0.35300  0.25990  0.34716  1.0000
  C   C90       1.0  0.35020  0.25455  0.51467  1.0000
  N   N17       1.0  0.36277  0.25034  0.59227  1.0000
  C   C91       1.0  0.39076  0.24823  0.59389  1.0000
  O   O5        1.0  0.32282  0.25767  0.52291  1.0000
  N   N18       1.0  0.40734  0.25106  0.51651  1.0000
  H   H54       1.0  0.39956  0.24520  0.65399  1.0000
  H   H55       1.0  0.42799  0.25044  0.52123  1.0000
  C   C92       1.0  0.24895  0.15724  0.35563  1.0000
  C   C93       1.0  0.25221  0.14222  0.43536  1.0000
  C   C94       1.0  0.25080  0.11071  0.43155  1.0000
  C   C95       1.0  0.24813  0.09470  0.34730  1.0000
  C   C96       1.0  0.25353  0.09731  0.51487  1.0000
  N   N19       1.0  0.25778  0.11411  0.59243  1.0000
  C   C97       1.0  0.25990  0.14422  0.59400  1.0000
  O   O6        1.0  0.25038  0.06679  0.52323  1.0000
  N   N20       1.0  0.25705  0.15795  0.51660  1.0000
  H   H56       1.0  0.26296  0.15608  0.65407  1.0000
  H   H57       1.0  0.25763  0.17920  0.52129  1.0000
  C   C98       1.0  0.35080  0.09335  0.35549  1.0000
  C   C99       1.0  0.36583  0.11154  0.43535  1.0000
  C   C100      1.0  0.39735  0.14165  0.43155  1.0000
  C   C101      1.0  0.41331  0.15497  0.34727  1.0000
  C   C102      1.0  0.41078  0.15776  0.51486  1.0000
  N   N21       1.0  0.39400  0.14516  0.59245  1.0000
  C   C103      1.0  0.36390  0.11716  0.59403  1.0000
  O   O7        1.0  0.44128  0.18513  0.52317  1.0000
  N   N22       1.0  0.35014  0.10061  0.51662  1.0000
  H   H58       1.0  0.35208  0.10834  0.65413  1.0000
  H   H59       1.0  0.32889  0.07994  0.52131  1.0000
  C   C104      1.0  0.48667  0.74373  0.30643  1.0000
  C   C105      1.0  0.43385  0.69012  0.33569  1.0000
  C   C106      1.0  0.46678  0.70781  0.29825  1.0000
  N   N23       1.0  0.47840  0.69030  0.25205  1.0000
  H   H60       1.0  0.99708  0.70172  0.21107  1.0000
  H   H61       1.0  0.46572  0.66626  0.24636  1.0000
  H   H62       1.0  0.51249  0.80470  0.21129  1.0000
  C   C107      1.0  0.26426  0.74452  0.30673  1.0000
  C   C108      1.0  0.31787  0.74525  0.33537  1.0000
  C   C109      1.0  0.30017  0.76053  0.29827  1.0000
  C   C110      1.0  0.24537  0.76190  0.30675  1.0000
  C   C111      1.0  0.20945  0.74588  0.29851  1.0000
  C   C112      1.0  0.19176  0.76112  0.33593  1.0000
  N   N24       1.0  0.31766  0.78967  0.25209  1.0000
  N   N25       1.0  0.19193  0.71678  0.25223  1.0000
  H   H63       1.0  0.30622  0.79696  0.21126  1.0000
  H   H64       1.0  0.34169  0.80098  0.24609  1.0000
  H   H65       1.0  0.16786  0.70524  0.24693  1.0000
  H   H66       1.0  0.20330  0.70933  0.21163  1.0000
  C   C113      1.0  0.26353  0.52134  0.30669  1.0000
  C   C114      1.0  0.26275  0.57417  0.33579  1.0000
  C   C115      1.0  0.24750  0.54123  0.29846  1.0000
  C   C116      1.0  0.24615  0.98507  0.30675  1.0000
  C   C117      1.0  0.26217  0.96518  0.29834  1.0000
  C   C118      1.0  0.24689  0.93220  0.33540  1.0000
  N   N26       1.0  0.21837  0.52961  0.25229  1.0000
  N   N27       1.0  0.29133  0.97683  0.25224  1.0000
  H   H67       1.0  0.21107  0.01088  0.21143  1.0000
  H   H68       1.0  0.20693  0.54222  0.24655  1.0000
  H   H69       1.0  0.30263  0.96411  0.24615  1.0000
  H   H70       1.0  0.29856  0.49553  0.21131  1.0000
  C   C119      1.0  0.26651  0.89712  0.26955  1.0000
  C   C120      1.0  0.26663  0.86684  0.27391  1.0000
  H   H71       1.0  0.26597  0.85544  0.21435  1.0000
  H   H72       1.0  0.26531  0.90575  0.20719  1.0000
  C   C121      1.0  0.37255  0.76483  0.26955  1.0000
  C   C122      1.0  0.40296  0.76495  0.27381  1.0000
  H   H73       1.0  0.41367  0.76428  0.21423  1.0000
  H   H74       1.0  0.36271  0.76362  0.20720  1.0000
  C   C123      1.0  0.24301  0.60923  0.26983  1.0000
  C   C124      1.0  0.24283  0.63949  0.27405  1.0000
  H   H75       1.0  0.24346  0.65088  0.21453  1.0000
  H   H76       1.0  0.24416  0.60057  0.20748  1.0000
  C   C125      1.0  0.39876  0.63545  0.26960  1.0000
  C   C126      1.0  0.36844  0.60510  0.27382  1.0000
  H   H77       1.0  0.35706  0.59427  0.21433  1.0000
  H   H78       1.0  0.40743  0.64531  0.20727  1.0000
  C   C127      1.0  0.46834  0.76016  0.32778  1.0000
  C   C128      1.0  0.43405  0.74322  0.34747  1.0000
  C   C129      1.0  0.41810  0.70856  0.35776  1.0000
  H   H79       1.0  0.48010  0.78519  0.33842  1.0000
  H   H80       1.0  0.39326  0.69612  0.37451  1.0000
  C   C130      1.0  0.24780  0.70976  0.32812  1.0000
  C   C131      1.0  0.26475  0.69239  0.34746  1.0000
  C   C132      1.0  0.29943  0.71106  0.35734  1.0000
  H   H81       1.0  0.22278  0.69652  0.33891  1.0000
  H   H82       1.0  0.31186  0.69866  0.37418  1.0000
  C   C133      1.0  0.21020  0.79532  0.35775  1.0000
  C   C134      1.0  0.24487  0.81402  0.34760  1.0000
  C   C135      1.0  0.26182  0.79666  0.32811  1.0000
  H   H83       1.0  0.19779  0.80774  0.37463  1.0000
  H   H84       1.0  0.28686  0.80992  0.33873  1.0000
  C   C136      1.0  0.29830  0.53967  0.32794  1.0000
  C   C137      1.0  0.31564  0.57396  0.34764  1.0000
  C   C138      1.0  0.29693  0.58992  0.35779  1.0000
  H   H85       1.0  0.31155  0.52790  0.33884  1.0000
  H   H86       1.0  0.30935  0.61477  0.37455  1.0000
  C   C139      1.0  0.21270  0.91643  0.35730  1.0000
  C   C140      1.0  0.19401  0.93242  0.34733  1.0000
  C   C141      1.0  0.21138  0.96674  0.32808  1.0000
  H   H87       1.0  0.20029  0.89158  0.37400  1.0000
  H   H88       1.0  0.19813  0.97852  0.33881  1.0000
  C   C142      1.0  0.15663  0.74652  0.34756  1.0000
  C   C143      1.0  0.15940  0.75193  0.51507  1.0000
  O   O8        1.0  0.18677  0.74880  0.52341  1.0000
  C   C144      1.0  0.26066  0.84918  0.35559  1.0000
  C   C145      1.0  0.25748  0.86426  0.43532  1.0000
  C   C146      1.0  0.25889  0.89577  0.43145  1.0000
  C   C147      1.0  0.26154  0.91170  0.34714  1.0000
  C   C148      1.0  0.25619  0.90922  0.51471  1.0000
  N   N28       1.0  0.25197  0.89245  0.59232  1.0000
  C   C149      1.0  0.24987  0.86235  0.59399  1.0000
  O   O9        1.0  0.25927  0.93971  0.52290  1.0000
  N   N29       1.0  0.25268  0.84858  0.51662  1.0000
  H   H89       1.0  0.24681  0.85051  0.65409  1.0000
  H   H90       1.0  0.25210  0.82732  0.52137  1.0000
  C   C150      1.0  0.15887  0.91305  0.35542  1.0000
  N   N30       1.0  0.15957  0.90588  0.51652  1.0000
  H   H91       1.0  0.15778  0.89824  0.65405  1.0000
  H   H92       1.0  0.18086  0.92652  0.52105  1.0000
  C   C151      1.0  0.41467  0.75899  0.35547  1.0000
  C   C152      1.0  0.39644  0.75583  0.43522  1.0000
  C   C153      1.0  0.36634  0.75725  0.43138  1.0000
  C   C154      1.0  0.35300  0.75990  0.34716  1.0000
  C   C155      1.0  0.35020  0.75455  0.51467  1.0000
  N   N31       1.0  0.36277  0.75034  0.59227  1.0000
  C   C156      1.0  0.39076  0.74823  0.59389  1.0000
  O   O10       1.0  0.32282  0.75767  0.52291  1.0000
  N   N32       1.0  0.40734  0.75106  0.51651  1.0000
  H   H93       1.0  0.39956  0.74520  0.65399  1.0000
  H   H94       1.0  0.42799  0.75044  0.52123  1.0000
  C   C157      1.0  0.24895  0.65723  0.35563  1.0000
  C   C158      1.0  0.25221  0.64222  0.43536  1.0000
  C   C159      1.0  0.25080  0.61071  0.43155  1.0000
  C   C160      1.0  0.24813  0.59470  0.34730  1.0000
  C   C161      1.0  0.25353  0.59730  0.51487  1.0000
  N   N33       1.0  0.25778  0.61411  0.59243  1.0000
  C   C162      1.0  0.25990  0.64422  0.59400  1.0000
  O   O11       1.0  0.25038  0.56680  0.52323  1.0000
  N   N34       1.0  0.25705  0.65795  0.51660  1.0000
  H   H95       1.0  0.26296  0.65608  0.65407  1.0000
  H   H96       1.0  0.25764  0.67920  0.52129  1.0000
  C   C163      1.0  0.35080  0.59335  0.35549  1.0000
  C   C164      1.0  0.36583  0.61154  0.43535  1.0000
  C   C165      1.0  0.39735  0.64165  0.43155  1.0000
  C   C166      1.0  0.41331  0.65497  0.34727  1.0000
  C   C167      1.0  0.41078  0.65776  0.51486  1.0000
  N   N35       1.0  0.39400  0.64516  0.59245  1.0000
  C   C168      1.0  0.36390  0.61716  0.59403  1.0000
  O   O12       1.0  0.44128  0.68513  0.52317  1.0000
  N   N36       1.0  0.35014  0.60061  0.51662  1.0000
  H   H97       1.0  0.35208  0.60834  0.65413  1.0000
  H   H98       1.0  0.32890  0.57994  0.52131  1.0000
  C   C169      1.0  0.98667  0.24373  0.30643  1.0000
  C   C170      1.0  0.93385  0.19012  0.33569  1.0000
  C   C171      1.0  0.96678  0.20781  0.29825  1.0000
  C   C172      1.0  0.52294  0.26262  0.30642  1.0000
  C   C173      1.0  0.54281  0.29855  0.29845  1.0000
  C   C174      1.0  0.57568  0.31625  0.33626  1.0000
  N   N37       1.0  0.97840  0.19030  0.25205  1.0000
  N   N38       1.0  0.53126  0.31606  0.25205  1.0000
  H   H99       1.0  0.49708  0.20172  0.21107  1.0000
  H   H100      1.0  0.96572  0.16626  0.24636  1.0000
  H   H101      1.0  0.54374  0.34014  0.24696  1.0000
  C   C175      1.0  0.76426  0.24452  0.30673  1.0000
  C   C176      1.0  0.81786  0.24525  0.33537  1.0000
  C   C177      1.0  0.80016  0.26053  0.29827  1.0000
  C   C178      1.0  0.74537  0.26190  0.30675  1.0000
  C   C179      1.0  0.70945  0.24588  0.29851  1.0000
  C   C180      1.0  0.69176  0.26112  0.33593  1.0000
  N   N39       1.0  0.81766  0.28967  0.25209  1.0000
  N   N40       1.0  0.69193  0.21678  0.25223  1.0000
  H   H102      1.0  0.80622  0.29696  0.21126  1.0000
  H   H103      1.0  0.84169  0.30098  0.24609  1.0000
  H   H104      1.0  0.66787  0.20524  0.24693  1.0000
  H   H105      1.0  0.70330  0.20933  0.21163  1.0000
  C   C181      1.0  0.76353  0.02134  0.30669  1.0000
  C   C182      1.0  0.76274  0.07417  0.33579  1.0000
  C   C183      1.0  0.74750  0.04123  0.29846  1.0000
  C   C184      1.0  0.74615  0.48507  0.30675  1.0000
  C   C185      1.0  0.76217  0.46518  0.29834  1.0000
  C   C186      1.0  0.74689  0.43220  0.33540  1.0000
  N   N41       1.0  0.71837  0.02961  0.25229  1.0000
  N   N42       1.0  0.79133  0.47683  0.25224  1.0000
  H   H106      1.0  0.71107  0.51088  0.21143  1.0000
  H   H107      1.0  0.70693  0.04222  0.24655  1.0000
  H   H108      1.0  0.80263  0.46411  0.24615  1.0000
  H   H109      1.0  0.79856  0.99553  0.21131  1.0000
  C   C187      1.0  0.63702  0.24149  0.27001  1.0000
  C   C188      1.0  0.60655  0.24124  0.27415  1.0000
  H   H110      1.0  0.59580  0.24182  0.21456  1.0000
  H   H111      1.0  0.64682  0.24248  0.20772  1.0000
  C   C189      1.0  0.76651  0.39712  0.26955  1.0000
  C   C190      1.0  0.76664  0.36684  0.27391  1.0000
  H   H112      1.0  0.76597  0.35545  0.21435  1.0000
  H   H113      1.0  0.76531  0.40575  0.20719  1.0000
  C   C191      1.0  0.61077  0.37086  0.26997  1.0000
  C   C192      1.0  0.64108  0.40125  0.27397  1.0000
  H   H114      1.0  0.65241  0.41189  0.21428  1.0000
  H   H115      1.0  0.60207  0.36097  0.20770  1.0000
  C   C193      1.0  0.87255  0.26482  0.26955  1.0000
  C   C194      1.0  0.90296  0.26495  0.27381  1.0000
  H   H116      1.0  0.91367  0.26428  0.21423  1.0000
  H   H117      1.0  0.86271  0.26363  0.20720  1.0000
  C   C195      1.0  0.74301  0.10923  0.26983  1.0000
  C   C196      1.0  0.74283  0.13949  0.27405  1.0000
  H   H118      1.0  0.74346  0.15088  0.21453  1.0000
  H   H119      1.0  0.74416  0.10057  0.20748  1.0000
  C   C197      1.0  0.89876  0.13545  0.26960  1.0000
  C   C198      1.0  0.86844  0.10510  0.27382  1.0000
  H   H120      1.0  0.85706  0.09427  0.21433  1.0000
  H   H121      1.0  0.90743  0.14530  0.20727  1.0000
  C   C199      1.0  0.96834  0.26017  0.32778  1.0000
  C   C200      1.0  0.93405  0.24322  0.34747  1.0000
  C   C201      1.0  0.91810  0.20855  0.35776  1.0000
  H   H122      1.0  0.98010  0.28520  0.33842  1.0000
  H   H123      1.0  0.89326  0.19612  0.37451  1.0000
  C   C202      1.0  0.59144  0.29782  0.35829  1.0000
  C   C203      1.0  0.57554  0.26316  0.34792  1.0000
  C   C204      1.0  0.54129  0.24619  0.32765  1.0000
  H   H124      1.0  0.61625  0.31025  0.37539  1.0000
  H   H125      1.0  0.52954  0.22116  0.33829  1.0000
  C   C205      1.0  0.74781  0.20976  0.32812  1.0000
  C   C206      1.0  0.76475  0.19238  0.34746  1.0000
  C   C207      1.0  0.79943  0.21107  0.35734  1.0000
  H   H126      1.0  0.72278  0.19652  0.33891  1.0000
  H   H127      1.0  0.81186  0.19866  0.37418  1.0000
  C   C208      1.0  0.71020  0.29532  0.35775  1.0000
  C   C209      1.0  0.74487  0.31403  0.34760  1.0000
  C   C210      1.0  0.76182  0.29667  0.32811  1.0000
  H   H128      1.0  0.69779  0.30774  0.37463  1.0000
  H   H129      1.0  0.78685  0.30992  0.33873  1.0000
  C   C211      1.0  0.79830  0.03967  0.32794  1.0000
  C   C212      1.0  0.81564  0.07396  0.34764  1.0000
  C   C213      1.0  0.79693  0.08992  0.35779  1.0000
  H   H130      1.0  0.81155  0.02790  0.33884  1.0000
  H   H131      1.0  0.80935  0.11477  0.37455  1.0000
  C   C214      1.0  0.71270  0.41643  0.35730  1.0000
  C   C215      1.0  0.69401  0.43242  0.34733  1.0000
  C   C216      1.0  0.71138  0.46674  0.32808  1.0000
  H   H132      1.0  0.70028  0.39158  0.37400  1.0000
  H   H133      1.0  0.69813  0.47852  0.33881  1.0000
  C   C217      1.0  0.59500  0.24746  0.35564  1.0000
  C   C218      1.0  0.61319  0.25067  0.43554  1.0000
  C   C219      1.0  0.64328  0.24923  0.43174  1.0000
  C   C220      1.0  0.65663  0.24652  0.34756  1.0000
  C   C221      1.0  0.65940  0.25193  0.51507  1.0000
  N   N43       1.0  0.64683  0.25618  0.59263  1.0000
  C   C222      1.0  0.61886  0.25832  0.59419  1.0000
  O   O13       1.0  0.68677  0.24880  0.52341  1.0000
  N   N44       1.0  0.60229  0.25549  0.51679  1.0000
  H   H134      1.0  0.61005  0.26135  0.65428  1.0000
  H   H135      1.0  0.58162  0.25606  0.52149  1.0000
  C   C223      1.0  0.76066  0.34918  0.35559  1.0000
  C   C224      1.0  0.75748  0.36426  0.43532  1.0000
  C   C225      1.0  0.75889  0.39577  0.43145  1.0000
  C   C226      1.0  0.76154  0.41170  0.34714  1.0000
  C   C227      1.0  0.75619  0.40922  0.51471  1.0000
  N   N45       1.0  0.75197  0.39245  0.59232  1.0000
  C   C228      1.0  0.74987  0.36235  0.59399  1.0000
  O   O14       1.0  0.75927  0.43971  0.52290  1.0000
  N   N46       1.0  0.75268  0.34858  0.51662  1.0000
  H   H136      1.0  0.74681  0.35051  0.65409  1.0000
  H   H137      1.0  0.75209  0.32732  0.52137  1.0000
  C   C229      1.0  0.65887  0.41306  0.35542  1.0000
  C   C230      1.0  0.64382  0.39491  0.43534  1.0000
  C   C231      1.0  0.61228  0.36482  0.43181  1.0000
  C   C232      1.0  0.59623  0.35139  0.34773  1.0000
  C   C233      1.0  0.59891  0.34879  0.51525  1.0000
  N   N47       1.0  0.61576  0.36142  0.59270  1.0000
  C   C234      1.0  0.64588  0.38940  0.59406  1.0000
  O   O15       1.0  0.56842  0.32141  0.52376  1.0000
  N   N48       1.0  0.65957  0.40588  0.51652  1.0000
  H   H138      1.0  0.65778  0.39824  0.65405  1.0000
  H   H139      1.0  0.68086  0.42652  0.52105  1.0000
  C   C235      1.0  0.91467  0.25899  0.35547  1.0000
  C   C236      1.0  0.89644  0.25583  0.43522  1.0000
  C   C237      1.0  0.86634  0.25725  0.43138  1.0000
  C   C238      1.0  0.85300  0.25990  0.34716  1.0000
  C   C239      1.0  0.85020  0.25455  0.51467  1.0000
  N   N49       1.0  0.86277  0.25034  0.59227  1.0000
  C   C240      1.0  0.89076  0.24823  0.59389  1.0000
  O   O16       1.0  0.82282  0.25767  0.52291  1.0000
  N   N50       1.0  0.90734  0.25106  0.51651  1.0000
  H   H140      1.0  0.89956  0.24520  0.65399  1.0000
  H   H141      1.0  0.92799  0.25044  0.52123  1.0000
  C   C241      1.0  0.74895  0.15724  0.35563  1.0000
  C   C242      1.0  0.75221  0.14222  0.43536  1.0000
  C   C243      1.0  0.75080  0.11071  0.43155  1.0000
  C   C244      1.0  0.74813  0.09470  0.34730  1.0000
  C   C245      1.0  0.75353  0.09731  0.51487  1.0000
  N   N51       1.0  0.75778  0.11411  0.59243  1.0000
  C   C246      1.0  0.75990  0.14422  0.59400  1.0000
  O   O17       1.0  0.75038  0.06679  0.52323  1.0000
  N   N52       1.0  0.75705  0.15795  0.51660  1.0000
  H   H142      1.0  0.76296  0.15608  0.65407  1.0000
  H   H143      1.0  0.75763  0.17920  0.52129  1.0000
  C   C247      1.0  0.85080  0.09335  0.35549  1.0000
  C   C248      1.0  0.86583  0.11154  0.43535  1.0000
  C   C249      1.0  0.89735  0.14165  0.43155  1.0000
  C   C250      1.0  0.91331  0.15497  0.34727  1.0000
  C   C251      1.0  0.91078  0.15776  0.51486  1.0000
  N   N53       1.0  0.89400  0.14516  0.59245  1.0000
  C   C252      1.0  0.86390  0.11716  0.59403  1.0000
  O   O18       1.0  0.94129  0.18513  0.52317  1.0000
  N   N54       1.0  0.85015  0.10061  0.51662  1.0000
  H   H144      1.0  0.85208  0.10834  0.65413  1.0000
  H   H145      1.0  0.82890  0.07994  0.52131  1.0000
  C   C253      1.0  0.98667  0.74373  0.30643  1.0000
  C   C254      1.0  0.93385  0.69012  0.33569  1.0000
  C   C255      1.0  0.96678  0.70781  0.29825  1.0000
  C   C256      1.0  0.52294  0.76262  0.30642  1.0000
  C   C257      1.0  0.54281  0.79854  0.29845  1.0000
  C   C258      1.0  0.57568  0.81624  0.33626  1.0000
  N   N55       1.0  0.97840  0.69030  0.25205  1.0000
  N   N56       1.0  0.53126  0.81606  0.25205  1.0000
  H   H146      1.0  0.49708  0.70172  0.21107  1.0000
  H   H147      1.0  0.96572  0.66626  0.24636  1.0000
  H   H148      1.0  0.54373  0.84014  0.24696  1.0000
  C   C259      1.0  0.76425  0.74452  0.30673  1.0000
  C   C260      1.0  0.81787  0.74525  0.33537  1.0000
  C   C261      1.0  0.80017  0.76053  0.29827  1.0000
  C   C262      1.0  0.74537  0.76190  0.30675  1.0000
  C   C263      1.0  0.70945  0.74588  0.29851  1.0000
  C   C264      1.0  0.69177  0.76112  0.33593  1.0000
  N   N57       1.0  0.81766  0.78967  0.25209  1.0000
  N   N58       1.0  0.69193  0.71678  0.25223  1.0000
  H   H149      1.0  0.80622  0.79696  0.21126  1.0000
  H   H150      1.0  0.84169  0.80098  0.24609  1.0000
  H   H151      1.0  0.66787  0.70524  0.24693  1.0000
  H   H152      1.0  0.70330  0.70933  0.21163  1.0000
  C   C265      1.0  0.76353  0.52134  0.30669  1.0000
  C   C266      1.0  0.76274  0.57417  0.33579  1.0000
  C   C267      1.0  0.74750  0.54123  0.29846  1.0000
  C   C268      1.0  0.74615  0.98507  0.30675  1.0000
  C   C269      1.0  0.76217  0.96518  0.29834  1.0000
  C   C270      1.0  0.74689  0.93220  0.33540  1.0000
  N   N59       1.0  0.71837  0.52961  0.25229  1.0000
  N   N60       1.0  0.79133  0.97683  0.25224  1.0000
  H   H153      1.0  0.71107  0.01088  0.21143  1.0000
  H   H154      1.0  0.70693  0.54222  0.24655  1.0000
  H   H155      1.0  0.80263  0.96411  0.24615  1.0000
  H   H156      1.0  0.79856  0.49553  0.21131  1.0000
  C   C271      1.0  0.63702  0.74149  0.27001  1.0000
  C   C272      1.0  0.60655  0.74124  0.27415  1.0000
  H   H157      1.0  0.59580  0.74182  0.21456  1.0000
  H   H158      1.0  0.64682  0.74248  0.20772  1.0000
  C   C273      1.0  0.76651  0.89712  0.26955  1.0000
  C   C274      1.0  0.76663  0.86684  0.27391  1.0000
  H   H159      1.0  0.76597  0.85544  0.21435  1.0000
  H   H160      1.0  0.76531  0.90575  0.20719  1.0000
  C   C275      1.0  0.61077  0.87086  0.26997  1.0000
  C   C276      1.0  0.64108  0.90125  0.27397  1.0000
  H   H161      1.0  0.65241  0.91189  0.21428  1.0000
  H   H162      1.0  0.60207  0.86097  0.20770  1.0000
  C   C277      1.0  0.87255  0.76483  0.26955  1.0000
  C   C278      1.0  0.90295  0.76495  0.27381  1.0000
  H   H163      1.0  0.91367  0.76428  0.21423  1.0000
  H   H164      1.0  0.86271  0.76362  0.20720  1.0000
  C   C279      1.0  0.74301  0.60923  0.26983  1.0000
  C   C280      1.0  0.74283  0.63949  0.27405  1.0000
  H   H165      1.0  0.74346  0.65088  0.21453  1.0000
  H   H166      1.0  0.74416  0.60057  0.20748  1.0000
  C   C281      1.0  0.89876  0.63545  0.26960  1.0000
  C   C282      1.0  0.86844  0.60510  0.27382  1.0000
  H   H167      1.0  0.85706  0.59427  0.21433  1.0000
  H   H168      1.0  0.90743  0.64531  0.20727  1.0000
  C   C283      1.0  0.96835  0.76016  0.32778  1.0000
  C   C284      1.0  0.93405  0.74322  0.34747  1.0000
  C   C285      1.0  0.91810  0.70856  0.35776  1.0000
  H   H169      1.0  0.98010  0.78519  0.33842  1.0000
  H   H170      1.0  0.89326  0.69612  0.37451  1.0000
  C   C286      1.0  0.59144  0.79782  0.35829  1.0000
  C   C287      1.0  0.57554  0.76316  0.34792  1.0000
  C   C288      1.0  0.54129  0.74619  0.32765  1.0000
  H   H171      1.0  0.61625  0.81025  0.37539  1.0000
  H   H172      1.0  0.52954  0.72116  0.33829  1.0000
  C   C289      1.0  0.74780  0.70976  0.32812  1.0000
  C   C290      1.0  0.76475  0.69239  0.34746  1.0000
  C   C291      1.0  0.79943  0.71106  0.35734  1.0000
  H   H173      1.0  0.72278  0.69652  0.33891  1.0000
  H   H174      1.0  0.81186  0.69866  0.37418  1.0000
  C   C292      1.0  0.71020  0.79532  0.35775  1.0000
  C   C293      1.0  0.74487  0.81402  0.34760  1.0000
  C   C294      1.0  0.76182  0.79666  0.32811  1.0000
  H   H175      1.0  0.69779  0.80774  0.37463  1.0000
  H   H176      1.0  0.78685  0.80992  0.33873  1.0000
  C   C295      1.0  0.79830  0.53967  0.32794  1.0000
  C   C296      1.0  0.81564  0.57396  0.34764  1.0000
  C   C297      1.0  0.79693  0.58992  0.35779  1.0000
  H   H177      1.0  0.81155  0.52790  0.33884  1.0000
  H   H178      1.0  0.80936  0.61477  0.37455  1.0000
  C   C298      1.0  0.71270  0.91643  0.35730  1.0000
  C   C299      1.0  0.69401  0.93242  0.34733  1.0000
  C   C300      1.0  0.71138  0.96674  0.32808  1.0000
  H   H179      1.0  0.70029  0.89158  0.37400  1.0000
  H   H180      1.0  0.69813  0.97852  0.33881  1.0000
  C   C301      1.0  0.59500  0.74746  0.35564  1.0000
  C   C302      1.0  0.61319  0.75067  0.43554  1.0000
  C   C303      1.0  0.64328  0.74923  0.43174  1.0000
  C   C304      1.0  0.65663  0.74652  0.34756  1.0000
  C   C305      1.0  0.65940  0.75193  0.51507  1.0000
  N   N61       1.0  0.64684  0.75618  0.59263  1.0000
  C   C306      1.0  0.61886  0.75832  0.59419  1.0000
  O   O19       1.0  0.68677  0.74880  0.52341  1.0000
  N   N62       1.0  0.60229  0.75549  0.51679  1.0000
  H   H181      1.0  0.61005  0.76135  0.65428  1.0000
  H   H182      1.0  0.58162  0.75606  0.52149  1.0000
  C   C307      1.0  0.76066  0.84918  0.35559  1.0000
  C   C308      1.0  0.75748  0.86426  0.43532  1.0000
  C   C309      1.0  0.75889  0.89577  0.43145  1.0000
  C   C310      1.0  0.76154  0.91170  0.34714  1.0000
  C   C311      1.0  0.75619  0.90922  0.51471  1.0000
  N   N63       1.0  0.75197  0.89245  0.59232  1.0000
  C   C312      1.0  0.74987  0.86235  0.59399  1.0000
  O   O20       1.0  0.75927  0.93971  0.52290  1.0000
  N   N64       1.0  0.75268  0.84858  0.51662  1.0000
  H   H183      1.0  0.74681  0.85051  0.65409  1.0000
  H   H184      1.0  0.75209  0.82732  0.52137  1.0000
  C   C313      1.0  0.65887  0.91305  0.35542  1.0000
  C   C314      1.0  0.64382  0.89491  0.43534  1.0000
  C   C315      1.0  0.61229  0.86482  0.43181  1.0000
  C   C316      1.0  0.59623  0.85140  0.34773  1.0000
  C   C317      1.0  0.59891  0.84879  0.51525  1.0000
  N   N65       1.0  0.61576  0.86142  0.59270  1.0000
  C   C318      1.0  0.64588  0.88940  0.59406  1.0000
  O   O21       1.0  0.56842  0.82141  0.52376  1.0000
  N   N66       1.0  0.65957  0.90588  0.51652  1.0000
  H   H185      1.0  0.65778  0.89824  0.65405  1.0000
  H   H186      1.0  0.68086  0.92652  0.52105  1.0000
  C   C319      1.0  0.91467  0.75899  0.35547  1.0000
  C   C320      1.0  0.89644  0.75583  0.43522  1.0000
  C   C321      1.0  0.86634  0.75725  0.43138  1.0000
  C   C322      1.0  0.85300  0.75990  0.34716  1.0000
  C   C323      1.0  0.85020  0.75455  0.51467  1.0000
  N   N67       1.0  0.86277  0.75034  0.59227  1.0000
  C   C324      1.0  0.89076  0.74823  0.59389  1.0000
  O   O22       1.0  0.82282  0.75767  0.52291  1.0000
  N   N68       1.0  0.90734  0.75106  0.51651  1.0000
  H   H187      1.0  0.89956  0.74520  0.65399  1.0000
  H   H188      1.0  0.92799  0.75044  0.52123  1.0000
  C   C325      1.0  0.74895  0.65723  0.35563  1.0000
  C   C326      1.0  0.75221  0.64222  0.43536  1.0000
  C   C327      1.0  0.75080  0.61071  0.43155  1.0000
  C   C328      1.0  0.74813  0.59470  0.34730  1.0000
  C   C329      1.0  0.75353  0.59730  0.51487  1.0000
  N   N69       1.0  0.75778  0.61411  0.59243  1.0000
  C   C330      1.0  0.75990  0.64422  0.59400  1.0000
  O   O23       1.0  0.75038  0.56680  0.52323  1.0000
  N   N70       1.0  0.75705  0.65795  0.51660  1.0000
  H   H189      1.0  0.76296  0.65608  0.65407  1.0000
  H   H190      1.0  0.75763  0.67920  0.52129  1.0000
  C   C331      1.0  0.85080  0.59335  0.35549  1.0000
  C   C332      1.0  0.86583  0.61154  0.43535  1.0000
  C   C333      1.0  0.89735  0.64165  0.43155  1.0000
  C   C334      1.0  0.91331  0.65497  0.34727  1.0000
  C   C335      1.0  0.91078  0.65776  0.51486  1.0000
  N   N71       1.0  0.89400  0.64516  0.59245  1.0000
  C   C336      1.0  0.86390  0.61716  0.59403  1.0000
  O   O24       1.0  0.94128  0.68513  0.52317  1.0000
  N   N72       1.0  0.85014  0.60061  0.51662  1.0000
  H   H191      1.0  0.85208  0.60834  0.65413  1.0000
  H   H192      1.0  0.82890  0.57994  0.52131  1.0000
