data_image0
_chemical_formula_structural       CNCHCNCHCNCHNC2HNC2HNC2HNC18H12NC18H12NC18H12NC18H12NC2HNC2HNC2HCNCHCNCHCNCH
_chemical_formula_sum              "C96 N16 H60"
_cell_length_a       38.6265
_cell_length_b       38.6266
_cell_length_c       14.757
_cell_angle_alpha    90
_cell_angle_beta     90
_cell_angle_gamma    120

_space_group_name_H-M_alt    "P 1"
_space_group_IT_number       1

loop_
  _space_group_symop_operation_xyz
  'x, y, z'

loop_
  _atom_site_type_symbol
  _atom_site_label
  _atom_site_symmetry_multiplicity
  _atom_site_fract_x
  _atom_site_fract_y
  _atom_site_fract_z
  _atom_site_occupancy
  C   C1        1.0  0.19849  0.08794  0.28168  1.0000
  N   N1        1.0  0.23911  0.10807  0.28364  1.0000
  C   C2        1.0  0.26086  0.13266  0.35292  1.0000
  H   H1        1.0  0.18464  0.06957  0.22776  1.0000
  C   C3        1.0  0.92140  0.11577  0.27461  1.0000
  N   N2        1.0  0.90045  0.13545  0.27650  1.0000
  C   C4        1.0  0.87815  0.13459  0.34888  1.0000
  H   H2        1.0  0.93785  0.11868  0.21801  1.0000
  C   C5        1.0  0.88562  0.80928  0.29481  1.0000
  N   N3        1.0  0.86603  0.76867  0.29593  1.0000
  C   C6        1.0  0.87531  0.74719  0.35429  1.0000
  H   H3        1.0  0.87709  0.82316  0.24826  1.0000
  N   N4        1.0  0.61691  0.19295  0.27016  1.0000
  C   C7        1.0  0.58175  0.19287  0.27037  1.0000
  C   C8        1.0  0.55561  0.17810  0.34573  1.0000
  H   H4        1.0  0.57572  0.20547  0.21622  1.0000
  N   N5        1.0  0.81685  0.42844  0.26980  1.0000
  C   C9        1.0  0.81698  0.39339  0.26924  1.0000
  C   C10       1.0  0.83108  0.38147  0.34489  1.0000
  H   H5        1.0  0.80483  0.37513  0.21435  1.0000
  N   N6        1.0  0.58066  0.39110  0.27406  1.0000
  C   C11       1.0  0.61580  0.42616  0.27399  1.0000
  C   C12       1.0  0.62746  0.45231  0.34939  1.0000
  H   H6        1.0  0.63425  0.43212  0.21951  1.0000
  N   N7        1.0  0.00450  0.00445  0.35431  1.0000
  C   C13       1.0  0.04713  0.02730  0.35467  1.0000
  C   C14       1.0  0.98274  0.96114  0.35473  1.0000
  C   C15       1.0  0.98513  0.02770  0.35217  1.0000
  C   C16       1.0  0.98198  0.04641  0.43133  1.0000
  C   C17       1.0  0.96142  0.06800  0.43025  1.0000
  C   C18       1.0  0.94310  0.07164  0.35021  1.0000
  C   C19       1.0  0.94682  0.05293  0.27093  1.0000
  C   C20       1.0  0.96747  0.03142  0.27178  1.0000
  C   C21       1.0  0.06859  0.04330  0.27356  1.0000
  C   C22       1.0  0.11074  0.06440  0.27331  1.0000
  C   C23       1.0  0.13303  0.07031  0.35399  1.0000
  C   C24       1.0  0.11101  0.05420  0.43511  1.0000
  C   C25       1.0  0.06886  0.03303  0.43549  1.0000
  C   C26       1.0  0.00261  0.93862  0.35767  1.0000
  C   C27       1.0  0.98150  0.89647  0.35872  1.0000
  C   C28       1.0  0.93925  0.87455  0.35508  1.0000
  C   C29       1.0  0.91911  0.89666  0.35156  1.0000
  C   C30       1.0  0.94034  0.93881  0.35236  1.0000
  H   H7        1.0  0.12502  0.07590  0.21312  1.0000
  H   H8        1.0  0.05352  0.03931  0.21401  1.0000
  H   H9        1.0  0.05396  0.02122  0.49491  1.0000
  H   H10       1.0  0.12547  0.05674  0.49490  1.0000
  H   H11       1.0  0.99436  0.04404  0.49056  1.0000
  H   H12       1.0  0.96037  0.08145  0.48903  1.0000
  H   H13       1.0  0.03309  0.95271  0.35903  1.0000
  H   H14       1.0  0.99747  0.88187  0.35991  1.0000
  H   H15       1.0  0.88855  0.88220  0.35042  1.0000
  H   H16       1.0  0.92407  0.95303  0.35109  1.0000
  H   H17       1.0  0.96896  0.01775  0.21377  1.0000
  H   H18       1.0  0.93348  0.05375  0.21178  1.0000
  N   N8        1.0  0.43230  0.21682  0.35216  1.0000
  C   C31       1.0  0.45493  0.25923  0.34663  1.0000
  C   C32       1.0  0.38980  0.19569  0.35221  1.0000
  C   C33       1.0  0.45526  0.19730  0.35496  1.0000
  C   C34       1.0  0.47646  0.19934  0.43458  1.0000
  C   C35       1.0  0.50809  0.19110  0.43244  1.0000
  C   C36       1.0  0.51978  0.18062  0.35053  1.0000
  C   C37       1.0  0.49673  0.17638  0.27212  1.0000
  C   C38       1.0  0.46526  0.18486  0.27407  1.0000
  C   C39       1.0  0.46686  0.28245  0.42647  1.0000
  C   C40       1.0  0.49808  0.32253  0.42486  1.0000
  C   C41       1.0  0.51900  0.34054  0.34367  1.0000
  C   C42       1.0  0.50546  0.31754  0.26309  1.0000
  C   C43       1.0  0.47398  0.27761  0.26452  1.0000
  C   C44       1.0  0.36834  0.19624  0.42905  1.0000
  C   C45       1.0  0.32619  0.17569  0.42917  1.0000
  C   C46       1.0  0.30376  0.15357  0.35270  1.0000
  C   C47       1.0  0.32571  0.15316  0.27598  1.0000
  C   C48       1.0  0.36787  0.17391  0.27559  1.0000
  H   H19       1.0  0.50724  0.33740  0.48526  1.0000
  H   H20       1.0  0.45500  0.26941  0.48750  1.0000
  H   H21       1.0  0.46701  0.26107  0.20637  1.0000
  H   H22       1.0  0.51968  0.32892  0.20276  1.0000
  H   H23       1.0  0.47107  0.20997  0.49317  1.0000
  H   H24       1.0  0.52458  0.19616  0.49017  1.0000
  H   H25       1.0  0.38337  0.21156  0.48575  1.0000
  H   H26       1.0  0.31207  0.17695  0.48663  1.0000
  H   H27       1.0  0.31122  0.13796  0.21863  1.0000
  H   H28       1.0  0.38252  0.17330  0.21855  1.0000
  H   H29       1.0  0.45183  0.18495  0.21453  1.0000
  H   H30       1.0  0.50382  0.16888  0.21125  1.0000
  N   N9        1.0  0.79138  0.21918  0.34850  1.0000
  C   C49       1.0  0.74899  0.19928  0.34217  1.0000
  C   C50       1.0  0.81277  0.19811  0.34816  1.0000
  C   C51       1.0  0.81086  0.26162  0.35232  1.0000
  C   C52       1.0  0.80807  0.28032  0.43194  1.0000
  C   C53       1.0  0.81655  0.32026  0.43039  1.0000
  C   C54       1.0  0.82822  0.34297  0.34924  1.0000
  C   C55       1.0  0.83321  0.32458  0.27098  1.0000
  C   C56       1.0  0.82445  0.28454  0.27226  1.0000
  C   C57       1.0  0.72545  0.18685  0.42148  1.0000
  C   C58       1.0  0.68536  0.17795  0.41980  1.0000
  C   C59       1.0  0.66764  0.18186  0.33912  1.0000
  C   C60       1.0  0.69099  0.19239  0.25893  1.0000
  C   C61       1.0  0.73095  0.20095  0.26038  1.0000
  C   C62       1.0  0.81498  0.17868  0.42702  1.0000
  C   C63       1.0  0.83628  0.15782  0.42714  1.0000
  C   C64       1.0  0.85633  0.15568  0.34858  1.0000
  C   C65       1.0  0.85382  0.17535  0.26973  1.0000
  C   C66       1.0  0.83239  0.19609  0.26942  1.0000
  H   H31       1.0  0.67021  0.17140  0.47995  1.0000
  H   H32       1.0  0.73827  0.18724  0.48234  1.0000
  H   H33       1.0  0.74775  0.21134  0.20274  1.0000
  H   H34       1.0  0.67986  0.19598  0.19900  1.0000
  H   H35       1.0  0.79671  0.26395  0.48985  1.0000
  H   H36       1.0  0.81105  0.33145  0.48794  1.0000
  H   H37       1.0  0.80127  0.17988  0.48522  1.0000
  H   H38       1.0  0.83717  0.14441  0.48615  1.0000
  H   H39       1.0  0.86744  0.17466  0.21089  1.0000
  H   H40       1.0  0.83099  0.20955  0.21105  1.0000
  H   H41       1.0  0.82503  0.27133  0.21274  1.0000
  H   H42       1.0  0.84150  0.33959  0.21066  1.0000
  N   N10       1.0  0.78950  0.57580  0.35290  1.0000
  C   C67       1.0  0.80938  0.55328  0.34602  1.0000
  C   C68       1.0  0.81068  0.61834  0.35308  1.0000
  C   C69       1.0  0.74703  0.55260  0.35670  1.0000
  C   C70       1.0  0.72818  0.53160  0.43670  1.0000
  C   C71       1.0  0.68833  0.49990  0.43518  1.0000
  C   C72       1.0  0.66586  0.48810  0.35367  1.0000
  C   C73       1.0  0.68440  0.51100  0.27493  1.0000
  C   C74       1.0  0.72437  0.54238  0.27612  1.0000
  C   C75       1.0  0.82072  0.54109  0.42540  1.0000
  C   C76       1.0  0.82987  0.51010  0.42275  1.0000
  C   C77       1.0  0.82714  0.48959  0.34100  1.0000
  C   C78       1.0  0.81753  0.50334  0.26095  1.0000
  C   C79       1.0  0.80885  0.53466  0.26336  1.0000
  C   C80       1.0  0.83543  0.63990  0.42672  1.0000
  C   C81       1.0  0.85682  0.68206  0.42681  1.0000
  C   C82       1.0  0.85382  0.70436  0.35393  1.0000
  C   C83       1.0  0.82865  0.68240  0.28058  1.0000
  C   C84       1.0  0.80776  0.64024  0.27983  1.0000
  H   H43       1.0  0.83554  0.50071  0.48288  1.0000
  H   H44       1.0  0.81932  0.55255  0.48682  1.0000
  H   H45       1.0  0.79916  0.54178  0.20561  1.0000
  H   H46       1.0  0.81477  0.48938  0.20028  1.0000
  H   H47       1.0  0.74438  0.53717  0.49505  1.0000
  H   H48       1.0  0.67703  0.48360  0.49320  1.0000
  H   H49       1.0  0.83803  0.62497  0.48105  1.0000
  H   H50       1.0  0.87425  0.69629  0.48188  1.0000
  H   H51       1.0  0.82566  0.69688  0.22574  1.0000
  H   H52       1.0  0.79047  0.62563  0.22503  1.0000
  H   H53       1.0  0.73769  0.55561  0.21627  1.0000
  H   H54       1.0  0.66962  0.50379  0.21428  1.0000
  N   N11       1.0  0.23977  0.13639  0.42246  1.0000
  C   C85       1.0  0.19917  0.11700  0.42498  1.0000
  C   C86       1.0  0.17607  0.09139  0.35349  1.0000
  H   H55       1.0  0.18587  0.12208  0.47919  1.0000
  N   N12       1.0  0.87765  0.11268  0.42166  1.0000
  C   C87       1.0  0.89802  0.09244  0.42439  1.0000
  C   C88       1.0  0.92134  0.09294  0.34976  1.0000
  H   H56       1.0  0.89528  0.07618  0.48123  1.0000
  N   N13       1.0  0.90603  0.76841  0.41295  1.0000
  C   C89       1.0  0.92719  0.80901  0.41466  1.0000
  C   C90       1.0  0.91773  0.83172  0.35489  1.0000
  H   H57       1.0  0.94957  0.82269  0.46133  1.0000
  C   C91       1.0  0.56876  0.16327  0.41771  1.0000
  N   N14       1.0  0.60434  0.16419  0.41307  1.0000
  C   C92       1.0  0.62911  0.17866  0.34006  1.0000
  H   H58       1.0  0.55191  0.15178  0.47487  1.0000
  C   C93       1.0  0.84536  0.40892  0.41789  1.0000
  N   N15       1.0  0.84443  0.44357  0.41398  1.0000
  C   C94       1.0  0.83052  0.45438  0.34079  1.0000
  H   H59       1.0  0.85633  0.40313  0.47534  1.0000
  C   C95       1.0  0.59973  0.43923  0.42185  1.0000
  N   N16       1.0  0.56498  0.40373  0.41749  1.0000
  C   C96       1.0  0.55438  0.37899  0.34436  1.0000
  H   H60       1.0  0.60531  0.45608  0.47907  1.0000
