data_image0
_chemical_formula_structural       C4NH3C4NH3N8C4NH3C4NH3C4NH3C4NH3N8C4NH3C4NH3C4NH3C4NH3C6H3C6H3C6H3C6H3C6H3C6H3C6H3C6H3C6H3C6H3C6H3C6H3N4C4NH3C4NH3C4NH3C4NH3N8C4NH3C4NH3C4NH3C4NH3N8
_chemical_formula_sum              "C144 N54 H90"
_cell_length_a       34.2175
_cell_length_b       34.0593
_cell_length_c       14.8907
_cell_angle_alpha    90
_cell_angle_beta     90
_cell_angle_gamma    90.2698

_space_group_name_H-M_alt    "P 1"
_space_group_IT_number       1

loop_
  _space_group_symop_operation_xyz
  'x, y, z'

loop_
  _atom_site_type_symbol
  _atom_site_label
  _atom_site_symmetry_multiplicity
  _atom_site_fract_x
  _atom_site_fract_y
  _atom_site_fract_z
  _atom_site_occupancy
  C   C1        1.0  0.03078  0.47320  0.31815  1.0000
  C   C2        1.0  0.03451  0.50562  0.25942  1.0000
  C   C3        1.0  0.00559  0.53517  0.25572  1.0000
  C   C4        1.0  0.97314  0.53185  0.31518  1.0000
  N   N1        1.0  0.00945  0.56436  0.19390  1.0000
  H   H1        1.0  0.03142  0.56497  0.15235  1.0000
  H   H2        1.0  0.98864  0.58300  0.18288  1.0000
  H   H3        1.0  0.05792  0.50717  0.21680  1.0000
  C   C5        1.0  0.52959  0.03159  0.32401  1.0000
  C   C6        1.0  0.49834  0.03442  0.26226  1.0000
  C   C7        1.0  0.46869  0.00535  0.25848  1.0000
  C   C8        1.0  0.47057  0.97384  0.32117  1.0000
  N   N2        1.0  0.44093  0.00808  0.19337  1.0000
  H   H4        1.0  0.44117  0.02954  0.15014  1.0000
  H   H5        1.0  0.42217  0.98715  0.18270  1.0000
  H   H6        1.0  0.49793  0.05708  0.21713  1.0000
  N   N3        1.0  0.03503  0.27858  0.31129  1.0000
  N   N4        1.0  0.04301  0.31620  0.30723  1.0000
  N   N5        1.0  0.92409  0.73552  0.31117  1.0000
  N   N6        1.0  0.91547  0.69813  0.30687  1.0000
  N   N7        1.0  0.73473  0.07843  0.31137  1.0000
  N   N8        1.0  0.69755  0.08689  0.30657  1.0000
  N   N9        1.0  0.27764  0.96901  0.30718  1.0000
  N   N10       1.0  0.31496  0.96073  0.30309  1.0000
  C   C9        1.0  0.43422  0.83337  0.32592  1.0000
  C   C10       1.0  0.41762  0.80931  0.25874  1.0000
  C   C11       1.0  0.42732  0.76907  0.25296  1.0000
  C   C12       1.0  0.45269  0.75345  0.31967  1.0000
  N   N11       1.0  0.41319  0.74765  0.18294  1.0000
  H   H7        1.0  0.39721  0.75973  0.13652  1.0000
  H   H8        1.0  0.42269  0.72140  0.17082  1.0000
  H   H9        1.0  0.39925  0.82144  0.21219  1.0000
  C   C13       1.0  0.56968  0.17101  0.31624  1.0000
  C   C14       1.0  0.54140  0.18461  0.25465  1.0000
  C   C15       1.0  0.53195  0.22497  0.24932  1.0000
  C   C16       1.0  0.55067  0.25107  0.31068  1.0000
  N   N12       1.0  0.50687  0.23698  0.18404  1.0000
  H   H10       1.0  0.49577  0.21841  0.14124  1.0000
  H   H11       1.0  0.50285  0.26461  0.17143  1.0000
  H   H12       1.0  0.52869  0.16523  0.21088  1.0000
  C   C17       1.0  0.83305  0.56791  0.32059  1.0000
  C   C18       1.0  0.81857  0.54014  0.25837  1.0000
  C   C19       1.0  0.77805  0.53176  0.25281  1.0000
  C   C20       1.0  0.75270  0.55089  0.31472  1.0000
  N   N13       1.0  0.76518  0.50742  0.18653  1.0000
  H   H13       1.0  0.78325  0.49609  0.14329  1.0000
  H   H14       1.0  0.73754  0.50426  0.17376  1.0000
  H   H15       1.0  0.83738  0.52737  0.21376  1.0000
  C   C21       1.0  0.17054  0.43613  0.32551  1.0000
  C   C22       1.0  0.18477  0.46416  0.26350  1.0000
  C   C23       1.0  0.22522  0.47280  0.25741  1.0000
  C   C24       1.0  0.25088  0.45357  0.31844  1.0000
  N   N14       1.0  0.23771  0.49751  0.19148  1.0000
  H   H16       1.0  0.21942  0.50926  0.14933  1.0000
  H   H17       1.0  0.26528  0.50132  0.17882  1.0000
  H   H18       1.0  0.16582  0.47696  0.21927  1.0000
  N   N15       1.0  0.09323  0.08742  0.28306  1.0000
  N   N16       1.0  0.11462  0.05590  0.27958  1.0000
  N   N17       1.0  0.90905  0.91724  0.28312  1.0000
  N   N18       1.0  0.88834  0.94920  0.28092  1.0000
  N   N19       1.0  0.91645  0.09372  0.28522  1.0000
  N   N20       1.0  0.94850  0.11450  0.28300  1.0000
  N   N21       1.0  0.08511  0.91247  0.28134  1.0000
  N   N22       1.0  0.05311  0.89165  0.27884  1.0000
  C   C25       1.0  0.36278  0.54613  0.34538  1.0000
  C   C26       1.0  0.35525  0.57502  0.27978  1.0000
  C   C27       1.0  0.37888  0.60935  0.27455  1.0000
  C   C28       1.0  0.40880  0.61451  0.34032  1.0000
  N   N23       1.0  0.37363  0.63402  0.20383  1.0000
  H   H19       1.0  0.35386  0.62874  0.15830  1.0000
  H   H20       1.0  0.39130  0.65568  0.19221  1.0000
  H   H21       1.0  0.33509  0.56931  0.23065  1.0000
  C   C29       1.0  0.64111  0.45828  0.34119  1.0000
  C   C30       1.0  0.64848  0.43011  0.27381  1.0000
  C   C31       1.0  0.62514  0.39562  0.26755  1.0000
  C   C32       1.0  0.59570  0.38965  0.33401  1.0000
  N   N24       1.0  0.63012  0.37160  0.19555  1.0000
  H   H22       1.0  0.64965  0.37738  0.14979  1.0000
  H   H23       1.0  0.61284  0.34956  0.18397  1.0000
  H   H24       1.0  0.66830  0.43646  0.22435  1.0000
  C   C33       1.0  0.54825  0.64492  0.34804  1.0000
  C   C34       1.0  0.57592  0.65164  0.27937  1.0000
  C   C35       1.0  0.61003  0.62816  0.27327  1.0000
  C   C36       1.0  0.61606  0.59911  0.34077  1.0000
  N   N25       1.0  0.63359  0.63251  0.20037  1.0000
  H   H25       1.0  0.62787  0.65180  0.15401  1.0000
  H   H26       1.0  0.65555  0.61529  0.18943  1.0000
  H   H27       1.0  0.56936  0.67092  0.22889  1.0000
  C   C37       1.0  0.45609  0.36031  0.34086  1.0000
  C   C38       1.0  0.42784  0.35342  0.27350  1.0000
  C   C39       1.0  0.39351  0.37666  0.26924  1.0000
  C   C40       1.0  0.38781  0.40544  0.33748  1.0000
  N   N26       1.0  0.36931  0.37227  0.19746  1.0000
  H   H28       1.0  0.37467  0.35301  0.15080  1.0000
  H   H29       1.0  0.34697  0.38916  0.18808  1.0000
  H   H30       1.0  0.43414  0.33431  0.22253  1.0000
  C   C41       1.0  0.07916  0.37440  0.35061  1.0000
  C   C42       1.0  0.11893  0.38602  0.34707  1.0000
  C   C43       1.0  0.13020  0.42544  0.33187  1.0000
  C   C44       1.0  0.10027  0.45368  0.32266  1.0000
  C   C45       1.0  0.06007  0.44355  0.32624  1.0000
  C   C46       1.0  0.05012  0.40353  0.33975  1.0000
  H   H31       1.0  0.10805  0.48259  0.31633  1.0000
  H   H32       1.0  0.02128  0.39546  0.34218  1.0000
  H   H33       1.0  0.14018  0.36504  0.35180  1.0000
  C   C47       1.0  0.92390  0.62998  0.34613  1.0000
  C   C48       1.0  0.88429  0.61835  0.33897  1.0000
  C   C49       1.0  0.87333  0.57857  0.32671  1.0000
  C   C50       1.0  0.90331  0.55014  0.32000  1.0000
  C   C51       1.0  0.94328  0.56069  0.32476  1.0000
  C   C52       1.0  0.95290  0.60059  0.34033  1.0000
  H   H34       1.0  0.89600  0.52123  0.31088  1.0000
  H   H35       1.0  0.98174  0.60853  0.34458  1.0000
  H   H36       1.0  0.86300  0.63932  0.34278  1.0000
  C   C53       1.0  0.62956  0.07900  0.34650  1.0000
  C   C54       1.0  0.61914  0.11898  0.33678  1.0000
  C   C55       1.0  0.57988  0.13062  0.32448  1.0000
  C   C56       1.0  0.55079  0.10101  0.32135  1.0000
  C   C57       1.0  0.55977  0.06067  0.33011  1.0000
  C   C58       1.0  0.59933  0.05033  0.34435  1.0000
  H   H37       1.0  0.52214  0.10915  0.31561  1.0000
  H   H38       1.0  0.60646  0.02124  0.34846  1.0000
  H   H39       1.0  0.64055  0.14007  0.33854  1.0000
  C   C59       1.0  0.37238  0.92381  0.34653  1.0000
  C   C60       1.0  0.38420  0.88411  0.34259  1.0000
  C   C61       1.0  0.42394  0.87354  0.33446  1.0000
  C   C62       1.0  0.45247  0.90365  0.33071  1.0000
  C   C63       1.0  0.44164  0.94376  0.33018  1.0000
  C   C64       1.0  0.40150  0.95324  0.33937  1.0000
  H   H40       1.0  0.48124  0.89625  0.32267  1.0000
  H   H41       1.0  0.39339  0.98211  0.34259  1.0000
  H   H42       1.0  0.36341  0.86239  0.34510  1.0000
  C   C65       1.0  0.06648  0.14427  0.34946  1.0000
  C   C66       1.0  0.02707  0.13183  0.34346  1.0000
  C   C67       1.0  0.99552  0.15848  0.34670  1.0000
  C   C68       1.0  0.00408  0.19890  0.35727  1.0000
  C   C69       1.0  0.04317  0.21267  0.36271  1.0000
  C   C70       1.0  0.07394  0.18500  0.35637  1.0000
  H   H43       1.0  0.98155  0.21851  0.36087  1.0000
  H   H44       1.0  0.10233  0.19460  0.35703  1.0000
  H   H45       1.0  0.02116  0.10234  0.33996  1.0000
  C   C71       1.0  0.93571  0.86021  0.34815  1.0000
  C   C72       1.0  0.97490  0.87321  0.34141  1.0000
  C   C73       1.0  0.00667  0.84692  0.34189  1.0000
  C   C74       1.0  0.99863  0.80641  0.35061  1.0000
  C   C75       1.0  0.95982  0.79201  0.35871  1.0000
  C   C76       1.0  0.92868  0.81935  0.35493  1.0000
  H   H46       1.0  0.02147  0.78711  0.34917  1.0000
  H   H47       1.0  0.90042  0.80946  0.35857  1.0000
  H   H48       1.0  0.98056  0.90278  0.33878  1.0000
  C   C77       1.0  0.85894  0.06749  0.34982  1.0000
  C   C78       1.0  0.87154  0.02807  0.34446  1.0000
  C   C79       1.0  0.84515  0.99610  0.34582  1.0000
  C   C80       1.0  0.80487  0.00411  0.35396  1.0000
  C   C81       1.0  0.79078  0.04311  0.36061  1.0000
  C   C82       1.0  0.81826  0.07444  0.35596  1.0000
  H   H49       1.0  0.78553  0.98108  0.35300  1.0000
  H   H50       1.0  0.80858  0.10281  0.35840  1.0000
  H   H51       1.0  0.90093  0.02237  0.34209  1.0000
  C   C83       1.0  0.14310  0.93786  0.34525  1.0000
  C   C84       1.0  0.13134  0.97750  0.34043  1.0000
  C   C85       1.0  0.15835  0.00900  0.34274  1.0000
  C   C86       1.0  0.19851  0.00016  0.35255  1.0000
  C   C87       1.0  0.21165  0.96076  0.35741  1.0000
  C   C88       1.0  0.18355  0.93008  0.35080  1.0000
  H   H52       1.0  0.21835  0.02269  0.35610  1.0000
  H   H53       1.0  0.19262  0.90148  0.35052  1.0000
  H   H54       1.0  0.10205  0.98365  0.33802  1.0000
  C   C89       1.0  0.43869  0.64395  0.33986  1.0000
  C   C90       1.0  0.47818  0.63225  0.34621  1.0000
  C   C91       1.0  0.50944  0.65953  0.34466  1.0000
  C   C92       1.0  0.50064  0.69983  0.33497  1.0000
  C   C93       1.0  0.46145  0.71281  0.32904  1.0000
  C   C94       1.0  0.43089  0.68458  0.33401  1.0000
  H   H55       1.0  0.52302  0.71985  0.33200  1.0000
  H   H56       1.0  0.40242  0.69371  0.33277  1.0000
  H   H57       1.0  0.48443  0.60286  0.34886  1.0000
  C   C95       1.0  0.56569  0.36044  0.33208  1.0000
  C   C96       1.0  0.52632  0.37259  0.33832  1.0000
  C   C97       1.0  0.49485  0.34565  0.33640  1.0000
  C   C98       1.0  0.50335  0.30537  0.32650  1.0000
  C   C99       1.0  0.54240  0.29189  0.31943  1.0000
  C   C100      1.0  0.57322  0.31977  0.32487  1.0000
  H   H58       1.0  0.48075  0.28556  0.32642  1.0000
  H   H59       1.0  0.60159  0.31045  0.32174  1.0000
  H   H60       1.0  0.52033  0.40202  0.34172  1.0000
  C   C101      1.0  0.64432  0.56846  0.33795  1.0000
  C   C102      1.0  0.63100  0.52915  0.34296  1.0000
  C   C103      1.0  0.65681  0.49697  0.33914  1.0000
  C   C104      1.0  0.69714  0.50470  0.32923  1.0000
  C   C105      1.0  0.71178  0.54363  0.32339  1.0000
  C   C106      1.0  0.68500  0.57518  0.33019  1.0000
  H   H61       1.0  0.71613  0.48157  0.32804  1.0000
  H   H62       1.0  0.69515  0.60349  0.32762  1.0000
  H   H63       1.0  0.60153  0.52376  0.34629  1.0000
  C   C107      1.0  0.35945  0.43603  0.33647  1.0000
  C   C108      1.0  0.37275  0.47532  0.34246  1.0000
  C   C109      1.0  0.34692  0.50750  0.34155  1.0000
  C   C110      1.0  0.30652  0.49979  0.33292  1.0000
  C   C111      1.0  0.29185  0.46088  0.32599  1.0000
  C   C112      1.0  0.31871  0.42932  0.33026  1.0000
  H   H64       1.0  0.28749  0.52290  0.33351  1.0000
  H   H65       1.0  0.30857  0.40103  0.32712  1.0000
  H   H66       1.0  0.40224  0.48072  0.34475  1.0000
  N   N27       1.0  0.97125  0.49938  0.36841  1.0000
  N   N28       1.0  0.99799  0.47198  0.36969  1.0000
  N   N29       1.0  0.50198  0.97282  0.37731  1.0000
  N   N30       1.0  0.52960  0.99958  0.37851  1.0000
  C   C113      1.0  0.06920  0.33406  0.36251  1.0000
  C   C114      1.0  0.08733  0.31034  0.42798  1.0000
  C   C115      1.0  0.07823  0.26988  0.43506  1.0000
  C   C116      1.0  0.05162  0.25357  0.37148  1.0000
  N   N31       1.0  0.09416  0.24887  0.50346  1.0000
  H   H67       1.0  0.11103  0.26136  0.54783  1.0000
  H   H68       1.0  0.08519  0.22249  0.51699  1.0000
  H   H69       1.0  0.10652  0.32284  0.47243  1.0000
  C   C117      1.0  0.93422  0.67037  0.35592  1.0000
  C   C118      1.0  0.96368  0.68368  0.41506  1.0000
  C   C119      1.0  0.97251  0.72423  0.42288  1.0000
  C   C120      1.0  0.95218  0.75085  0.36580  1.0000
  N   N32       1.0  0.99854  0.73585  0.48676  1.0000
  H   H70       1.0  0.01068  0.71690  0.52687  1.0000
  H   H71       1.0  0.00205  0.76335  0.50188  1.0000
  H   H72       1.0  0.97754  0.66392  0.45571  1.0000
  C   C121      1.0  0.66965  0.06825  0.35580  1.0000
  C   C122      1.0  0.68269  0.03904  0.41589  1.0000
  C   C123      1.0  0.72302  0.03041  0.42434  1.0000
  C   C124      1.0  0.74977  0.05061  0.36697  1.0000
  N   N33       1.0  0.73435  0.00474  0.48925  1.0000
  H   H73       1.0  0.71535  0.99271  0.52956  1.0000
  H   H74       1.0  0.76167  0.00145  0.50478  1.0000
  H   H75       1.0  0.66291  0.02535  0.45699  1.0000
  C   C125      1.0  0.33209  0.93339  0.35646  1.0000
  C   C126      1.0  0.30795  0.91451  0.42022  1.0000
  C   C127      1.0  0.26789  0.92410  0.42771  1.0000
  C   C128      1.0  0.25224  0.95180  0.36582  1.0000
  N   N34       1.0  0.24674  0.90769  0.49544  1.0000
  H   H76       1.0  0.25868  0.88979  0.53831  1.0000
  H   H77       1.0  0.22070  0.91686  0.50976  1.0000
  H   H78       1.0  0.31997  0.89475  0.46388  1.0000
  N   N35       1.0  0.46778  0.77881  0.38150  1.0000
  N   N36       1.0  0.45942  0.81629  0.38433  1.0000
  N   N37       1.0  0.57790  0.23563  0.36707  1.0000
  N   N38       1.0  0.58698  0.19840  0.36951  1.0000
  N   N39       1.0  0.76900  0.57742  0.37206  1.0000
  N   N40       1.0  0.80634  0.58560  0.37443  1.0000
  N   N41       1.0  0.23487  0.42671  0.37545  1.0000
  N   N42       1.0  0.19755  0.41835  0.37842  1.0000
  C   C129      1.0  0.14340  0.04791  0.33950  1.0000
  C   C130      1.0  0.15000  0.07592  0.40772  1.0000
  C   C131      1.0  0.12613  0.10984  0.41421  1.0000
  C   C132      1.0  0.09674  0.11550  0.34751  1.0000
  N   N43       1.0  0.13057  0.13365  0.48680  1.0000
  H   H79       1.0  0.15000  0.12814  0.53283  1.0000
  H   H80       1.0  0.11285  0.15510  0.49863  1.0000
  H   H81       1.0  0.16956  0.06971  0.45767  1.0000
  C   C133      1.0  0.86025  0.95735  0.34225  1.0000
  C   C134      1.0  0.85347  0.92917  0.41008  1.0000
  C   C135      1.0  0.87671  0.89478  0.41507  1.0000
  C   C136      1.0  0.90545  0.88892  0.34708  1.0000
  N   N44       1.0  0.87239  0.87070  0.48726  1.0000
  H   H82       1.0  0.85333  0.87632  0.53404  1.0000
  H   H83       1.0  0.88951  0.84856  0.49749  1.0000
  H   H84       1.0  0.83423  0.93547  0.46063  1.0000
  C   C137      1.0  0.95670  0.14325  0.34323  1.0000
  C   C138      1.0  0.92818  0.15082  0.40948  1.0000
  C   C139      1.0  0.89362  0.12758  0.41448  1.0000
  C   C140      1.0  0.88793  0.09788  0.34816  1.0000
  N   N45       1.0  0.86921  0.13282  0.48550  1.0000
  H   H85       1.0  0.87470  0.15252  0.53126  1.0000
  H   H86       1.0  0.84696  0.11574  0.49609  1.0000
  H   H87       1.0  0.93430  0.17067  0.45918  1.0000
  C   C141      1.0  0.04528  0.86236  0.33795  1.0000
  C   C142      1.0  0.07386  0.85449  0.40380  1.0000
  C   C143      1.0  0.10823  0.87790  0.40941  1.0000
  C   C144      1.0  0.11381  0.90786  0.34362  1.0000
  N   N46       1.0  0.13253  0.87246  0.48050  1.0000
  H   H88       1.0  0.12715  0.85251  0.52574  1.0000
  H   H89       1.0  0.15445  0.88978  0.49191  1.0000
  H   H90       1.0  0.06780  0.83442  0.45307  1.0000
  N   N47       1.0  0.41308  0.58552  0.40234  1.0000
  N   N48       1.0  0.39201  0.55359  0.40455  1.0000
  N   N49       1.0  0.59159  0.41792  0.39781  1.0000
  N   N50       1.0  0.61241  0.44998  0.40109  1.0000
  N   N51       1.0  0.58835  0.59564  0.40582  1.0000
  N   N52       1.0  0.55668  0.61665  0.40909  1.0000
  N   N53       1.0  0.41611  0.40901  0.40117  1.0000
  N   N54       1.0  0.44800  0.38832  0.40271  1.0000
