data_image0
_chemical_formula_structural       CNC2NC4NC18H14C2NC16H12C3NC2NC5NC4NC18H14CNC16H12C11H11CNCNC4NC16H13C4H2C2H2C2H2C2H2C2H2C2H2C2H2C2H2C4H2C4H2C4H2C2H2C7NC12H12C2NC3NC3NC18H14C12H12C3NC3NC3NC18H14C3NC3NC2NC5NC20H15C8NC14H13C2NOCHC4NOCHC4NOCHC4NOCHC4NOCHC4NOCHC4NOCHC4NOCHC2NOCHC2NOCHC2NOCHC4NOCH
_chemical_formula_sum              "C348 N36 H192 O12"
_cell_length_a       57.2548
_cell_length_b       57.2548
_cell_length_c       15.0232
_cell_angle_alpha    90.0018
_cell_angle_beta     89.9654
_cell_angle_gamma    120

_space_group_name_H-M_alt    "P 1"
_space_group_IT_number       1

loop_
  _space_group_symop_operation_xyz
  'x, y, z'

loop_
  _atom_site_type_symbol
  _atom_site_label
  _atom_site_symmetry_multiplicity
  _atom_site_fract_x
  _atom_site_fract_y
  _atom_site_fract_z
  _atom_site_occupancy
  C   C1        1.0  0.28520  0.52858  0.32852  1.0000
  N   N1        1.0  0.27625  0.48672  0.32886  1.0000
  C   C2        1.0  0.30360  0.50182  0.32979  1.0000
  C   C3        1.0  0.32347  0.49373  0.32971  1.0000
  N   N2        1.0  0.29282  0.44381  0.32997  1.0000
  C   C4        1.0  0.29460  0.42113  0.33058  1.0000
  C   C5        1.0  0.32215  0.42983  0.33274  1.0000
  C   C6        1.0  0.33611  0.45758  0.32970  1.0000
  C   C7        1.0  0.27328  0.39382  0.32929  1.0000
  N   N3        1.0  0.23325  0.40090  0.32917  1.0000
  C   C8        1.0  0.20594  0.38577  0.32946  1.0000
  C   C9        1.0  0.22425  0.35899  0.32693  1.0000
  C   C10       1.0  0.21484  0.46655  0.32835  1.0000
  C   C11       1.0  0.23611  0.49384  0.32915  1.0000
  C   C12       1.0  0.22889  0.51448  0.33249  1.0000
  C   C13       1.0  0.21528  0.51859  0.26119  1.0000
  C   C14       1.0  0.20864  0.53915  0.26482  1.0000
  C   C15       1.0  0.21674  0.55758  0.33706  1.0000
  C   C16       1.0  0.14599  0.35527  0.26188  1.0000
  C   C17       1.0  0.11852  0.33549  0.26571  1.0000
  C   C18       1.0  0.28052  0.37323  0.32778  1.0000
  C   C19       1.0  0.29790  0.33401  0.32855  1.0000
  C   C20       1.0  0.30413  0.35244  0.25699  1.0000
  C   C21       1.0  0.29484  0.37095  0.25494  1.0000
  C   C22       1.0  0.35136  0.51436  0.32843  1.0000
  C   C23       1.0  0.36218  0.53217  0.25547  1.0000
  C   C24       1.0  0.38882  0.55385  0.25748  1.0000
  C   C25       1.0  0.40657  0.55769  0.32920  1.0000
  H   H1        1.0  0.39464  0.56734  0.20621  1.0000
  H   H2        1.0  0.35019  0.53044  0.20242  1.0000
  H   H3        1.0  0.28394  0.54575  0.32724  1.0000
  H   H4        1.0  0.26656  0.46736  0.32821  1.0000
  H   H5        1.0  0.24295  0.42026  0.32990  1.0000
  H   H6        1.0  0.35666  0.46900  0.32875  1.0000
  H   H7        1.0  0.33116  0.41830  0.33477  1.0000
  H   H8        1.0  0.30000  0.38390  0.20206  1.0000
  H   H9        1.0  0.31638  0.35341  0.20596  1.0000
  H   H10       1.0  0.22551  0.34183  0.32490  1.0000
  H   H11       1.0  0.15698  0.35614  0.20694  1.0000
  H   H12       1.0  0.11082  0.32234  0.21356  1.0000
  H   H13       1.0  0.19811  0.54067  0.21243  1.0000
  H   H14       1.0  0.20987  0.50643  0.20618  1.0000
  C   C26       1.0  0.53655  0.75625  0.32870  1.0000
  C   C27       1.0  0.56330  0.80141  0.33023  1.0000
  N   N4        1.0  0.62131  0.84864  0.33048  1.0000
  C   C28       1.0  0.64399  0.87310  0.33106  1.0000
  C   C29       1.0  0.63529  0.89195  0.33331  1.0000
  C   C30       1.0  0.60754  0.87817  0.33038  1.0000
  C   C31       1.0  0.67130  0.87910  0.32965  1.0000
  C   C32       1.0  0.67936  0.81981  0.32968  1.0000
  C   C33       1.0  0.70614  0.86491  0.32706  1.0000
  C   C34       1.0  0.59859  0.74793  0.32877  1.0000
  C   C35       1.0  0.54657  0.69632  0.26162  1.0000
  C   C36       1.0  0.52601  0.66912  0.26528  1.0000
  C   C37       1.0  0.70991  0.79037  0.26229  1.0000
  C   C38       1.0  0.72968  0.78268  0.26618  1.0000
  C   C39       1.0  0.69189  0.90693  0.32811  1.0000
  C   C40       1.0  0.71269  0.95131  0.25726  1.0000
  C   C41       1.0  0.69418  0.92350  0.25524  1.0000
  C   C42       1.0  0.53298  0.82963  0.25591  1.0000
  C   C43       1.0  0.51133  0.83464  0.25774  1.0000
  H   H15       1.0  0.49790  0.82700  0.20636  1.0000
  H   H16       1.0  0.53479  0.81942  0.20280  1.0000
  H   H17       1.0  0.51938  0.73781  0.32753  1.0000
  H   H18       1.0  0.59611  0.88729  0.32939  1.0000
  H   H19       1.0  0.64681  0.91249  0.33529  1.0000
  H   H20       1.0  0.68121  0.91571  0.20245  1.0000
  H   H21       1.0  0.71169  0.96259  0.20630  1.0000
  H   H22       1.0  0.72330  0.88333  0.32537  1.0000
  H   H23       1.0  0.70906  0.80049  0.20733  1.0000
  H   H24       1.0  0.74285  0.78812  0.21404  1.0000
  H   H25       1.0  0.52450  0.65706  0.21292  1.0000
  H   H26       1.0  0.55875  0.70307  0.20660  1.0000
  C   C44       1.0  0.28484  0.75592  0.33111  1.0000
  C   C45       1.0  0.30889  0.77994  0.32795  1.0000
  C   C46       1.0  0.30331  0.80107  0.32855  1.0000
  N   N5        1.0  0.27597  0.78888  0.32846  1.0000
  C   C47       1.0  0.26373  0.76154  0.32937  1.0000
  C   C48       1.0  0.23576  0.74166  0.32941  1.0000
  N   N6        1.0  0.21650  0.77232  0.32959  1.0000
  C   C49       1.0  0.19204  0.77054  0.33019  1.0000
  C   C50       1.0  0.17318  0.74299  0.33245  1.0000
  C   C51       1.0  0.18697  0.72903  0.32951  1.0000
  C   C52       1.0  0.18605  0.79186  0.32879  1.0000
  C   C53       1.0  0.20586  0.81978  0.32803  1.0000
  N   N7        1.0  0.23316  0.83189  0.32857  1.0000
  C   C54       1.0  0.24534  0.85920  0.32884  1.0000
  C   C55       1.0  0.22429  0.86490  0.32953  1.0000
  C   C56       1.0  0.20025  0.84089  0.32621  1.0000
  C   C57       1.0  0.27328  0.87894  0.32901  1.0000
  N   N8        1.0  0.29270  0.84840  0.32774  1.0000
  C   C58       1.0  0.31722  0.85030  0.32809  1.0000
  C   C59       1.0  0.32323  0.82902  0.32883  1.0000
  C   C60       1.0  0.35108  0.83624  0.33228  1.0000
  C   C61       1.0  0.36886  0.84990  0.26107  1.0000
  C   C62       1.0  0.39606  0.85655  0.26485  1.0000
  C   C63       1.0  0.40634  0.84841  0.33715  1.0000
  C   C64       1.0  0.28059  0.90677  0.33265  1.0000
  C   C65       1.0  0.27483  0.91920  0.26148  1.0000
  C   C66       1.0  0.28250  0.94666  0.26543  1.0000
  C   C67       1.0  0.29782  0.96329  0.33758  1.0000
  C   C68       1.0  0.15822  0.78462  0.32730  1.0000
  C   C69       1.0  0.10162  0.76723  0.32817  1.0000
  C   C70       1.0  0.11383  0.76103  0.25659  1.0000
  C   C71       1.0  0.14164  0.77031  0.25451  1.0000
  C   C72       1.0  0.22850  0.71377  0.32811  1.0000
  C   C73       1.0  0.23551  0.70298  0.25510  1.0000
  C   C74       1.0  0.23056  0.67634  0.25714  1.0000
  C   C75       1.0  0.21663  0.65856  0.32883  1.0000
  H   H27       1.0  0.23822  0.67053  0.20580  1.0000
  H   H28       1.0  0.24578  0.71499  0.20208  1.0000
  H   H29       1.0  0.32732  0.78120  0.32688  1.0000
  H   H30       1.0  0.26631  0.79858  0.32797  1.0000
  H   H31       1.0  0.24282  0.82219  0.32929  1.0000
  H   H32       1.0  0.17785  0.70848  0.32853  1.0000
  H   H33       1.0  0.15265  0.73398  0.33445  1.0000
  H   H34       1.0  0.14943  0.76514  0.20166  1.0000
  H   H35       1.0  0.10256  0.74874  0.20566  1.0000
  H   H36       1.0  0.18183  0.83963  0.32436  1.0000
  H   H37       1.0  0.26475  0.90824  0.20647  1.0000
  H   H38       1.0  0.27711  0.95440  0.21325  1.0000
  H   H39       1.0  0.40816  0.86712  0.21255  1.0000
  H   H40       1.0  0.36215  0.85533  0.20604  1.0000
  C   C76       1.0  0.78348  0.54136  0.33040  1.0000
  N   N9        1.0  0.79426  0.59937  0.33074  1.0000
  C   C77       1.0  0.79249  0.62205  0.33132  1.0000
  C   C78       1.0  0.76493  0.61335  0.33353  1.0000
  C   C79       1.0  0.75097  0.58561  0.33058  1.0000
  C   C80       1.0  0.81380  0.64936  0.32991  1.0000
  C   C81       1.0  0.88115  0.65741  0.32986  1.0000
  C   C82       1.0  0.86284  0.68419  0.32742  1.0000
  C   C83       1.0  0.87224  0.57662  0.32890  1.0000
  C   C84       1.0  0.87184  0.52461  0.26177  1.0000
  C   C85       1.0  0.87847  0.50404  0.26544  1.0000
  C   C86       1.0  0.94111  0.68791  0.26217  1.0000
  C   C87       1.0  0.96857  0.70770  0.26595  1.0000
  C   C88       1.0  0.80657  0.66995  0.32835  1.0000
  C   C89       1.0  0.78297  0.69072  0.25752  1.0000
  C   C90       1.0  0.79232  0.67224  0.25542  1.0000
  C   C91       1.0  0.72493  0.51103  0.25613  1.0000
  C   C92       1.0  0.69828  0.48936  0.25809  1.0000
  H   H41       1.0  0.69248  0.47589  0.20679  1.0000
  H   H42       1.0  0.73694  0.51279  0.20307  1.0000
  H   H43       1.0  0.80313  0.49743  0.32771  1.0000
  H   H44       1.0  0.73042  0.57418  0.32939  1.0000
  H   H45       1.0  0.75593  0.62489  0.33534  1.0000
  H   H46       1.0  0.78711  0.65924  0.20269  1.0000
  H   H47       1.0  0.77071  0.68972  0.20654  1.0000
  H   H48       1.0  0.86158  0.70136  0.32563  1.0000
  H   H49       1.0  0.93012  0.68705  0.20727  1.0000
  H   H50       1.0  0.97629  0.72085  0.21376  1.0000
  H   H51       1.0  0.88907  0.50255  0.21313  1.0000
  H   H52       1.0  0.87729  0.53679  0.20678  1.0000
  C   C93       1.0  0.44308  0.17007  0.33164  1.0000
  C   C94       1.0  0.45179  0.15122  0.33380  1.0000
  C   C95       1.0  0.47953  0.16501  0.33080  1.0000
  C   C96       1.0  0.54055  0.34686  0.26221  1.0000
  C   C97       1.0  0.56110  0.37406  0.26582  1.0000
  C   C98       1.0  0.37725  0.25283  0.26256  1.0000
  C   C99       1.0  0.35748  0.26052  0.26625  1.0000
  C   C100      1.0  0.37444  0.09192  0.25744  1.0000
  C   C101      1.0  0.39296  0.11973  0.25563  1.0000
  C   C102      1.0  0.55412  0.21355  0.25645  1.0000
  C   C103      1.0  0.57579  0.20858  0.25836  1.0000
  H   H53       1.0  0.58927  0.21626  0.20705  1.0000
  H   H54       1.0  0.55237  0.22382  0.20342  1.0000
  H   H55       1.0  0.56771  0.30536  0.32828  1.0000
  H   H56       1.0  0.49096  0.15589  0.32985  1.0000
  H   H57       1.0  0.40594  0.12757  0.20282  1.0000
  H   H58       1.0  0.37544  0.08069  0.20634  1.0000
  H   H59       1.0  0.36378  0.15986  0.32584  1.0000
  H   H60       1.0  0.37815  0.24271  0.20767  1.0000
  H   H61       1.0  0.34435  0.25508  0.21404  1.0000
  H   H62       1.0  0.56263  0.38612  0.21343  1.0000
  H   H63       1.0  0.52839  0.34011  0.20720  1.0000
  C   C104      1.0  0.77821  0.26324  0.32862  1.0000
  N   N10       1.0  0.81113  0.25430  0.32909  1.0000
  C   C105      1.0  0.82337  0.28164  0.33002  1.0000
  N   N11       1.0  0.87060  0.27087  0.33026  1.0000
  C   C106      1.0  0.89507  0.27265  0.33084  1.0000
  C   C107      1.0  0.91392  0.30021  0.33302  1.0000
  C   C108      1.0  0.90013  0.31417  0.33006  1.0000
  C   C109      1.0  0.90106  0.25134  0.32947  1.0000
  N   N12       1.0  0.85395  0.21130  0.32921  1.0000
  C   C110      1.0  0.84177  0.18399  0.32954  1.0000
  C   C111      1.0  0.88687  0.20231  0.32697  1.0000
  C   C112      1.0  0.76989  0.19289  0.32866  1.0000
  C   C113      1.0  0.76387  0.21416  0.32945  1.0000
  C   C114      1.0  0.71826  0.19330  0.26174  1.0000
  C   C115      1.0  0.69106  0.18666  0.26554  1.0000
  C   C116      1.0  0.68077  0.19481  0.33781  1.0000
  C   C117      1.0  0.81234  0.12402  0.26212  1.0000
  C   C118      1.0  0.80464  0.09656  0.26600  1.0000
  C   C119      1.0  0.92889  0.25858  0.32793  1.0000
  C   C120      1.0  0.98548  0.27597  0.32858  1.0000
  C   C121      1.0  0.97327  0.28215  0.25700  1.0000
  C   C122      1.0  0.94546  0.27286  0.25502  1.0000
  C   C123      1.0  0.85859  0.32942  0.32874  1.0000
  C   C124      1.0  0.85158  0.34022  0.25581  1.0000
  C   C125      1.0  0.85658  0.36687  0.25776  1.0000
  H   H64       1.0  0.84894  0.37269  0.20645  1.0000
  H   H65       1.0  0.84137  0.32823  0.20270  1.0000
  H   H66       1.0  0.75978  0.26198  0.32753  1.0000
  H   H67       1.0  0.82079  0.24461  0.32855  1.0000
  H   H68       1.0  0.90925  0.33471  0.32902  1.0000
  H   H69       1.0  0.93445  0.30921  0.33498  1.0000
  H   H70       1.0  0.93767  0.27804  0.20221  1.0000
  H   H71       1.0  0.98455  0.29443  0.20601  1.0000
  H   H72       1.0  0.90529  0.20357  0.32530  1.0000
  H   H73       1.0  0.82247  0.13500  0.20717  1.0000
  H   H74       1.0  0.81009  0.08883  0.21386  1.0000
  H   H75       1.0  0.67898  0.17611  0.21323  1.0000
  H   H76       1.0  0.72499  0.18787  0.20668  1.0000
  C   C126      1.0  0.21298  0.63171  0.33194  1.0000
  C   C127      1.0  0.21298  0.58071  0.33582  1.0000
  C   C128      1.0  0.21269  0.59333  0.25483  1.0000
  C   C129      1.0  0.21209  0.61763  0.25299  1.0000
  H   H77       1.0  0.21187  0.62532  0.19183  1.0000
  H   H78       1.0  0.21425  0.58575  0.19496  1.0000
  C   C130      1.0  0.47184  0.61900  0.25526  1.0000
  C   C131      1.0  0.44752  0.59411  0.25344  1.0000
  H   H79       1.0  0.43987  0.58619  0.19226  1.0000
  H   H80       1.0  0.47943  0.62814  0.19540  1.0000
  C   C132      1.0  0.44621  0.85252  0.25512  1.0000
  C   C133      1.0  0.47111  0.85313  0.25342  1.0000
  H   H81       1.0  0.47907  0.85338  0.19228  1.0000
  H   H82       1.0  0.43711  0.85099  0.19521  1.0000
  C   C134      1.0  0.87446  0.44989  0.25549  1.0000
  C   C135      1.0  0.87504  0.42558  0.25368  1.0000
  H   H83       1.0  0.87531  0.41791  0.19251  1.0000
  H   H84       1.0  0.87291  0.45746  0.19563  1.0000
  C   C136      1.0  0.61528  0.42420  0.25582  1.0000
  C   C137      1.0  0.63957  0.44910  0.25398  1.0000
  H   H85       1.0  0.64727  0.45703  0.19280  1.0000
  H   H86       1.0  0.60771  0.41507  0.19596  1.0000
  C   C138      1.0  0.64093  0.19070  0.25579  1.0000
  C   C139      1.0  0.61604  0.19013  0.25409  1.0000
  H   H87       1.0  0.60810  0.18987  0.19296  1.0000
  H   H88       1.0  0.65005  0.19226  0.19589  1.0000
  C   C140      1.0  0.05843  0.30870  0.25518  1.0000
  C   C141      1.0  0.03005  0.29397  0.25310  1.0000
  H   H89       1.0  0.02109  0.28925  0.19187  1.0000
  H   H90       1.0  0.06814  0.31488  0.19539  1.0000
  C   C142      1.0  0.75647  0.74938  0.25570  1.0000
  C   C143      1.0  0.77115  0.73568  0.25362  1.0000
  H   H91       1.0  0.77590  0.73144  0.19239  1.0000
  H   H92       1.0  0.75029  0.75289  0.19591  1.0000
  C   C144      1.0  0.33821  0.05085  0.33212  1.0000
  C   C145      1.0  0.30882  0.99209  0.33626  1.0000
  C   C146      1.0  0.31581  0.00676  0.25513  1.0000
  C   C147      1.0  0.32946  0.03514  0.25318  1.0000
  H   H93       1.0  0.33375  0.04415  0.19199  1.0000
  H   H94       1.0  0.31233  0.99710  0.19530  1.0000
  C   C148      1.0  0.07281  0.75614  0.33174  1.0000
  C   C149      1.0  0.01405  0.72681  0.33642  1.0000
  C   C150      1.0  0.02866  0.73448  0.25516  1.0000
  C   C151      1.0  0.05704  0.74917  0.25295  1.0000
  H   H95       1.0  0.06600  0.75389  0.19167  1.0000
  H   H96       1.0  0.01896  0.72828  0.19541  1.0000
  C   C152      1.0  0.30895  0.31626  0.33204  1.0000
  C   C153      1.0  0.33831  0.28686  0.33669  1.0000
  C   C154      1.0  0.33068  0.29382  0.25545  1.0000
  C   C155      1.0  0.31595  0.30747  0.25324  1.0000
  H   H97       1.0  0.31126  0.31172  0.19197  1.0000
  H   H98       1.0  0.33689  0.29031  0.19570  1.0000
  C   C156      1.0  0.77134  0.03647  0.25550  1.0000
  C   C157      1.0  0.75765  0.00809  0.25341  1.0000
  H   H99       1.0  0.75342  0.99912  0.19217  1.0000
  H   H100      1.0  0.77486  0.04617  0.19571  1.0000
  C   C158      1.0  0.30921  0.52855  0.33156  1.0000
  C   C159      1.0  0.26406  0.50187  0.32898  1.0000
  C   C160      1.0  0.31737  0.46641  0.33004  1.0000
  C   C161      1.0  0.24536  0.38571  0.32863  1.0000
  C   C162      1.0  0.20024  0.35902  0.33022  1.0000
  C   C163      1.0  0.18620  0.39397  0.32952  1.0000
  C   C164      1.0  0.19225  0.42129  0.32805  1.0000
  N   N13       1.0  0.21674  0.44393  0.32815  1.0000
  C   C165      1.0  0.18728  0.45779  0.32913  1.0000
  C   C166      1.0  0.17343  0.43004  0.32637  1.0000
  C   C167      1.0  0.23067  0.55329  0.40759  1.0000
  C   C168      1.0  0.23577  0.53170  0.40700  1.0000
  C   C169      1.0  0.15837  0.37345  0.33307  1.0000
  C   C170      1.0  0.10184  0.33417  0.33781  1.0000
  C   C171      1.0  0.11461  0.35289  0.40807  1.0000
  C   C172      1.0  0.14242  0.37141  0.40755  1.0000
  C   C173      1.0  0.27408  0.35505  0.39943  1.0000
  C   C174      1.0  0.28170  0.33520  0.39792  1.0000
  C   C175      1.0  0.36872  0.51780  0.40022  1.0000
  C   C176      1.0  0.39594  0.53836  0.39881  1.0000
  H   H101      1.0  0.40778  0.53896  0.45045  1.0000
  H   H102      1.0  0.36172  0.50505  0.45379  1.0000
  H   H103      1.0  0.32765  0.54569  0.33402  1.0000
  H   H104      1.0  0.26339  0.35587  0.45282  1.0000
  H   H105      1.0  0.27531  0.32178  0.44935  1.0000
  H   H106      1.0  0.18179  0.34188  0.33132  1.0000
  H   H107      1.0  0.17822  0.46928  0.33046  1.0000
  H   H108      1.0  0.15289  0.41853  0.32507  1.0000
  H   H109      1.0  0.15065  0.38458  0.45968  1.0000
  H   H110      1.0  0.10376  0.35429  0.45958  1.0000
  H   H111      1.0  0.24598  0.52958  0.45944  1.0000
  H   H112      1.0  0.23853  0.56653  0.45933  1.0000
  C   C177      1.0  0.53658  0.78029  0.33198  1.0000
  C   C178      1.0  0.56327  0.76183  0.32933  1.0000
  N   N14       1.0  0.57841  0.78917  0.32931  1.0000
  C   C179      1.0  0.57139  0.82937  0.33026  1.0000
  C   C180      1.0  0.59871  0.85059  0.33066  1.0000
  C   C181      1.0  0.67942  0.85929  0.32886  1.0000
  N   N15       1.0  0.66423  0.83199  0.32937  1.0000
  C   C182      1.0  0.70611  0.84087  0.33043  1.0000
  C   C183      1.0  0.67117  0.79187  0.32981  1.0000
  C   C184      1.0  0.64385  0.77060  0.32843  1.0000
  N   N16       1.0  0.62120  0.77245  0.32851  1.0000
  C   C185      1.0  0.60734  0.72913  0.32949  1.0000
  C   C186      1.0  0.63510  0.74304  0.32686  1.0000
  C   C187      1.0  0.57130  0.74191  0.32953  1.0000
  C   C188      1.0  0.55066  0.71406  0.33289  1.0000
  C   C189      1.0  0.50754  0.65881  0.33749  1.0000
  C   C190      1.0  0.51179  0.67706  0.40793  1.0000
  C   C191      1.0  0.53343  0.70372  0.40744  1.0000
  C   C192      1.0  0.69168  0.78457  0.33344  1.0000
  C   C193      1.0  0.73096  0.76731  0.33827  1.0000
  C   C194      1.0  0.71223  0.76139  0.40856  1.0000
  C   C195      1.0  0.69369  0.77066  0.40791  1.0000
  C   C196      1.0  0.71006  0.91867  0.39973  1.0000
  C   C197      1.0  0.72989  0.94613  0.39821  1.0000
  C   C198      1.0  0.73109  0.96352  0.32883  1.0000
  C   C199      1.0  0.55076  0.83663  0.32892  1.0000
  C   C200      1.0  0.54727  0.85054  0.40069  1.0000
  C   C201      1.0  0.50744  0.84854  0.32944  1.0000
  C   C202      1.0  0.52671  0.85720  0.39917  1.0000
  H   H113      1.0  0.52608  0.86844  0.45080  1.0000
  H   H114      1.0  0.55998  0.85628  0.45431  1.0000
  H   H115      1.0  0.51943  0.78157  0.33436  1.0000
  H   H116      1.0  0.59777  0.79883  0.32883  1.0000
  H   H117      1.0  0.64487  0.82233  0.33008  1.0000
  H   H118      1.0  0.70922  0.90717  0.45314  1.0000
  H   H119      1.0  0.74331  0.95318  0.44961  1.0000
  H   H120      1.0  0.72325  0.83957  0.33176  1.0000
  H   H121      1.0  0.59586  0.70859  0.33087  1.0000
  H   H122      1.0  0.64661  0.73401  0.32538  1.0000
  H   H123      1.0  0.68051  0.76573  0.46006  1.0000
  H   H124      1.0  0.71078  0.74911  0.46002  1.0000
  H   H125      1.0  0.53550  0.71608  0.45976  1.0000
  H   H126      1.0  0.49854  0.67168  0.45967  1.0000
  C   C203      1.0  0.21454  0.74777  0.32977  1.0000
  C   C204      1.0  0.29455  0.87289  0.32769  1.0000
  C   C205      1.0  0.33602  0.87786  0.32886  1.0000
  C   C206      1.0  0.32212  0.89171  0.32622  1.0000
  C   C207      1.0  0.38806  0.83441  0.40753  1.0000
  C   C208      1.0  0.36138  0.82933  0.40686  1.0000
  C   C209      1.0  0.30374  0.95048  0.40781  1.0000
  C   C210      1.0  0.29442  0.92266  0.40725  1.0000
  C   C211      1.0  0.14647  0.79107  0.39894  1.0000
  C   C212      1.0  0.11901  0.78343  0.39749  1.0000
  C   C213      1.0  0.21457  0.69639  0.39991  1.0000
  C   C214      1.0  0.20792  0.66918  0.39848  1.0000
  H   H127      1.0  0.19665  0.65732  0.45011  1.0000
  H   H128      1.0  0.20881  0.70338  0.45350  1.0000
  H   H129      1.0  0.28355  0.73749  0.33362  1.0000
  H   H130      1.0  0.15797  0.80174  0.45233  1.0000
  H   H131      1.0  0.11196  0.78981  0.44893  1.0000
  H   H132      1.0  0.22559  0.88334  0.33077  1.0000
  H   H133      1.0  0.35656  0.88691  0.33036  1.0000
  H   H134      1.0  0.33115  0.91225  0.32482  1.0000
  H   H135      1.0  0.29937  0.91442  0.45930  1.0000
  H   H136      1.0  0.31596  0.96130  0.45935  1.0000
  H   H137      1.0  0.34899  0.81908  0.45920  1.0000
  H   H138      1.0  0.39341  0.82656  0.45935  1.0000
  C   C215      1.0  0.77786  0.51463  0.33214  1.0000
  C   C216      1.0  0.80187  0.51460  0.32894  1.0000
  C   C217      1.0  0.82301  0.54131  0.32949  1.0000
  N   N17       1.0  0.81082  0.55646  0.32947  1.0000
  C   C218      1.0  0.76360  0.54945  0.33043  1.0000
  C   C219      1.0  0.76971  0.57678  0.33084  1.0000
  C   C220      1.0  0.84173  0.65747  0.32917  1.0000
  N   N18       1.0  0.85384  0.64228  0.32963  1.0000
  C   C221      1.0  0.88684  0.68416  0.33066  1.0000
  C   C222      1.0  0.90089  0.64921  0.32989  1.0000
  C   C223      1.0  0.89483  0.62189  0.32849  1.0000
  N   N19       1.0  0.87034  0.59925  0.32861  1.0000
  C   C224      1.0  0.89980  0.58538  0.32961  1.0000
  C   C225      1.0  0.91365  0.61313  0.32687  1.0000
  C   C226      1.0  0.85096  0.54934  0.32967  1.0000
  C   C227      1.0  0.85817  0.52870  0.33303  1.0000
  C   C228      1.0  0.87031  0.48559  0.33765  1.0000
  C   C229      1.0  0.85632  0.48985  0.40812  1.0000
  C   C230      1.0  0.85126  0.51147  0.40756  1.0000
  C   C231      1.0  0.92871  0.66972  0.33339  1.0000
  C   C232      1.0  0.98525  0.70900  0.33795  1.0000
  C   C233      1.0  0.97246  0.69027  0.40826  1.0000
  C   C234      1.0  0.94465  0.67176  0.40782  1.0000
  C   C235      1.0  0.81298  0.68812  0.39998  1.0000
  C   C236      1.0  0.80535  0.70796  0.39842  1.0000
  C   C237      1.0  0.78917  0.70914  0.32903  1.0000
  C   C238      1.0  0.73571  0.52882  0.32913  1.0000
  C   C239      1.0  0.71832  0.52536  0.40092  1.0000
  C   C240      1.0  0.68049  0.48549  0.32981  1.0000
  C   C241      1.0  0.69110  0.50480  0.39946  1.0000
  H   H139      1.0  0.67923  0.50419  0.45108  1.0000
  H   H140      1.0  0.72530  0.53810  0.45449  1.0000
  H   H141      1.0  0.75943  0.49748  0.33458  1.0000
  H   H142      1.0  0.82052  0.57582  0.32894  1.0000
  H   H143      1.0  0.84414  0.62292  0.33026  1.0000
  H   H144      1.0  0.82364  0.68729  0.45340  1.0000
  H   H145      1.0  0.81171  0.72138  0.44984  1.0000
  H   H146      1.0  0.90529  0.70130  0.33190  1.0000
  H   H147      1.0  0.90885  0.57389  0.33112  1.0000
  H   H148      1.0  0.93419  0.62464  0.32560  1.0000
  H   H149      1.0  0.93641  0.65859  0.45998  1.0000
  H   H150      1.0  0.98330  0.68887  0.45974  1.0000
  H   H151      1.0  0.84101  0.51357  0.45994  1.0000
  H   H152      1.0  0.84847  0.47662  0.45991  1.0000
  C   C242      1.0  0.55050  0.26288  0.33265  1.0000
  C   C243      1.0  0.55054  0.28693  0.32959  1.0000
  C   C244      1.0  0.52382  0.28135  0.33006  1.0000
  N   N20       1.0  0.50867  0.25401  0.32998  1.0000
  C   C245      1.0  0.52378  0.24177  0.33090  1.0000
  C   C246      1.0  0.51569  0.21380  0.33083  1.0000
  C   C247      1.0  0.48836  0.19258  0.33116  1.0000
  N   N21       1.0  0.46577  0.19454  0.33108  1.0000
  C   C248      1.0  0.41578  0.16408  0.33028  1.0000
  C   C249      1.0  0.40766  0.18389  0.32964  1.0000
  N   N22       1.0  0.42285  0.21119  0.33019  1.0000
  C   C250      1.0  0.40773  0.22337  0.33042  1.0000
  C   C251      1.0  0.38097  0.20232  0.33116  1.0000
  C   C252      1.0  0.38094  0.17828  0.32790  1.0000
  C   C253      1.0  0.41592  0.25132  0.33042  1.0000
  C   C254      1.0  0.44324  0.27258  0.32900  1.0000
  N   N23       1.0  0.46589  0.27073  0.32915  1.0000
  C   C255      1.0  0.48851  0.29525  0.32937  1.0000
  C   C256      1.0  0.47975  0.31405  0.33010  1.0000
  C   C257      1.0  0.45200  0.30015  0.32728  1.0000
  C   C258      1.0  0.51579  0.30127  0.33021  1.0000
  C   C259      1.0  0.53643  0.32912  0.33353  1.0000
  C   C260      1.0  0.57953  0.38438  0.33807  1.0000
  C   C261      1.0  0.57524  0.36615  0.40860  1.0000
  C   C262      1.0  0.55365  0.33946  0.40803  1.0000
  C   C263      1.0  0.39541  0.25862  0.33385  1.0000
  C   C264      1.0  0.35612  0.27587  0.33827  1.0000
  C   C265      1.0  0.37482  0.28182  0.40862  1.0000
  C   C266      1.0  0.39333  0.27252  0.40824  1.0000
  C   C267      1.0  0.39519  0.13625  0.32858  1.0000
  C   C268      1.0  0.37697  0.12445  0.40012  1.0000
  C   C269      1.0  0.35713  0.09699  0.39838  1.0000
  C   C270      1.0  0.35597  0.07966  0.32888  1.0000
  C   C271      1.0  0.53632  0.20654  0.32947  1.0000
  C   C272      1.0  0.53977  0.19261  0.40122  1.0000
  C   C273      1.0  0.57965  0.19466  0.33004  1.0000
  C   C274      1.0  0.56033  0.18596  0.39972  1.0000
  H   H153      1.0  0.56094  0.17471  0.45134  1.0000
  H   H154      1.0  0.52703  0.18685  0.45483  1.0000
  H   H155      1.0  0.56765  0.26159  0.33508  1.0000
  H   H156      1.0  0.48932  0.24435  0.32937  1.0000
  H   H157      1.0  0.44221  0.22085  0.33091  1.0000
  H   H158      1.0  0.44026  0.13069  0.33578  1.0000
  H   H159      1.0  0.37776  0.13591  0.45359  1.0000
  H   H160      1.0  0.34367  0.08990  0.44975  1.0000
  H   H161      1.0  0.36383  0.20363  0.33221  1.0000
  H   H162      1.0  0.49123  0.33459  0.33142  1.0000
  H   H163      1.0  0.44048  0.30918  0.32594  1.0000
  H   H164      1.0  0.40648  0.27746  0.46043  1.0000
  H   H165      1.0  0.37619  0.29406  0.46008  1.0000
  H   H166      1.0  0.55152  0.32712  0.46048  1.0000
  H   H167      1.0  0.58847  0.37152  0.46034  1.0000
  C   C275      1.0  0.80225  0.28726  0.33185  1.0000
  C   C276      1.0  0.78379  0.24211  0.32920  1.0000
  C   C277      1.0  0.85133  0.30153  0.33002  1.0000
  C   C278      1.0  0.87255  0.29542  0.33038  1.0000
  C   C279      1.0  0.88125  0.22342  0.32873  1.0000
  C   C280      1.0  0.86283  0.17830  0.33032  1.0000
  C   C281      1.0  0.81383  0.16425  0.32965  1.0000
  C   C282      1.0  0.79256  0.17030  0.32827  1.0000
  N   N24       1.0  0.79441  0.19479  0.32837  1.0000
  C   C283      1.0  0.75109  0.16533  0.32937  1.0000
  C   C284      1.0  0.76499  0.15148  0.32670  1.0000
  C   C285      1.0  0.73602  0.20694  0.33293  1.0000
  C   C286      1.0  0.69903  0.20880  0.40818  1.0000
  C   C287      1.0  0.72570  0.21382  0.40755  1.0000
  C   C288      1.0  0.80653  0.13643  0.33327  1.0000
  C   C289      1.0  0.78927  0.07989  0.33808  1.0000
  C   C290      1.0  0.78334  0.09269  0.40838  1.0000
  C   C291      1.0  0.79260  0.12049  0.40774  1.0000
  C   C292      1.0  0.94063  0.25215  0.39956  1.0000
  C   C293      1.0  0.96810  0.25979  0.39801  1.0000
  C   C294      1.0  0.87251  0.34678  0.40052  1.0000
  C   C295      1.0  0.87049  0.38463  0.32947  1.0000
  C   C296      1.0  0.87917  0.37400  0.39910  1.0000
  H   H168      1.0  0.89041  0.38585  0.45073  1.0000
  H   H169      1.0  0.87825  0.33979  0.45409  1.0000
  H   H170      1.0  0.80353  0.30569  0.33427  1.0000
  H   H171      1.0  0.84429  0.22100  0.32988  1.0000
  H   H172      1.0  0.92913  0.24149  0.45300  1.0000
  H   H173      1.0  0.97514  0.25342  0.44944  1.0000
  H   H174      1.0  0.86152  0.15985  0.33167  1.0000
  H   H175      1.0  0.73055  0.15627  0.33078  1.0000
  H   H176      1.0  0.75597  0.13094  0.32523  1.0000
  H   H177      1.0  0.78767  0.12873  0.45988  1.0000
  H   H178      1.0  0.77105  0.08185  0.45983  1.0000
  H   H179      1.0  0.73807  0.22411  0.45982  1.0000
  H   H180      1.0  0.69368  0.21666  0.45996  1.0000
  C   C297      1.0  0.21187  0.61838  0.41288  1.0000
  C   C298      1.0  0.21136  0.59369  0.41403  1.0000
  N   N25       1.0  0.21000  0.58662  0.49925  1.0000
  O   O1        1.0  0.21289  0.62754  0.49747  1.0000
  C   C299      1.0  0.20991  0.60629  0.54696  1.0000
  H   H181      1.0  0.21069  0.60673  0.61488  1.0000
  C   C300      1.0  0.43341  0.58093  0.33237  1.0000
  C   C301      1.0  0.44669  0.59318  0.41333  1.0000
  C   C302      1.0  0.47135  0.61737  0.41448  1.0000
  C   C303      1.0  0.48440  0.63193  0.33626  1.0000
  N   N26       1.0  0.47844  0.62307  0.49968  1.0000
  O   O2        1.0  0.43756  0.58493  0.49792  1.0000
  C   C304      1.0  0.45861  0.60346  0.54740  1.0000
  H   H182      1.0  0.45855  0.60328  0.61536  1.0000
  C   C305      1.0  0.48424  0.85220  0.33243  1.0000
  C   C306      1.0  0.47195  0.85325  0.41330  1.0000
  C   C307      1.0  0.44778  0.85376  0.41433  1.0000
  C   C308      1.0  0.43324  0.85219  0.33604  1.0000
  N   N27       1.0  0.44199  0.85508  0.49953  1.0000
  O   O3        1.0  0.48003  0.85219  0.49794  1.0000
  C   C309      1.0  0.46171  0.85513  0.54734  1.0000
  H   H183      1.0  0.46132  0.85431  0.61524  1.0000
  C   C310      1.0  0.87412  0.41148  0.33262  1.0000
  C   C311      1.0  0.87512  0.42477  0.41357  1.0000
  C   C312      1.0  0.87559  0.44943  0.41471  1.0000
  C   C313      1.0  0.87410  0.46248  0.33648  1.0000
  N   N28       1.0  0.87697  0.45653  0.49991  1.0000
  O   O4        1.0  0.87422  0.41564  0.49816  1.0000
  C   C314      1.0  0.87673  0.43670  0.54764  1.0000
  H   H184      1.0  0.87683  0.43664  0.61560  1.0000
  C   C315      1.0  0.65364  0.46228  0.33292  1.0000
  C   C316      1.0  0.64031  0.45003  0.41386  1.0000
  C   C317      1.0  0.61563  0.42586  0.41502  1.0000
  C   C318      1.0  0.60266  0.41127  0.33681  1.0000
  N   N29       1.0  0.60855  0.42013  0.50024  1.0000
  O   O5        1.0  0.64946  0.45817  0.49846  1.0000
  C   C319      1.0  0.62821  0.43989  0.54795  1.0000
  H   H185      1.0  0.62865  0.43954  0.61586  1.0000
  C   C320      1.0  0.60289  0.19106  0.33310  1.0000
  C   C321      1.0  0.61516  0.19002  0.41399  1.0000
  C   C322      1.0  0.63935  0.18956  0.41502  1.0000
  C   C323      1.0  0.65389  0.19107  0.33673  1.0000
  N   N30       1.0  0.64507  0.18815  0.50020  1.0000
  O   O6        1.0  0.60693  0.19089  0.49862  1.0000
  C   C324      1.0  0.62548  0.18837  0.54800  1.0000
  H   H186      1.0  0.62532  0.18825  0.61597  1.0000
  C   C325      1.0  0.01429  0.28701  0.33196  1.0000
  C   C326      1.0  0.02890  0.29346  0.41312  1.0000
  C   C327      1.0  0.05708  0.30707  0.41453  1.0000
  C   C328      1.0  0.07304  0.31636  0.33637  1.0000
  N   N31       1.0  0.06437  0.30969  0.49986  1.0000
  O   O7        1.0  0.01880  0.28950  0.49758  1.0000
  C   C329      1.0  0.04155  0.29833  0.54736  1.0000
  H   H187      1.0  0.04143  0.29912  0.61524  1.0000
  C   C330      1.0  0.77807  0.72686  0.33248  1.0000
  C   C331      1.0  0.77158  0.73501  0.41365  1.0000
  C   C332      1.0  0.75795  0.74956  0.41506  1.0000
  C   C333      1.0  0.74876  0.75630  0.33689  1.0000
  N   N32       1.0  0.75536  0.75430  0.50037  1.0000
  O   O8        1.0  0.77567  0.72900  0.49811  1.0000
  C   C334      1.0  0.76643  0.74258  0.54786  1.0000
  H   H188      1.0  0.76648  0.74244  0.61583  1.0000
  C   C335      1.0  0.32999  0.03618  0.41320  1.0000
  C   C336      1.0  0.31542  0.00799  0.41449  1.0000
  N   N33       1.0  0.31070  0.00064  0.49978  1.0000
  O   O9        1.0  0.33608  0.04621  0.49771  1.0000
  C   C337      1.0  0.32212  0.02343  0.54738  1.0000
  H   H189      1.0  0.32299  0.02350  0.61527  1.0000
  C   C338      1.0  0.05820  0.74966  0.41297  1.0000
  C   C339      1.0  0.03001  0.73603  0.41451  1.0000
  N   N34       1.0  0.02271  0.73346  0.49985  1.0000
  O   O10       1.0  0.06832  0.75379  0.49738  1.0000
  C   C340      1.0  0.04552  0.74456  0.54724  1.0000
  H   H190      1.0  0.04572  0.74462  0.61521  1.0000
  C   C341      1.0  0.31537  0.30808  0.41326  1.0000
  C   C342      1.0  0.32898  0.29351  0.41479  1.0000
  N   N35       1.0  0.33157  0.28884  0.50015  1.0000
  O   O11       1.0  0.31138  0.31421  0.49768  1.0000
  C   C343      1.0  0.32018  0.30028  0.54755  1.0000
  H   H191      1.0  0.32095  0.30119  0.61544  1.0000
  C   C344      1.0  0.74883  0.99233  0.33226  1.0000
  C   C345      1.0  0.75695  0.00695  0.41344  1.0000
  C   C346      1.0  0.77150  0.03513  0.41486  1.0000
  C   C347      1.0  0.77826  0.05109  0.33669  1.0000
  N   N36       1.0  0.77623  0.04244  0.50017  1.0000
  O   O12       1.0  0.75093  0.99683  0.49789  1.0000
  C   C348      1.0  0.76450  0.01963  0.54766  1.0000
  H   H192      1.0  0.76435  0.01944  0.61562  1.0000
