data_image0
_chemical_formula_structural       C2NO2CHCNCHC3HNO2C3HNO2CHNCNCN3C3HNO2CHC3HNO2CHCHNO2CNCNCHC3HNO2CHC3HNO2CHC3HCHC3HNO2CHC3HNO2CHC3HNO2CHCNCN4CN2CN3CNCNCN4CNCNCN4CNCNCN4C2NO2CHC3HNO2CHC3HNO2CHC3HNO2CHC3HNO2CHC3HNO2CHC3HNO2CH
_chemical_formula_sum              "C90 N54 O36 H36"
_cell_length_a       46.9385
_cell_length_b       46.9385
_cell_length_c       14.7493
_cell_angle_alpha    90
_cell_angle_beta     90
_cell_angle_gamma    120

_space_group_name_H-M_alt    "P 1"
_space_group_IT_number       1

loop_
  _space_group_symop_operation_xyz
  'x, y, z'

loop_
  _atom_site_type_symbol
  _atom_site_label
  _atom_site_symmetry_multiplicity
  _atom_site_fract_x
  _atom_site_fract_y
  _atom_site_fract_z
  _atom_site_occupancy
  C   C1        1.0  0.04744  0.53118  0.36652  1.0000
  C   C2        1.0  0.02962  0.51913  0.28436  1.0000
  N   N1        1.0  0.04642  0.53002  0.20054  1.0000
  O   O1        1.0  0.04437  0.50646  0.15487  1.0000
  O   O2        1.0  0.03525  0.54466  0.15398  1.0000
  C   C3        1.0  0.08067  0.55497  0.36667  1.0000
  H   H1        1.0  0.08661  0.57841  0.36076  1.0000
  C   C4        1.0  0.13607  0.56554  0.36416  1.0000
  N   N2        1.0  0.10334  0.54714  0.36817  1.0000
  C   C5        1.0  0.03017  0.52042  0.44946  1.0000
  H   H2        1.0  0.04265  0.52922  0.50932  1.0000
  C   C6        1.0  0.31924  0.56126  0.32538  1.0000
  C   C7        1.0  0.30638  0.58186  0.29959  1.0000
  C   C8        1.0  0.27261  0.57103  0.31118  1.0000
  H   H3        1.0  0.26464  0.58688  0.29236  1.0000
  N   N3        1.0  0.32728  0.61380  0.26418  1.0000
  O   O3        1.0  0.31892  0.61742  0.18595  1.0000
  O   O4        1.0  0.32785  0.63529  0.31577  1.0000
  C   C9        1.0  0.25897  0.70203  0.32503  1.0000
  C   C10       1.0  0.29240  0.71491  0.29883  1.0000
  C   C11       1.0  0.31535  0.74867  0.31053  1.0000
  H   H4        1.0  0.33915  0.75666  0.29137  1.0000
  N   N4        1.0  0.30337  0.69405  0.26273  1.0000
  O   O5        1.0  0.31518  0.70248  0.18437  1.0000
  O   O6        1.0  0.32441  0.69343  0.31372  1.0000
  C   C12       1.0  0.23688  0.66759  0.32141  1.0000
  H   H5        1.0  0.24703  0.65367  0.30240  1.0000
  N   N5        1.0  0.15347  0.54932  0.36299  1.0000
  C   C13       1.0  0.18672  0.56612  0.35321  1.0000
  N   N6        1.0  0.20200  0.59910  0.34473  1.0000
  C   C14       1.0  0.18616  0.61663  0.34675  1.0000
  N   N7        1.0  0.15279  0.59921  0.35692  1.0000
  N   N8        1.0  0.20409  0.65019  0.34128  1.0000
  N   N9        1.0  0.20750  0.55415  0.35271  1.0000
  C   C15       1.0  0.25006  0.53977  0.34711  1.0000
  C   C16       1.0  0.26261  0.51862  0.36961  1.0000
  C   C17       1.0  0.29672  0.52952  0.35861  1.0000
  H   H6        1.0  0.30530  0.51426  0.37836  1.0000
  N   N10       1.0  0.24106  0.48732  0.40729  1.0000
  O   O7        1.0  0.24940  0.48486  0.48659  1.0000
  O   O8        1.0  0.23996  0.46458  0.35978  1.0000
  C   C18       1.0  0.21664  0.53112  0.35966  1.0000
  H   H7        1.0  0.19939  0.50807  0.38043  1.0000
  C   C19       1.0  0.30668  0.77119  0.34691  1.0000
  C   C20       1.0  0.27300  0.75863  0.36975  1.0000
  C   C21       1.0  0.24980  0.72452  0.35873  1.0000
  H   H8        1.0  0.22597  0.71592  0.37870  1.0000
  N   N11       1.0  0.26330  0.78016  0.40778  1.0000
  O   O9        1.0  0.25258  0.77178  0.48713  1.0000
  O   O10       1.0  0.24161  0.78128  0.36055  1.0000
  C   C22       1.0  0.33147  0.80461  0.35947  1.0000
  H   H9        1.0  0.32571  0.82184  0.38069  1.0000
  C   C23       1.0  0.35368  0.57360  0.32175  1.0000
  H   H10       1.0  0.36761  0.59769  0.30295  1.0000
  N   N12       1.0  0.40746  0.71773  0.26421  1.0000
  O   O11       1.0  0.40381  0.70571  0.18603  1.0000
  O   O12       1.0  0.38597  0.69684  0.31589  1.0000
  C   C24       1.0  0.40463  0.57380  0.34680  1.0000
  N   N13       1.0  0.37106  0.55817  0.34138  1.0000
  C   C25       1.0  0.39637  0.83451  0.35315  1.0000
  N   N14       1.0  0.36363  0.81371  0.35253  1.0000
  C   C26       1.0  0.99533  0.49635  0.28738  1.0000
  H   H11       1.0  0.98289  0.48759  0.22742  1.0000
  C   C27       1.0  0.49007  0.52051  0.36672  1.0000
  C   C28       1.0  0.50221  0.51492  0.28446  1.0000
  C   C29       1.0  0.52499  0.50340  0.28727  1.0000
  H   H12       1.0  0.53380  0.49985  0.22724  1.0000
  N   N15       1.0  0.49139  0.52100  0.20074  1.0000
  O   O13       1.0  0.51499  0.54259  0.15538  1.0000
  O   O14       1.0  0.47679  0.49527  0.15382  1.0000
  C   C30       1.0  0.46628  0.52995  0.36708  1.0000
  H   H13       1.0  0.44282  0.51242  0.36208  1.0000
  C   C31       1.0  0.50072  0.97379  0.36660  1.0000
  C   C32       1.0  0.50644  0.99158  0.28440  1.0000
  C   C33       1.0  0.51795  0.02587  0.28733  1.0000
  H   H14       1.0  0.52161  0.03829  0.22735  1.0000
  N   N16       1.0  0.50047  0.97474  0.20062  1.0000
  O   O15       1.0  0.47893  0.97678  0.15504  1.0000
  O   O16       1.0  0.52625  0.98589  0.15395  1.0000
  C   C34       1.0  0.49127  0.94056  0.36682  1.0000
  H   H15       1.0  0.50877  0.93462  0.36076  1.0000
  C   C35       1.0  0.46000  0.76224  0.32534  1.0000
  C   C36       1.0  0.43940  0.72878  0.29959  1.0000
  C   C37       1.0  0.45023  0.70584  0.31121  1.0000
  H   H16       1.0  0.43437  0.68201  0.29243  1.0000
  C   C38       1.0  0.44767  0.78434  0.32167  1.0000
  H   H17       1.0  0.42358  0.77418  0.30279  1.0000
  C   C39       1.0  0.70638  0.45582  0.32892  1.0000
  C   C40       1.0  0.71923  0.43523  0.30289  1.0000
  C   C41       1.0  0.75299  0.44602  0.31460  1.0000
  H   H18       1.0  0.76095  0.43017  0.29562  1.0000
  N   N17       1.0  0.69833  0.40336  0.26707  1.0000
  O   O17       1.0  0.70674  0.39987  0.18879  1.0000
  O   O18       1.0  0.69769  0.38176  0.31835  1.0000
  C   C42       1.0  0.67195  0.44351  0.32533  1.0000
  H   H19       1.0  0.65800  0.41944  0.30633  1.0000
  C   C43       1.0  0.56546  0.25481  0.32918  1.0000
  C   C44       1.0  0.58607  0.28826  0.30334  1.0000
  C   C45       1.0  0.57527  0.31123  0.31503  1.0000
  H   H20       1.0  0.59114  0.33505  0.29621  1.0000
  N   N18       1.0  0.61799  0.29927  0.26785  1.0000
  O   O19       1.0  0.62160  0.31126  0.18964  1.0000
  O   O20       1.0  0.63952  0.32017  0.31941  1.0000
  C   C46       1.0  0.57776  0.23268  0.32553  1.0000
  H   H21       1.0  0.60184  0.24281  0.30661  1.0000
  C   C47       1.0  0.76643  0.31487  0.32918  1.0000
  C   C48       1.0  0.73298  0.30203  0.30338  1.0000
  C   C49       1.0  0.71001  0.26827  0.31511  1.0000
  H   H22       1.0  0.68619  0.26031  0.29632  1.0000
  N   N19       1.0  0.72196  0.32294  0.26792  1.0000
  O   O21       1.0  0.70995  0.31456  0.18974  1.0000
  O   O22       1.0  0.70108  0.32358  0.31955  1.0000
  C   C50       1.0  0.78856  0.34930  0.32547  1.0000
  H   H23       1.0  0.77844  0.36324  0.30647  1.0000
  C   C51       1.0  0.45573  0.57479  0.36404  1.0000
  N   N20       1.0  0.47195  0.60840  0.36286  1.0000
  C   C52       1.0  0.45516  0.62487  0.35319  1.0000
  N   N21       1.0  0.42217  0.60717  0.34480  1.0000
  N   N22       1.0  0.42205  0.55785  0.35685  1.0000
  N   N23       1.0  0.47412  0.56045  0.36789  1.0000
  N   N24       1.0  0.46713  0.65761  0.35271  1.0000
  C   C53       1.0  0.44643  0.88516  0.36429  1.0000
  N   N25       1.0  0.41282  0.86776  0.36303  1.0000
  N   N26       1.0  0.41408  0.81924  0.34469  1.0000
  C   C54       1.0  0.44745  0.83508  0.34677  1.0000
  N   N27       1.0  0.46339  0.86845  0.35700  1.0000
  N   N28       1.0  0.46077  0.91789  0.36831  1.0000
  N   N29       1.0  0.46308  0.81715  0.34137  1.0000
  C   C55       1.0  0.88938  0.45127  0.36935  1.0000
  N   N30       1.0  0.87201  0.46751  0.36806  1.0000
  C   C56       1.0  0.83878  0.45075  0.35760  1.0000
  N   N31       1.0  0.82350  0.41779  0.34875  1.0000
  C   C57       1.0  0.83931  0.40022  0.35096  1.0000
  N   N32       1.0  0.87265  0.41761  0.36168  1.0000
  N   N33       1.0  0.92211  0.46962  0.37427  1.0000
  N   N34       1.0  0.82135  0.36666  0.34541  1.0000
  N   N35       1.0  0.81800  0.46272  0.35677  1.0000
  C   C58       1.0  0.56999  0.44235  0.36956  1.0000
  N   N36       1.0  0.55375  0.40874  0.36836  1.0000
  C   C59       1.0  0.57050  0.39227  0.35790  1.0000
  N   N37       1.0  0.60347  0.40995  0.34895  1.0000
  C   C60       1.0  0.62103  0.44332  0.35108  1.0000
  N   N38       1.0  0.60365  0.45928  0.36181  1.0000
  N   N39       1.0  0.55164  0.45673  0.37455  1.0000
  N   N40       1.0  0.65459  0.45893  0.34539  1.0000
  N   N41       1.0  0.55852  0.35952  0.35705  1.0000
  C   C61       1.0  0.57889  0.13186  0.36949  1.0000
  N   N42       1.0  0.61250  0.14923  0.36829  1.0000
  C   C62       1.0  0.62898  0.18246  0.35791  1.0000
  N   N43       1.0  0.61130  0.19774  0.34901  1.0000
  C   C63       1.0  0.57793  0.18194  0.35113  1.0000
  N   N44       1.0  0.56197  0.14859  0.36179  1.0000
  N   N45       1.0  0.56451  0.09913  0.37441  1.0000
  N   N46       1.0  0.56233  0.19990  0.34549  1.0000
  N   N47       1.0  0.66173  0.20322  0.35709  1.0000
  C   C64       1.0  0.97803  0.48559  0.37027  1.0000
  C   C65       1.0  0.99583  0.49769  0.45243  1.0000
  N   N48       1.0  0.97893  0.48672  0.53604  1.0000
  O   O23       1.0  0.98101  0.51028  0.58178  1.0000
  O   O24       1.0  0.99007  0.47204  0.58254  1.0000
  C   C66       1.0  0.94477  0.46186  0.36857  1.0000
  H   H24       1.0  0.93881  0.43863  0.35717  1.0000
  C   C67       1.0  0.53564  0.49666  0.37004  1.0000
  C   C68       1.0  0.52347  0.50218  0.45230  1.0000
  C   C69       1.0  0.50074  0.51381  0.44955  1.0000
  H   H25       1.0  0.49188  0.51736  0.50947  1.0000
  N   N49       1.0  0.53436  0.49610  0.53580  1.0000
  O   O25       1.0  0.51077  0.47454  0.58126  1.0000
  O   O26       1.0  0.54901  0.52183  0.58266  1.0000
  C   C70       1.0  0.55938  0.48713  0.36812  1.0000
  H   H26       1.0  0.58255  0.50434  0.35589  1.0000
  C   C71       1.0  0.52458  0.04321  0.37018  1.0000
  C   C72       1.0  0.51890  0.02544  0.45238  1.0000
  C   C73       1.0  0.50727  0.99109  0.44950  1.0000
  H   H27       1.0  0.50362  0.97864  0.50939  1.0000
  N   N50       1.0  0.52487  0.04237  0.53594  1.0000
  O   O27       1.0  0.54636  0.04029  0.58164  1.0000
  O   O28       1.0  0.49907  0.03125  0.58253  1.0000
  C   C74       1.0  0.53409  0.07647  0.36839  1.0000
  H   H28       1.0  0.51685  0.08243  0.35668  1.0000
  C   C75       1.0  0.48150  0.71456  0.34711  1.0000
  C   C76       1.0  0.50265  0.74826  0.36958  1.0000
  C   C77       1.0  0.49174  0.77146  0.35861  1.0000
  H   H29       1.0  0.50701  0.79531  0.37828  1.0000
  N   N51       1.0  0.53395  0.75800  0.40725  1.0000
  O   O29       1.0  0.53641  0.76881  0.48655  1.0000
  O   O30       1.0  0.55668  0.77965  0.35973  1.0000
  C   C78       1.0  0.49015  0.68978  0.35963  1.0000
  H   H30       1.0  0.51321  0.69559  0.38036  1.0000
  C   C79       1.0  0.77553  0.47721  0.35092  1.0000
  C   C80       1.0  0.76300  0.49837  0.37357  1.0000
  C   C81       1.0  0.72891  0.48751  0.36246  1.0000
  H   H31       1.0  0.72033  0.50276  0.38239  1.0000
  N   N52       1.0  0.78456  0.52962  0.41146  1.0000
  O   O31       1.0  0.77617  0.53204  0.49075  1.0000
  O   O32       1.0  0.78572  0.55242  0.36406  1.0000
  C   C82       1.0  0.80893  0.48580  0.36366  1.0000
  H   H32       1.0  0.82616  0.50877  0.38499  1.0000
  C   C83       1.0  0.54405  0.30255  0.35114  1.0000
  C   C84       1.0  0.52287  0.26885  0.37360  1.0000
  C   C85       1.0  0.53373  0.24562  0.36252  1.0000
  H   H33       1.0  0.51846  0.22178  0.38225  1.0000
  N   N53       1.0  0.49158  0.25913  0.41129  1.0000
  O   O33       1.0  0.48910  0.24829  0.49055  1.0000
  O   O34       1.0  0.46883  0.23753  0.36372  1.0000
  C   C86       1.0  0.53545  0.32736  0.36389  1.0000
  H   H34       1.0  0.51246  0.32159  0.38508  1.0000
  C   C87       1.0  0.71870  0.24572  0.35118  1.0000
  C   C88       1.0  0.75240  0.25824  0.37362  1.0000
  C   C89       1.0  0.77562  0.29234  0.36256  1.0000
  H   H35       1.0  0.79947  0.30091  0.38222  1.0000
  N   N54       1.0  0.76212  0.23667  0.41130  1.0000
  O   O35       1.0  0.77296  0.24503  0.49056  1.0000
  O   O36       1.0  0.78372  0.23553  0.36372  1.0000
  C   C90       1.0  0.69389  0.21231  0.36391  1.0000
  H   H36       1.0  0.69966  0.19508  0.38507  1.0000
