data_image0
_chemical_formula_structural       NC3O2HNC3O2HNC3O2HCNC2O2HCNC2O2HCNC2O2HCNC2O2HCNC2O2HCNC2O2HNC18H12NC18H12NC18H12NC18H12NC18H12NC18H12CNC2O2HCNC2O2HCNC2O2HNC3O2HNC3O2HNC3O2HNC3O2HNC3O2HNC3O2H
_chemical_formula_sum              "N24 C162 O36 H90"
_cell_length_a       52.4779
_cell_length_b       52.4779
_cell_length_c       14.9093
_cell_angle_alpha    90
_cell_angle_beta     90
_cell_angle_gamma    120

_space_group_name_H-M_alt    "P 1"
_space_group_IT_number       1

loop_
  _space_group_symop_operation_xyz
  'x, y, z'

loop_
  _atom_site_type_symbol
  _atom_site_label
  _atom_site_symmetry_multiplicity
  _atom_site_fract_x
  _atom_site_fract_y
  _atom_site_fract_z
  _atom_site_occupancy
  N   N1        1.0  0.98745  0.49411  0.26711  1.0000
  C   C1        1.0  0.01709  0.50891  0.25361  1.0000
  C   C2        1.0  0.03583  0.51788  0.33010  1.0000
  C   C3        1.0  0.02656  0.51660  0.16591  1.0000
  O   O1        1.0  0.01501  0.49780  0.10778  1.0000
  O   O2        1.0  0.03681  0.54217  0.13897  1.0000
  H   H1        1.0  0.04388  0.55792  0.17392  1.0000
  N   N2        1.0  0.51348  0.49488  0.26709  1.0000
  C   C4        1.0  0.49868  0.50972  0.25360  1.0000
  C   C5        1.0  0.48970  0.51947  0.33010  1.0000
  C   C6        1.0  0.49099  0.51149  0.16590  1.0000
  O   O3        1.0  0.50978  0.51872  0.10774  1.0000
  O   O4        1.0  0.46541  0.49620  0.13897  1.0000
  H   H2        1.0  0.44967  0.48754  0.17393  1.0000
  N   N3        1.0  0.51273  0.02012  0.26712  1.0000
  C   C7        1.0  0.49792  0.99048  0.25365  1.0000
  C   C8        1.0  0.48815  0.97174  0.33013  1.0000
  C   C9        1.0  0.49613  0.98101  0.16594  1.0000
  O   O5        1.0  0.48887  0.99256  0.10782  1.0000
  O   O6        1.0  0.51143  0.97074  0.13897  1.0000
  H   H3        1.0  0.52010  0.96367  0.17389  1.0000
  C   C10       1.0  0.30600  0.55098  0.32833  1.0000
  N   N4        1.0  0.26232  0.54931  0.27605  1.0000
  C   C11       1.0  0.28726  0.54860  0.25615  1.0000
  C   C12       1.0  0.29166  0.54388  0.16733  1.0000
  O   O7        1.0  0.28493  0.55563  0.10843  1.0000
  O   O8        1.0  0.29184  0.52140  0.14343  1.0000
  H   H4        1.0  0.29385  0.50917  0.17981  1.0000
  C   C13       1.0  0.45669  0.75660  0.32844  1.0000
  N   N5        1.0  0.45837  0.71459  0.27618  1.0000
  C   C14       1.0  0.45905  0.74022  0.25626  1.0000
  C   C15       1.0  0.46379  0.74935  0.16745  1.0000
  O   O9        1.0  0.45205  0.73087  0.10854  1.0000
  O   O10       1.0  0.48629  0.77200  0.14359  1.0000
  H   H5        1.0  0.49851  0.78624  0.17999  1.0000
  C   C16       1.0  0.25102  0.70161  0.32839  1.0000
  N   N6        1.0  0.29303  0.74531  0.27616  1.0000
  C   C17       1.0  0.26740  0.72036  0.25623  1.0000
  C   C18       1.0  0.25829  0.71597  0.16736  1.0000
  O   O11       1.0  0.27682  0.72234  0.10880  1.0000
  O   O12       1.0  0.23568  0.71589  0.14357  1.0000
  H   H6        1.0  0.22152  0.71405  0.18000  1.0000
  C   C19       1.0  0.70430  0.45477  0.31909  1.0000
  N   N7        1.0  0.74706  0.45436  0.26667  1.0000
  C   C20       1.0  0.72182  0.45448  0.24671  1.0000
  C   C21       1.0  0.71604  0.45603  0.15675  1.0000
  O   O13       1.0  0.72033  0.44080  0.10370  1.0000
  O   O14       1.0  0.71706  0.47816  0.12410  1.0000
  H   H7        1.0  0.71656  0.49226  0.15536  1.0000
  C   C22       1.0  0.55281  0.25104  0.31897  1.0000
  N   N8        1.0  0.55324  0.29422  0.26652  1.0000
  C   C23       1.0  0.55309  0.26884  0.24658  1.0000
  C   C24       1.0  0.55158  0.26157  0.15660  1.0000
  O   O15       1.0  0.56664  0.28097  0.10305  1.0000
  O   O16       1.0  0.52958  0.24022  0.12415  1.0000
  H   H8        1.0  0.51554  0.22560  0.15554  1.0000
  C   C25       1.0  0.75655  0.30325  0.31902  1.0000
  N   N9        1.0  0.71336  0.26052  0.26654  1.0000
  C   C26       1.0  0.73873  0.28577  0.24662  1.0000
  C   C27       1.0  0.74601  0.29152  0.15664  1.0000
  O   O17       1.0  0.72661  0.28721  0.10309  1.0000
  O   O18       1.0  0.76735  0.29085  0.12420  1.0000
  H   H9        1.0  0.78196  0.29141  0.15559  1.0000
  N   N10       1.0  0.16255  0.58131  0.34003  1.0000
  C   C28       1.0  0.17909  0.61238  0.32649  1.0000
  C   C29       1.0  0.13118  0.56539  0.33748  1.0000
  C   C30       1.0  0.17975  0.56752  0.35525  1.0000
  C   C31       1.0  0.19873  0.57589  0.43011  1.0000
  C   C32       1.0  0.22214  0.57002  0.43304  1.0000
  C   C33       1.0  0.22671  0.55416  0.36382  1.0000
  C   C34       1.0  0.20614  0.54409  0.29211  1.0000
  C   C35       1.0  0.18348  0.55101  0.28711  1.0000
  C   C36       1.0  0.18232  0.63191  0.39640  1.0000
  C   C37       1.0  0.20472  0.66163  0.39372  1.0000
  C   C38       1.0  0.22523  0.67293  0.32204  1.0000
  C   C39       1.0  0.22114  0.65331  0.25085  1.0000
  C   C40       1.0  0.19823  0.62380  0.25218  1.0000
  C   C41       1.0  0.11438  0.56700  0.40882  1.0000
  C   C42       1.0  0.08337  0.55172  0.40537  1.0000
  C   C43       1.0  0.06762  0.53370  0.33119  1.0000
  C   C44       1.0  0.08483  0.53146  0.26154  1.0000
  C   C45       1.0  0.11584  0.54741  0.26365  1.0000
  H   H10       1.0  0.20704  0.67451  0.44811  1.0000
  H   H11       1.0  0.17004  0.62413  0.45345  1.0000
  H   H12       1.0  0.19751  0.60988  0.20293  1.0000
  H   H13       1.0  0.23627  0.65939  0.20050  1.0000
  H   H14       1.0  0.19773  0.58930  0.47806  1.0000
  H   H15       1.0  0.23720  0.57989  0.48303  1.0000
  H   H16       1.0  0.12462  0.57932  0.46426  1.0000
  H   H17       1.0  0.07236  0.55412  0.45837  1.0000
  H   H18       1.0  0.07511  0.51765  0.20852  1.0000
  H   H19       1.0  0.12715  0.54569  0.21051  1.0000
  H   H20       1.0  0.17128  0.54586  0.22981  1.0000
  H   H21       1.0  0.20854  0.53310  0.23903  1.0000
  N   N11       1.0  0.42630  0.58279  0.34011  1.0000
  C   C46       1.0  0.39524  0.56827  0.32652  1.0000
  C   C47       1.0  0.44221  0.56733  0.33752  1.0000
  C   C48       1.0  0.44011  0.61378  0.35524  1.0000
  C   C49       1.0  0.43169  0.62439  0.43001  1.0000
  C   C50       1.0  0.43765  0.65369  0.43316  1.0000
  C   C51       1.0  0.45351  0.67412  0.36396  1.0000
  C   C52       1.0  0.46355  0.66362  0.29217  1.0000
  C   C53       1.0  0.45665  0.63405  0.28718  1.0000
  C   C54       1.0  0.37569  0.55196  0.39642  1.0000
  C   C55       1.0  0.34599  0.54470  0.39376  1.0000
  C   C56       1.0  0.33470  0.55390  0.32206  1.0000
  C   C57       1.0  0.35432  0.56942  0.25085  1.0000
  C   C58       1.0  0.38383  0.57601  0.25221  1.0000
  C   C59       1.0  0.44058  0.54890  0.40884  1.0000
  C   C60       1.0  0.45586  0.53317  0.40537  1.0000
  C   C61       1.0  0.47388  0.53544  0.33118  1.0000
  C   C62       1.0  0.47614  0.55492  0.26157  1.0000
  C   C63       1.0  0.46020  0.56998  0.26370  1.0000
  H   H22       1.0  0.33307  0.53406  0.44803  1.0000
  H   H23       1.0  0.38346  0.54743  0.45343  1.0000
  H   H24       1.0  0.39775  0.58921  0.20297  1.0000
  H   H25       1.0  0.34824  0.57846  0.20047  1.0000
  H   H26       1.0  0.41837  0.61000  0.47815  1.0000
  H   H27       1.0  0.42782  0.65890  0.48324  1.0000
  H   H28       1.0  0.42827  0.54683  0.46427  1.0000
  H   H29       1.0  0.45345  0.51975  0.45835  1.0000
  H   H30       1.0  0.48995  0.55901  0.20857  1.0000
  H   H31       1.0  0.46193  0.58302  0.21060  1.0000
  H   H32       1.0  0.46175  0.62699  0.22977  1.0000
  H   H33       1.0  0.47452  0.67700  0.23908  1.0000
  N   N12       1.0  0.42480  0.84501  0.34020  1.0000
  C   C64       1.0  0.43933  0.82847  0.32663  1.0000
  C   C65       1.0  0.44026  0.87638  0.33760  1.0000
  C   C66       1.0  0.39381  0.82782  0.35527  1.0000
  C   C67       1.0  0.38321  0.80881  0.43007  1.0000
  C   C68       1.0  0.35392  0.78545  0.43309  1.0000
  C   C69       1.0  0.33347  0.78092  0.36397  1.0000
  C   C70       1.0  0.34399  0.80148  0.29221  1.0000
  C   C71       1.0  0.37357  0.82413  0.28718  1.0000
  C   C72       1.0  0.45566  0.82528  0.39654  1.0000
  C   C73       1.0  0.46294  0.80285  0.39387  1.0000
  C   C74       1.0  0.45375  0.78236  0.32216  1.0000
  C   C75       1.0  0.43823  0.78645  0.25092  1.0000
  C   C76       1.0  0.43162  0.80936  0.25226  1.0000
  C   C77       1.0  0.45866  0.89319  0.40896  1.0000
  C   C78       1.0  0.47440  0.92420  0.40548  1.0000
  C   C79       1.0  0.47216  0.93994  0.33123  1.0000
  C   C80       1.0  0.45271  0.92273  0.26157  1.0000
  C   C81       1.0  0.43764  0.89172  0.26371  1.0000
  H   H34       1.0  0.47358  0.80058  0.44815  1.0000
  H   H35       1.0  0.46017  0.83757  0.45355  1.0000
  H   H36       1.0  0.41842  0.81009  0.20302  1.0000
  H   H37       1.0  0.42920  0.77133  0.20053  1.0000
  H   H38       1.0  0.39760  0.80990  0.47825  1.0000
  H   H39       1.0  0.34868  0.77045  0.48332  1.0000
  H   H40       1.0  0.46071  0.88295  0.46444  1.0000
  H   H41       1.0  0.48780  0.93521  0.45850  1.0000
  H   H42       1.0  0.44864  0.93245  0.20852  1.0000
  H   H43       1.0  0.42462  0.88041  0.21057  1.0000
  H   H44       1.0  0.38064  0.83629  0.22978  1.0000
  H   H45       1.0  0.33062  0.79907  0.23908  1.0000
  N   N13       1.0  0.84648  0.42332  0.33772  1.0000
  C   C82       1.0  0.82932  0.39234  0.32256  1.0000
  C   C83       1.0  0.87786  0.43882  0.34028  1.0000
  C   C84       1.0  0.82990  0.43780  0.35158  1.0000
  C   C85       1.0  0.81075  0.42998  0.42587  1.0000
  C   C86       1.0  0.78783  0.43656  0.42728  1.0000
  C   C87       1.0  0.78380  0.45224  0.35637  1.0000
  C   C88       1.0  0.80436  0.46155  0.28480  1.0000
  C   C89       1.0  0.82678  0.45425  0.28195  1.0000
  C   C90       1.0  0.82571  0.37213  0.39069  1.0000
  C   C91       1.0  0.80309  0.34253  0.38582  1.0000
  C   C92       1.0  0.78249  0.33199  0.31421  1.0000
  C   C93       1.0  0.78696  0.35237  0.24495  1.0000
  C   C94       1.0  0.81029  0.38168  0.24782  1.0000
  C   C95       1.0  0.89321  0.43627  0.41424  1.0000
  C   C96       1.0  0.92422  0.45136  0.41632  1.0000
  C   C97       1.0  0.94141  0.47073  0.34649  1.0000
  C   C98       1.0  0.92565  0.47289  0.27216  1.0000
  C   C99       1.0  0.89464  0.45715  0.26876  1.0000
  H   H46       1.0  0.80073  0.32918  0.43896  1.0000
  H   H47       1.0  0.83792  0.37924  0.44798  1.0000
  H   H48       1.0  0.81131  0.39607  0.19978  1.0000
  H   H49       1.0  0.77191  0.34709  0.19485  1.0000
  H   H50       1.0  0.81144  0.41670  0.47490  1.0000
  H   H51       1.0  0.77267  0.42745  0.47753  1.0000
  H   H52       1.0  0.88192  0.42331  0.46749  1.0000
  H   H53       1.0  0.93396  0.44734  0.46942  1.0000
  H   H54       1.0  0.93665  0.48623  0.21902  1.0000
  H   H55       1.0  0.88438  0.45914  0.21323  1.0000
  H   H56       1.0  0.83906  0.45880  0.22491  1.0000
  H   H57       1.0  0.80208  0.47220  0.23056  1.0000
  N   N14       1.0  0.58425  0.42468  0.33768  1.0000
  C   C100      1.0  0.61523  0.43850  0.32254  1.0000
  C   C101      1.0  0.56876  0.44056  0.34026  1.0000
  C   C102      1.0  0.56978  0.39362  0.35156  1.0000
  C   C103      1.0  0.57758  0.38227  0.42583  1.0000
  C   C104      1.0  0.57100  0.35276  0.42721  1.0000
  C   C105      1.0  0.55536  0.33307  0.35624  1.0000
  C   C106      1.0  0.54608  0.34434  0.28465  1.0000
  C   C107      1.0  0.55336  0.37405  0.28187  1.0000
  C   C108      1.0  0.63544  0.45510  0.39067  1.0000
  C   C109      1.0  0.66502  0.46203  0.38587  1.0000
  C   C110      1.0  0.67558  0.45202  0.31418  1.0000
  C   C111      1.0  0.65520  0.43612  0.24491  1.0000
  C   C112      1.0  0.62590  0.43015  0.24777  1.0000
  C   C113      1.0  0.57131  0.45846  0.41421  1.0000
  C   C114      1.0  0.55624  0.47440  0.41628  1.0000
  C   C115      1.0  0.53685  0.47221  0.34647  1.0000
  C   C116      1.0  0.53468  0.45428  0.27214  1.0000
  C   C117      1.0  0.55042  0.43900  0.26874  1.0000
  H   H58       1.0  0.67836  0.47297  0.43908  1.0000
  H   H59       1.0  0.62832  0.46012  0.44810  1.0000
  H   H60       1.0  0.61151  0.41678  0.19971  1.0000
  H   H61       1.0  0.66048  0.42636  0.19479  1.0000
  H   H62       1.0  0.59084  0.39622  0.47490  1.0000
  H   H63       1.0  0.58010  0.34671  0.47748  1.0000
  H   H64       1.0  0.58428  0.46014  0.46745  1.0000
  H   H65       1.0  0.56024  0.48814  0.46941  1.0000
  H   H66       1.0  0.52134  0.45194  0.21902  1.0000
  H   H67       1.0  0.54843  0.42675  0.21322  1.0000
  H   H68       1.0  0.54881  0.38179  0.22482  1.0000
  H   H69       1.0  0.53543  0.33142  0.23040  1.0000
  N   N15       1.0  0.58292  0.16109  0.33763  1.0000
  C   C118      1.0  0.56909  0.17825  0.32246  1.0000
  C   C119      1.0  0.56703  0.12972  0.34022  1.0000
  C   C120      1.0  0.61398  0.17767  0.35148  1.0000
  C   C121      1.0  0.62531  0.19681  0.42581  1.0000
  C   C122      1.0  0.65481  0.21975  0.42714  1.0000
  C   C123      1.0  0.67450  0.22378  0.35617  1.0000
  C   C124      1.0  0.66325  0.20323  0.28461  1.0000
  C   C125      1.0  0.63355  0.18077  0.28186  1.0000
  C   C126      1.0  0.55246  0.18184  0.39053  1.0000
  C   C127      1.0  0.54552  0.20448  0.38570  1.0000
  C   C128      1.0  0.55556  0.22507  0.31406  1.0000
  C   C129      1.0  0.57149  0.22061  0.24484  1.0000
  C   C130      1.0  0.57747  0.19728  0.24772  1.0000
  C   C131      1.0  0.54914  0.11437  0.41420  1.0000
  C   C132      1.0  0.53320  0.08337  0.41628  1.0000
  C   C133      1.0  0.53536  0.06617  0.34645  1.0000
  C   C134      1.0  0.55329  0.08192  0.27212  1.0000
  C   C135      1.0  0.56857  0.11293  0.26869  1.0000
  H   H70       1.0  0.53456  0.20687  0.43887  1.0000
  H   H71       1.0  0.54743  0.16969  0.44793  1.0000
  H   H72       1.0  0.59086  0.19628  0.19971  1.0000
  H   H73       1.0  0.58127  0.23568  0.19478  1.0000
  H   H74       1.0  0.61133  0.19614  0.47472  1.0000
  H   H75       1.0  0.66086  0.23491  0.47738  1.0000
  H   H76       1.0  0.54749  0.12568  0.46745  1.0000
  H   H77       1.0  0.51946  0.07364  0.46944  1.0000
  H   H78       1.0  0.55562  0.07092  0.21898  1.0000
  H   H79       1.0  0.58081  0.12318  0.21315  1.0000
  H   H80       1.0  0.62579  0.16849  0.22482  1.0000
  H   H81       1.0  0.67619  0.20547  0.23045  1.0000
  C   C136      1.0  0.97320  0.48667  0.34748  1.0000
  N   N16       1.0  0.02157  0.51125  0.41045  1.0000
  C   C137      1.0  0.99194  0.49651  0.42398  1.0000
  C   C138      1.0  0.98255  0.49496  0.51163  1.0000
  O   O19       1.0  0.97198  0.51038  0.53075  1.0000
  O   O20       1.0  0.99425  0.48959  0.57525  1.0000
  H   H82       1.0  0.00352  0.47943  0.57075  1.0000
  C   C139      1.0  0.52091  0.48806  0.34746  1.0000
  N   N17       1.0  0.49633  0.51184  0.41045  1.0000
  C   C140      1.0  0.51106  0.49695  0.42396  1.0000
  C   C141      1.0  0.51264  0.48912  0.51167  1.0000
  O   O21       1.0  0.49698  0.46314  0.53055  1.0000
  O   O22       1.0  0.51838  0.50643  0.57479  1.0000
  H   H83       1.0  0.52881  0.52584  0.56983  1.0000
  C   C142      1.0  0.51953  0.03437  0.34749  1.0000
  N   N18       1.0  0.49575  0.98600  0.41047  1.0000
  C   C143      1.0  0.51066  0.01563  0.42398  1.0000
  C   C144      1.0  0.51838  0.02506  0.51169  1.0000
  O   O23       1.0  0.54434  0.03497  0.53024  1.0000
  O   O24       1.0  0.50133  0.01324  0.57515  1.0000
  H   H84       1.0  0.48192  0.00428  0.57074  1.0000
  N   N19       1.0  0.29596  0.55204  0.41166  1.0000
  C   C145      1.0  0.27062  0.55198  0.43153  1.0000
  C   C146      1.0  0.25271  0.55145  0.35911  1.0000
  C   C147      1.0  0.26348  0.55068  0.52160  1.0000
  O   O25       1.0  0.28292  0.56630  0.57430  1.0000
  O   O26       1.0  0.24229  0.52865  0.55451  1.0000
  H   H85       1.0  0.22774  0.51441  0.52344  1.0000
  N   N20       1.0  0.45563  0.74549  0.41177  1.0000
  C   C148      1.0  0.45571  0.72023  0.43166  1.0000
  C   C149      1.0  0.45626  0.70285  0.35925  1.0000
  C   C150      1.0  0.45697  0.71436  0.52169  1.0000
  O   O27       1.0  0.44162  0.71847  0.57473  1.0000
  O   O28       1.0  0.47895  0.71514  0.55485  1.0000
  H   H86       1.0  0.49314  0.71471  0.52391  1.0000
  N   N21       1.0  0.26210  0.71167  0.41173  1.0000
  C   C151      1.0  0.28736  0.73702  0.43164  1.0000
  C   C152      1.0  0.30475  0.75494  0.35924  1.0000
  C   C153      1.0  0.29321  0.74416  0.52167  1.0000
  O   O29       1.0  0.28907  0.72471  0.57478  1.0000
  O   O30       1.0  0.29245  0.76538  0.55474  1.0000
  H   H87       1.0  0.29290  0.78001  0.52375  1.0000
  N   N22       1.0  0.71589  0.45663  0.40226  1.0000
  C   C154      1.0  0.74151  0.45729  0.42224  1.0000
  C   C155      1.0  0.75801  0.45514  0.35006  1.0000
  C   C156      1.0  0.75043  0.46170  0.51124  1.0000
  O   O31       1.0  0.73183  0.44966  0.56966  1.0000
  O   O32       1.0  0.77299  0.48414  0.53597  1.0000
  H   H88       1.0  0.78728  0.49654  0.50004  1.0000
  N   N23       1.0  0.55094  0.26076  0.40213  1.0000
  C   C157      1.0  0.55031  0.28573  0.42210  1.0000
  C   C158      1.0  0.55246  0.30439  0.34991  1.0000
  C   C159      1.0  0.54583  0.29021  0.51110  1.0000
  O   O33       1.0  0.55823  0.28401  0.56928  1.0000
  O   O34       1.0  0.52332  0.29022  0.53555  1.0000
  H   H89       1.0  0.51086  0.29196  0.49947  1.0000
  N   N24       1.0  0.74683  0.29165  0.40216  1.0000
  C   C160      1.0  0.72186  0.26603  0.42212  1.0000
  C   C161      1.0  0.70321  0.24954  0.34991  1.0000
  C   C162      1.0  0.71735  0.25707  0.51107  1.0000
  O   O35       1.0  0.72392  0.27566  0.56956  1.0000
  O   O36       1.0  0.71723  0.23450  0.53568  1.0000
  H   H90       1.0  0.71532  0.22022  0.49970  1.0000
