data_image0
_chemical_formula_structural       HC2NC30H17NHNHNHC30H17NHNHNHC3H2CH2C3H2CH2C2H2CH10C3NC2NH2CH2C3NC2NH2CH2C2NC2HCH2
_chemical_formula_sum              "H72 C90 N12"
_cell_length_a       44.9545
_cell_length_b       44.9546
_cell_length_c       14.9842
_cell_angle_alpha    90
_cell_angle_beta     90
_cell_angle_gamma    120

_space_group_name_H-M_alt    "P 1"
_space_group_IT_number       1

loop_
  _space_group_symop_operation_xyz
  'x, y, z'

loop_
  _atom_site_type_symbol
  _atom_site_label
  _atom_site_symmetry_multiplicity
  _atom_site_fract_x
  _atom_site_fract_y
  _atom_site_fract_z
  _atom_site_occupancy
  H   H1        1.0  0.00955  0.52607  0.64408  1.0000
  C   C1        1.0  0.01186  0.51384  0.42688  1.0000
  C   C2        1.0  0.02290  0.50880  0.27068  1.0000
  N   N1        1.0  0.02228  0.52372  0.51258  1.0000
  C   C3        1.0  0.13231  0.56456  0.31838  1.0000
  C   C4        1.0  0.15152  0.59812  0.35367  1.0000
  C   C5        1.0  0.18712  0.61309  0.36767  1.0000
  C   C6        1.0  0.20420  0.59479  0.34633  1.0000
  C   C7        1.0  0.18487  0.56107  0.31220  1.0000
  C   C8        1.0  0.14931  0.54624  0.29771  1.0000
  C   C9        1.0  0.23935  0.60949  0.35746  1.0000
  C   C10       1.0  0.26215  0.63659  0.30916  1.0000
  C   C11       1.0  0.29764  0.65138  0.31599  1.0000
  C   C12       1.0  0.31376  0.63123  0.31526  1.0000
  C   C13       1.0  0.34994  0.64653  0.31583  1.0000
  C   C14       1.0  0.37010  0.68280  0.31517  1.0000
  C   C15       1.0  0.35480  0.70368  0.31584  1.0000
  C   C16       1.0  0.31852  0.68756  0.31530  1.0000
  C   C17       1.0  0.37549  0.73917  0.30900  1.0000
  C   C18       1.0  0.37121  0.76197  0.35734  1.0000
  C   C19       1.0  0.39167  0.79712  0.34624  1.0000
  C   C20       1.0  0.37728  0.81645  0.31205  1.0000
  C   C21       1.0  0.42704  0.81419  0.36760  1.0000
  C   C22       1.0  0.44767  0.84980  0.35368  1.0000
  C   C23       1.0  0.43333  0.86901  0.31833  1.0000
  C   C24       1.0  0.39802  0.85202  0.29765  1.0000
  C   C25       1.0  0.36474  0.62583  0.30898  1.0000
  C   C26       1.0  0.39183  0.63013  0.35728  1.0000
  C   C27       1.0  0.40652  0.60966  0.34618  1.0000
  C   C28       1.0  0.38821  0.57429  0.36755  1.0000
  C   C29       1.0  0.44024  0.62405  0.31197  1.0000
  C   C30       1.0  0.45506  0.60330  0.29756  1.0000
  C   C31       1.0  0.43674  0.56799  0.31825  1.0000
  C   C32       1.0  0.40319  0.55366  0.35360  1.0000
  H   H2        1.0  0.13974  0.61202  0.36769  1.0000
  H   H3        1.0  0.20051  0.63758  0.39241  1.0000
  H   H4        1.0  0.30712  0.70240  0.31219  1.0000
  H   H5        1.0  0.29892  0.60499  0.31217  1.0000
  H   H6        1.0  0.39633  0.69420  0.31202  1.0000
  H   H7        1.0  0.36374  0.56320  0.39234  1.0000
  H   H8        1.0  0.35177  0.80471  0.29556  1.0000
  H   H9        1.0  0.47335  0.86156  0.36765  1.0000
  H   H10       1.0  0.43813  0.80080  0.39236  1.0000
  H   H11       1.0  0.38928  0.52798  0.36763  1.0000
  H   H12       1.0  0.45401  0.64955  0.29548  1.0000
  H   H13       1.0  0.35192  0.75374  0.40067  1.0000
  H   H14       1.0  0.39483  0.74800  0.26551  1.0000
  H   H15       1.0  0.24758  0.59840  0.40069  1.0000
  H   H16       1.0  0.25332  0.64713  0.26574  1.0000
  H   H17       1.0  0.40291  0.64943  0.40057  1.0000
  H   H18       1.0  0.35421  0.60648  0.26555  1.0000
  N   N2        1.0  0.45344  0.90445  0.29859  1.0000
  H   H19       1.0  0.47311  0.90792  0.25703  1.0000
  N   N3        1.0  0.09687  0.54922  0.29861  1.0000
  H   H20       1.0  0.09341  0.56542  0.25703  1.0000
  N   N4        1.0  0.45207  0.54788  0.29854  1.0000
  H   H21       1.0  0.43586  0.52821  0.25700  1.0000
  C   C33       1.0  0.86905  0.42356  0.34198  1.0000
  C   C34       1.0  0.84877  0.39456  0.28780  1.0000
  C   C35       1.0  0.81316  0.38144  0.27939  1.0000
  C   C36       1.0  0.79710  0.39703  0.32548  1.0000
  C   C37       1.0  0.81721  0.42589  0.38002  1.0000
  C   C38       1.0  0.85275  0.43876  0.38872  1.0000
  C   C39       1.0  0.76229  0.38475  0.31627  1.0000
  C   C40       1.0  0.73877  0.35967  0.36841  1.0000
  C   C41       1.0  0.70362  0.34720  0.36225  1.0000
  C   C42       1.0  0.68996  0.36955  0.36295  1.0000
  C   C43       1.0  0.65412  0.35668  0.36230  1.0000
  C   C44       1.0  0.63177  0.32068  0.36295  1.0000
  C   C45       1.0  0.64464  0.29770  0.36229  1.0000
  C   C46       1.0  0.68064  0.31136  0.36291  1.0000
  C   C47       1.0  0.62196  0.26255  0.36847  1.0000
  C   C48       1.0  0.62350  0.23903  0.31628  1.0000
  C   C49       1.0  0.60098  0.20422  0.32550  1.0000
  C   C50       1.0  0.60973  0.18412  0.38004  1.0000
  C   C51       1.0  0.56933  0.18816  0.27941  1.0000
  C   C52       1.0  0.54684  0.15255  0.28782  1.0000
  C   C53       1.0  0.55557  0.13227  0.34201  1.0000
  C   C54       1.0  0.58707  0.14857  0.38875  1.0000
  C   C55       1.0  0.64164  0.37936  0.36847  1.0000
  C   C56       1.0  0.61658  0.37781  0.31631  1.0000
  C   C57       1.0  0.60429  0.40033  0.32554  1.0000
  C   C58       1.0  0.61987  0.43198  0.27942  1.0000
  C   C59       1.0  0.57544  0.39158  0.38010  1.0000
  C   C60       1.0  0.56256  0.41425  0.38880  1.0000
  C   C61       1.0  0.57775  0.44575  0.34205  1.0000
  C   C62       1.0  0.60674  0.45447  0.28782  1.0000
  H   H22       1.0  0.85995  0.38304  0.25346  1.0000
  H   H23       1.0  0.79914  0.36056  0.23923  1.0000
  H   H24       1.0  0.69026  0.29495  0.36565  1.0000
  H   H25       1.0  0.70637  0.39558  0.36566  1.0000
  H   H26       1.0  0.60574  0.31106  0.36571  1.0000
  H   H27       1.0  0.64074  0.43883  0.23924  1.0000
  H   H28       1.0  0.63255  0.19516  0.41404  1.0000
  H   H29       1.0  0.52414  0.14137  0.25348  1.0000
  H   H30       1.0  0.56247  0.20218  0.23925  1.0000
  H   H31       1.0  0.61826  0.47717  0.25349  1.0000
  H   H32       1.0  0.56366  0.36877  0.41411  1.0000
  H   H33       1.0  0.64168  0.24635  0.26995  1.0000
  H   H34       1.0  0.60333  0.25465  0.41385  1.0000
  H   H35       1.0  0.75497  0.39563  0.26997  1.0000
  H   H36       1.0  0.74667  0.34893  0.41377  1.0000
  H   H37       1.0  0.60571  0.35963  0.26998  1.0000
  H   H38       1.0  0.65238  0.39799  0.41386  1.0000
  N   N5        1.0  0.53355  0.09627  0.35213  1.0000
  H   H39       1.0  0.50868  0.08914  0.33543  1.0000
  N   N6        1.0  0.90505  0.43754  0.35210  1.0000
  H   H40       1.0  0.91218  0.41980  0.33541  1.0000
  N   N7        1.0  0.56377  0.46777  0.35217  1.0000
  H   H41       1.0  0.58151  0.49263  0.33547  1.0000
  C   C63       1.0  0.51556  0.47791  0.32130  1.0000
  C   C64       1.0  0.50955  0.49594  0.25299  1.0000
  C   C65       1.0  0.49250  0.51435  0.27068  1.0000
  H   H42       1.0  0.48871  0.52675  0.21860  1.0000
  H   H43       1.0  0.51711  0.49541  0.18888  1.0000
  C   C66       1.0  0.53178  0.45681  0.29998  1.0000
  H   H44       1.0  0.53768  0.45793  0.22871  1.0000
  H   H45       1.0  0.51288  0.43012  0.31545  1.0000
  C   C67       1.0  0.52340  0.03791  0.32128  1.0000
  C   C68       1.0  0.50536  0.01387  0.25299  1.0000
  C   C69       1.0  0.48697  0.97842  0.27068  1.0000
  H   H46       1.0  0.47456  0.96222  0.21862  1.0000
  H   H47       1.0  0.50590  0.02196  0.18886  1.0000
  C   C70       1.0  0.54450  0.07523  0.29994  1.0000
  H   H48       1.0  0.54338  0.08001  0.22867  1.0000
  H   H49       1.0  0.57119  0.08303  0.31540  1.0000
  C   C71       1.0  0.96341  0.48575  0.32126  1.0000
  C   C72       1.0  0.98745  0.49175  0.25297  1.0000
  H   H50       1.0  0.03910  0.51258  0.21863  1.0000
  H   H51       1.0  0.97936  0.48418  0.18886  1.0000
  C   C73       1.0  0.92609  0.46953  0.29991  1.0000
  H   H52       1.0  0.92132  0.46363  0.22865  1.0000
  H   H53       1.0  0.91830  0.48843  0.31536  1.0000
  H   H54       1.0  0.13587  0.52206  0.27127  1.0000
  H   H55       1.0  0.19662  0.54731  0.29566  1.0000
  H   H56       1.0  0.38729  0.86546  0.27118  1.0000
  H   H57       1.0  0.47924  0.61403  0.27110  1.0000
  H   H58       1.0  0.86684  0.45959  0.42889  1.0000
  H   H59       1.0  0.80617  0.43767  0.41402  1.0000
  H   H60       1.0  0.59380  0.13449  0.42891  1.0000
  H   H61       1.0  0.54174  0.40752  0.42899  1.0000
  C   C74       1.0  0.48063  0.51548  0.35742  1.0000
  C   C75       1.0  0.48747  0.49828  0.42689  1.0000
  C   C76       1.0  0.50452  0.47943  0.40890  1.0000
  N   N8        1.0  0.50974  0.46294  0.47817  1.0000
  C   C77       1.0  0.49981  0.46378  0.56311  1.0000
  C   C78       1.0  0.48317  0.48250  0.58105  1.0000
  N   N9        1.0  0.47758  0.49883  0.51258  1.0000
  H   H62       1.0  0.50441  0.45102  0.61270  1.0000
  H   H63       1.0  0.47524  0.48377  0.64410  1.0000
  C   C79       1.0  0.46130  0.53384  0.37701  1.0000
  H   H64       1.0  0.47710  0.55501  0.42238  1.0000
  H   H65       1.0  0.43763  0.51598  0.41207  1.0000
  C   C80       1.0  0.48584  0.96542  0.35742  1.0000
  C   C81       1.0  0.50304  0.98946  0.42688  1.0000
  C   C82       1.0  0.52189  0.02536  0.40888  1.0000
  N   N10       1.0  0.53839  0.04708  0.47814  1.0000
  C   C83       1.0  0.53755  0.03631  0.56309  1.0000
  C   C84       1.0  0.51882  0.00095  0.58104  1.0000
  N   N11       1.0  0.50250  0.97903  0.51259  1.0000
  H   H66       1.0  0.55031  0.05368  0.61266  1.0000
  H   H67       1.0  0.51756  0.99176  0.64409  1.0000
  C   C85       1.0  0.46749  0.92773  0.37704  1.0000
  H   H68       1.0  0.44631  0.92236  0.42242  1.0000
  H   H69       1.0  0.48535  0.92192  0.41209  1.0000
  C   C86       1.0  0.03590  0.52067  0.35743  1.0000
  C   C87       1.0  0.97596  0.49679  0.40887  1.0000
  N   N12       1.0  0.95423  0.49157  0.47812  1.0000
  C   C88       1.0  0.96501  0.50150  0.56307  1.0000
  C   C89       1.0  0.00037  0.51814  0.58103  1.0000
  H   H70       1.0  0.94764  0.49690  0.61264  1.0000
  C   C90       1.0  0.07359  0.54000  0.37705  1.0000
  H   H71       1.0  0.07896  0.52420  0.42244  1.0000
  H   H72       1.0  0.07940  0.56367  0.41209  1.0000
