data_image0
_chemical_formula_structural       C2NC2NC2NC2NC2NC2NC2NC2N2C2N2C2N2C2N2C2N2C2N2C2N2C2N2C2NC2NC2NC2NC2NC2NC2NC2NC2NC2NC2NC2NC2NC2NC2NC2NC2N2C2N2C2N2C2N2C2N2C2N2C2N2C2N2C2N2C2N2C2NC6H3C6H3C6H3C6H3C6H3C6H3C6H3C6H3C6H3C6H3C6H3C6H3C6H3C6H3C6H3C6H3C6H3C6H3C6H3C6H3NC2N2C2N2C2N2C2NC2NC2NC2NC2NC2NC2NC2NC2NC2NC2NC2NC2NC2NC2NC2NC2N2C2N2C2N2C2N2C2N2C2N2C2N2C2N2C2NC2NC2NC2NC2NC2NC2NC2NC2NC2NC2NC2NC2NC2NC2NC2NC2NC2NC2NC2NC2N
_chemical_formula_sum              "C300 N120 H60"
_cell_length_a       43.7541
_cell_length_b       43.7541
_cell_length_c       14.7836
_cell_angle_alpha    90
_cell_angle_beta     90
_cell_angle_gamma    90

_space_group_name_H-M_alt    "P 1"
_space_group_IT_number       1

loop_
  _space_group_symop_operation_xyz
  'x, y, z'

loop_
  _atom_site_type_symbol
  _atom_site_label
  _atom_site_symmetry_multiplicity
  _atom_site_fract_x
  _atom_site_fract_y
  _atom_site_fract_z
  _atom_site_occupancy
  C   C1        1.0  0.37734  0.05822  0.34414  1.0000
  C   C2        1.0  0.31617  0.04123  0.35073  1.0000
  N   N1        1.0  0.33087  0.04495  0.27051  1.0000
  C   C3        1.0  0.36077  0.05281  0.26345  1.0000
  C   C4        1.0  0.37227  0.05575  0.18274  1.0000
  N   N2        1.0  0.38257  0.05841  0.11174  1.0000
  C   C5        1.0  0.63723  0.95649  0.34204  1.0000
  C   C6        1.0  0.69840  0.97343  0.34973  1.0000
  N   N3        1.0  0.68392  0.96947  0.26924  1.0000
  C   C7        1.0  0.65404  0.96160  0.26163  1.0000
  C   C8        1.0  0.64275  0.95850  0.18073  1.0000
  N   N4        1.0  0.63266  0.95572  0.10950  1.0000
  C   C9        1.0  0.95642  0.37737  0.34420  1.0000
  C   C10       1.0  0.97342  0.31621  0.35079  1.0000
  N   N5        1.0  0.96969  0.33091  0.27056  1.0000
  C   C11       1.0  0.96182  0.36080  0.26350  1.0000
  C   C12       1.0  0.95888  0.37230  0.18279  1.0000
  N   N6        1.0  0.95620  0.38260  0.11179  1.0000
  C   C13       1.0  0.05816  0.63725  0.34201  1.0000
  C   C14       1.0  0.04118  0.69842  0.34968  1.0000
  N   N7        1.0  0.04514  0.68393  0.26920  1.0000
  C   C15       1.0  0.05301  0.65405  0.26160  1.0000
  C   C16       1.0  0.05612  0.64277  0.18069  1.0000
  N   N8        1.0  0.05892  0.63267  0.10947  1.0000
  N   N9        1.0  0.15199  0.55473  0.27175  1.0000
  C   C17       1.0  0.18179  0.54653  0.26464  1.0000
  C   C18       1.0  0.19342  0.54450  0.18386  1.0000
  N   N10       1.0  0.20376  0.54268  0.11267  1.0000
  N   N11       1.0  0.86284  0.46011  0.27361  1.0000
  C   C19       1.0  0.83305  0.46829  0.26596  1.0000
  C   C20       1.0  0.82162  0.47044  0.18496  1.0000
  N   N12       1.0  0.81145  0.47233  0.11358  1.0000
  N   N13       1.0  0.55473  0.86266  0.27169  1.0000
  C   C21       1.0  0.54654  0.83287  0.26456  1.0000
  C   C22       1.0  0.54452  0.82123  0.18378  1.0000
  N   N14       1.0  0.54271  0.81090  0.11258  1.0000
  N   N15       1.0  0.46005  0.15181  0.27363  1.0000
  C   C23       1.0  0.46824  0.18160  0.26598  1.0000
  C   C24       1.0  0.47036  0.19304  0.18498  1.0000
  N   N16       1.0  0.47223  0.20321  0.11359  1.0000
  N   N17       1.0  0.20903  0.09840  0.27156  1.0000
  C   C25       1.0  0.19747  0.12717  0.26454  1.0000
  C   C26       1.0  0.19437  0.13862  0.18386  1.0000
  N   N18       1.0  0.19166  0.14886  0.11279  1.0000
  N   N19       1.0  0.80554  0.91618  0.27133  1.0000
  C   C27       1.0  0.81715  0.88743  0.26445  1.0000
  C   C28       1.0  0.82033  0.87597  0.18382  1.0000
  N   N20       1.0  0.82311  0.86572  0.11279  1.0000
  N   N21       1.0  0.91620  0.20903  0.27121  1.0000
  C   C29       1.0  0.88744  0.19742  0.26433  1.0000
  C   C30       1.0  0.87597  0.19426  0.18370  1.0000
  N   N22       1.0  0.86571  0.19150  0.11268  1.0000
  N   N23       1.0  0.09845  0.80552  0.27146  1.0000
  C   C31       1.0  0.12721  0.81712  0.26452  1.0000
  C   C32       1.0  0.13868  0.82023  0.18387  1.0000
  N   N24       1.0  0.14893  0.82295  0.11282  1.0000
  C   C33       1.0  0.30073  0.58354  0.34501  1.0000
  C   C34       1.0  0.32327  0.64369  0.35119  1.0000
  N   N25       1.0  0.31758  0.62926  0.27143  1.0000
  C   C35       1.0  0.30674  0.60020  0.26459  1.0000
  C   C36       1.0  0.30071  0.58994  0.18393  1.0000
  N   N26       1.0  0.29516  0.58084  0.11295  1.0000
  C   C37       1.0  0.71388  0.43112  0.34512  1.0000
  C   C38       1.0  0.69132  0.37094  0.35116  1.0000
  N   N27       1.0  0.69703  0.38539  0.27145  1.0000
  C   C39       1.0  0.70787  0.41445  0.26469  1.0000
  C   C40       1.0  0.71391  0.42471  0.18403  1.0000
  N   N28       1.0  0.71946  0.43380  0.11304  1.0000
  C   C41       1.0  0.58351  0.71391  0.34516  1.0000
  C   C42       1.0  0.64368  0.69134  0.35125  1.0000
  N   N29       1.0  0.62925  0.69705  0.27153  1.0000
  C   C43       1.0  0.60019  0.70790  0.26475  1.0000
  C   C44       1.0  0.58995  0.71395  0.18408  1.0000
  N   N30       1.0  0.58087  0.71952  0.11308  1.0000
  C   C45       1.0  0.43113  0.30080  0.34484  1.0000
  C   C46       1.0  0.37094  0.32331  0.35109  1.0000
  N   N31       1.0  0.38538  0.31764  0.27133  1.0000
  C   C47       1.0  0.41445  0.30683  0.26447  1.0000
  C   C48       1.0  0.42469  0.30077  0.18380  1.0000
  N   N32       1.0  0.43375  0.29519  0.11281  1.0000
  C   C49       1.0  0.22988  0.97025  0.34412  1.0000
  C   C50       1.0  0.21851  0.90701  0.35173  1.0000
  N   N33       1.0  0.22147  0.92207  0.27165  1.0000
  C   C51       1.0  0.22712  0.95256  0.26414  1.0000
  C   C52       1.0  0.23049  0.96372  0.18320  1.0000
  N   N34       1.0  0.23357  0.97365  0.11188  1.0000
  C   C53       1.0  0.78469  0.04437  0.34439  1.0000
  C   C54       1.0  0.79613  0.10760  0.35186  1.0000
  N   N35       1.0  0.79320  0.09252  0.27180  1.0000
  C   C55       1.0  0.78753  0.06203  0.26435  1.0000
  C   C56       1.0  0.78419  0.05085  0.18341  1.0000
  N   N36       1.0  0.78113  0.04091  0.11210  1.0000
  C   C57       1.0  0.04440  0.22994  0.34428  1.0000
  C   C58       1.0  0.10762  0.21850  0.35173  1.0000
  N   N37       1.0  0.09254  0.22142  0.27168  1.0000
  C   C59       1.0  0.06205  0.22708  0.26423  1.0000
  C   C60       1.0  0.05087  0.23042  0.18330  1.0000
  N   N38       1.0  0.04093  0.23349  0.11198  1.0000
  C   C61       1.0  0.97028  0.78477  0.34427  1.0000
  C   C62       1.0  0.90703  0.79613  0.35184  1.0000
  N   N39       1.0  0.92209  0.79317  0.27177  1.0000
  C   C63       1.0  0.95258  0.78753  0.26429  1.0000
  C   C64       1.0  0.96373  0.78414  0.18334  1.0000
  N   N40       1.0  0.97366  0.78104  0.11202  1.0000
  N   N41       1.0  0.28720  0.45504  0.27189  1.0000
  C   C65       1.0  0.29323  0.42463  0.26435  1.0000
  C   C66       1.0  0.29508  0.41315  0.18339  1.0000
  N   N42       1.0  0.29671  0.40293  0.11201  1.0000
  N   N43       1.0  0.72745  0.55963  0.27169  1.0000
  C   C67       1.0  0.72142  0.59005  0.26422  1.0000
  C   C68       1.0  0.71952  0.60154  0.18328  1.0000
  N   N44       1.0  0.71786  0.61177  0.11192  1.0000
  N   N45       1.0  0.45500  0.72746  0.27179  1.0000
  C   C69       1.0  0.42459  0.72142  0.26431  1.0000
  C   C70       1.0  0.41310  0.71954  0.18337  1.0000
  N   N46       1.0  0.40286  0.71790  0.11201  1.0000
  N   N47       1.0  0.55960  0.28719  0.27177  1.0000
  C   C71       1.0  0.59002  0.29321  0.26427  1.0000
  C   C72       1.0  0.60150  0.29509  0.18331  1.0000
  N   N48       1.0  0.61172  0.29674  0.11194  1.0000
  N   N49       1.0  0.24982  0.28824  0.27156  1.0000
  C   C73       1.0  0.22778  0.26636  0.26481  1.0000
  C   C74       1.0  0.21976  0.25763  0.18412  1.0000
  N   N50       1.0  0.21265  0.24981  0.11303  1.0000
  N   N51       1.0  0.76480  0.72643  0.27154  1.0000
  C   C75       1.0  0.78685  0.74831  0.26481  1.0000
  C   C76       1.0  0.79487  0.75704  0.18414  1.0000
  N   N52       1.0  0.80201  0.76485  0.11304  1.0000
  N   N53       1.0  0.72644  0.24982  0.27152  1.0000
  C   C77       1.0  0.74832  0.22778  0.26480  1.0000
  C   C78       1.0  0.75705  0.21976  0.18413  1.0000
  N   N54       1.0  0.76487  0.21263  0.11304  1.0000
  N   N55       1.0  0.28822  0.76480  0.27154  1.0000
  C   C79       1.0  0.26633  0.78684  0.26479  1.0000
  C   C80       1.0  0.25760  0.79485  0.18412  1.0000
  N   N56       1.0  0.24978  0.80197  0.11302  1.0000
  N   N57       1.0  0.51905  0.99560  0.27127  1.0000
  C   C81       1.0  0.49719  0.01741  0.26407  1.0000
  C   C82       1.0  0.48883  0.02573  0.18327  1.0000
  N   N58       1.0  0.48134  0.03315  0.11213  1.0000
  N   N59       1.0  0.01904  0.51908  0.27124  1.0000
  C   C83       1.0  0.99723  0.49723  0.26404  1.0000
  C   C84       1.0  0.98890  0.48886  0.18325  1.0000
  N   N60       1.0  0.98148  0.48137  0.11211  1.0000
  C   C85       1.0  0.28442  0.03592  0.34822  1.0000
  C   C86       1.0  0.26435  0.06108  0.34893  1.0000
  C   C87       1.0  0.23238  0.05681  0.34846  1.0000
  C   C88       1.0  0.22061  0.02659  0.34709  1.0000
  C   C89       1.0  0.24056  0.00098  0.34607  1.0000
  C   C90       1.0  0.27248  0.00602  0.34669  1.0000
  H   H1        1.0  0.19747  0.02324  0.34698  1.0000
  H   H2        1.0  0.28720  0.98779  0.34640  1.0000
  H   H3        1.0  0.27318  0.08279  0.35054  1.0000
  C   C91       1.0  0.73015  0.97871  0.34778  1.0000
  C   C92       1.0  0.75020  0.95355  0.34850  1.0000
  C   C93       1.0  0.78218  0.95780  0.34839  1.0000
  C   C94       1.0  0.79397  0.98801  0.34728  1.0000
  C   C95       1.0  0.77403  0.01363  0.34623  1.0000
  C   C96       1.0  0.74210  0.00861  0.34659  1.0000
  H   H4        1.0  0.81710  0.99136  0.34733  1.0000
  H   H5        1.0  0.72740  0.02684  0.34621  1.0000
  H   H6        1.0  0.74136  0.93184  0.34981  1.0000
  C   C97       1.0  0.97872  0.28446  0.34826  1.0000
  C   C98       1.0  0.95357  0.26440  0.34879  1.0000
  C   C99       1.0  0.95782  0.23243  0.34831  1.0000
  C   C100      1.0  0.98804  0.22065  0.34700  1.0000
  C   C101      1.0  0.01365  0.24060  0.34614  1.0000
  C   C102      1.0  0.00863  0.27252  0.34686  1.0000
  H   H7        1.0  0.99139  0.19751  0.34682  1.0000
  H   H8        1.0  0.02685  0.28723  0.34668  1.0000
  H   H9        1.0  0.93186  0.27324  0.35032  1.0000
  C   C103      1.0  0.03591  0.73017  0.34773  1.0000
  C   C104      1.0  0.06108  0.75022  0.34849  1.0000
  C   C105      1.0  0.05684  0.78219  0.34842  1.0000
  C   C106      1.0  0.02663  0.79399  0.34730  1.0000
  C   C107      1.0  0.00101  0.77406  0.34617  1.0000
  C   C108      1.0  0.00601  0.74214  0.34649  1.0000
  H   H10       1.0  0.02330  0.81713  0.34738  1.0000
  H   H11       1.0  0.98778  0.72744  0.34606  1.0000
  H   H12       1.0  0.08278  0.74137  0.34988  1.0000
  C   C109      1.0  0.23018  0.53592  0.34775  1.0000
  C   C110      1.0  0.25024  0.56108  0.34711  1.0000
  C   C111      1.0  0.28221  0.55683  0.34761  1.0000
  C   C112      1.0  0.29400  0.52661  0.34895  1.0000
  C   C113      1.0  0.27405  0.50099  0.34991  1.0000
  C   C114      1.0  0.24213  0.50601  0.34925  1.0000
  H   H13       1.0  0.31714  0.52327  0.34910  1.0000
  H   H14       1.0  0.22742  0.48778  0.34953  1.0000
  H   H15       1.0  0.24140  0.58278  0.34553  1.0000
  C   C115      1.0  0.78444  0.47871  0.34823  1.0000
  C   C116      1.0  0.76437  0.45356  0.34751  1.0000
  C   C117      1.0  0.73240  0.45783  0.34762  1.0000
  C   C118      1.0  0.72063  0.48806  0.34872  1.0000
  C   C119      1.0  0.74059  0.51366  0.34979  1.0000
  C   C120      1.0  0.77251  0.50862  0.34944  1.0000
  H   H16       1.0  0.69750  0.49142  0.34869  1.0000
  H   H17       1.0  0.78723  0.52684  0.34985  1.0000
  H   H18       1.0  0.77320  0.43185  0.34618  1.0000
  C   C121      1.0  0.53591  0.78447  0.34768  1.0000
  C   C122      1.0  0.56106  0.76441  0.34710  1.0000
  C   C123      1.0  0.55680  0.73243  0.34761  1.0000
  C   C124      1.0  0.52658  0.72066  0.34897  1.0000
  C   C125      1.0  0.50097  0.74061  0.34987  1.0000
  C   C126      1.0  0.50600  0.77253  0.34915  1.0000
  H   H19       1.0  0.52322  0.69752  0.34916  1.0000
  H   H20       1.0  0.48778  0.78725  0.34937  1.0000
  H   H21       1.0  0.58277  0.77324  0.34556  1.0000
  C   C127      1.0  0.47870  0.23020  0.34824  1.0000
  C   C128      1.0  0.45355  0.25028  0.34740  1.0000
  C   C129      1.0  0.45782  0.28225  0.34751  1.0000
  C   C130      1.0  0.48805  0.29401  0.34868  1.0000
  C   C131      1.0  0.51365  0.27405  0.34984  1.0000
  C   C132      1.0  0.50861  0.24213  0.34954  1.0000
  H   H22       1.0  0.49141  0.31715  0.34861  1.0000
  H   H23       1.0  0.52682  0.22741  0.35002  1.0000
  H   H24       1.0  0.43183  0.24145  0.34600  1.0000
  C   C133      1.0  0.19317  0.22980  0.34759  1.0000
  C   C134      1.0  0.20281  0.19890  0.34666  1.0000
  C   C135      1.0  0.18141  0.17464  0.34745  1.0000
  C   C136      1.0  0.14987  0.18159  0.34906  1.0000
  C   C137      1.0  0.13955  0.21222  0.34989  1.0000
  C   C138      1.0  0.16142  0.23613  0.34913  1.0000
  H   H25       1.0  0.13424  0.16415  0.34935  1.0000
  H   H26       1.0  0.15413  0.25836  0.34947  1.0000
  H   H27       1.0  0.22570  0.19400  0.34489  1.0000
  C   C139      1.0  0.82147  0.78484  0.34763  1.0000
  C   C140      1.0  0.81184  0.81574  0.34669  1.0000
  C   C141      1.0  0.83325  0.84001  0.34753  1.0000
  C   C142      1.0  0.86478  0.83304  0.34920  1.0000
  C   C143      1.0  0.87509  0.80241  0.35004  1.0000
  C   C144      1.0  0.85323  0.77851  0.34922  1.0000
  H   H28       1.0  0.88041  0.85048  0.34948  1.0000
  H   H29       1.0  0.86051  0.75627  0.34955  1.0000
  H   H30       1.0  0.78896  0.82064  0.34486  1.0000
  C   C145      1.0  0.78485  0.19315  0.34763  1.0000
  C   C146      1.0  0.81575  0.20278  0.34665  1.0000
  C   C147      1.0  0.84001  0.18137  0.34745  1.0000
  C   C148      1.0  0.83305  0.14984  0.34912  1.0000
  C   C149      1.0  0.80242  0.13953  0.35002  1.0000
  C   C150      1.0  0.77851  0.16140  0.34924  1.0000
  H   H31       1.0  0.85048  0.13421  0.34937  1.0000
  H   H32       1.0  0.75628  0.15411  0.34960  1.0000
  H   H33       1.0  0.82065  0.22567  0.34479  1.0000
  C   C151      1.0  0.22980  0.82146  0.34760  1.0000
  C   C152      1.0  0.19890  0.81183  0.34671  1.0000
  C   C153      1.0  0.17464  0.83323  0.34753  1.0000
  C   C154      1.0  0.18160  0.86477  0.34916  1.0000
  C   C155      1.0  0.21223  0.87508  0.34995  1.0000
  C   C156      1.0  0.23613  0.85322  0.34914  1.0000
  H   H34       1.0  0.16416  0.88039  0.34943  1.0000
  H   H35       1.0  0.25837  0.86050  0.34945  1.0000
  H   H36       1.0  0.19400  0.78894  0.34489  1.0000
  C   C157      1.0  0.32145  0.72979  0.34872  1.0000
  C   C158      1.0  0.31181  0.69890  0.34960  1.0000
  C   C159      1.0  0.33322  0.67463  0.34874  1.0000
  C   C160      1.0  0.36476  0.68159  0.34707  1.0000
  C   C161      1.0  0.37507  0.71222  0.34628  1.0000
  C   C162      1.0  0.35320  0.73613  0.34714  1.0000
  H   H37       1.0  0.38038  0.66415  0.34673  1.0000
  H   H38       1.0  0.36048  0.75836  0.34682  1.0000
  H   H39       1.0  0.28893  0.69399  0.35142  1.0000
  C   C163      1.0  0.69319  0.28483  0.34866  1.0000
  C   C164      1.0  0.70281  0.31573  0.34955  1.0000
  C   C165      1.0  0.68139  0.33999  0.34864  1.0000
  C   C166      1.0  0.64986  0.33302  0.34695  1.0000
  C   C167      1.0  0.63956  0.30238  0.34617  1.0000
  C   C168      1.0  0.66144  0.27849  0.34707  1.0000
  H   H40       1.0  0.63423  0.35045  0.34661  1.0000
  H   H41       1.0  0.65416  0.25625  0.34676  1.0000
  H   H42       1.0  0.72569  0.32065  0.35140  1.0000
  C   C169      1.0  0.72979  0.69320  0.34872  1.0000
  C   C170      1.0  0.69889  0.70283  0.34964  1.0000
  C   C171      1.0  0.67463  0.68141  0.34875  1.0000
  C   C172      1.0  0.68160  0.64987  0.34703  1.0000
  C   C173      1.0  0.71223  0.63958  0.34619  1.0000
  C   C174      1.0  0.73613  0.66145  0.34707  1.0000
  H   H43       1.0  0.66417  0.63424  0.34668  1.0000
  H   H44       1.0  0.75837  0.65417  0.34672  1.0000
  H   H45       1.0  0.69398  0.72570  0.35150  1.0000
  C   C175      1.0  0.28484  0.32146  0.34874  1.0000
  C   C176      1.0  0.31573  0.31183  0.34958  1.0000
  C   C177      1.0  0.34000  0.33324  0.34866  1.0000
  C   C178      1.0  0.33303  0.36478  0.34697  1.0000
  C   C179      1.0  0.30240  0.37509  0.34623  1.0000
  C   C180      1.0  0.27850  0.35322  0.34714  1.0000
  H   H46       1.0  0.35047  0.38040  0.34660  1.0000
  H   H47       1.0  0.25626  0.36050  0.34685  1.0000
  H   H48       1.0  0.32064  0.28895  0.35141  1.0000
  C   C181      1.0  0.44787  0.10630  0.35200  1.0000
  C   C182      1.0  0.41672  0.09790  0.35011  1.0000
  C   C183      1.0  0.40832  0.06677  0.34677  1.0000
  C   C184      1.0  0.43116  0.04405  0.34524  1.0000
  C   C185      1.0  0.46226  0.05239  0.34726  1.0000
  C   C186      1.0  0.47060  0.08348  0.35067  1.0000
  H   H49       1.0  0.42514  0.02143  0.34247  1.0000
  H   H50       1.0  0.49324  0.08950  0.35163  1.0000
  H   H51       1.0  0.40017  0.11446  0.35077  1.0000
  C   C187      1.0  0.56672  0.90838  0.34939  1.0000
  C   C188      1.0  0.59785  0.91678  0.34598  1.0000
  C   C189      1.0  0.60624  0.94793  0.34423  1.0000
  C   C190      1.0  0.58342  0.97066  0.34575  1.0000
  C   C191      1.0  0.55233  0.96231  0.34921  1.0000
  C   C192      1.0  0.54400  0.93121  0.35110  1.0000
  H   H52       1.0  0.58944  0.99329  0.34486  1.0000
  H   H53       1.0  0.52138  0.92519  0.35389  1.0000
  H   H54       1.0  0.61440  0.90022  0.34519  1.0000
  C   C193      1.0  0.90834  0.44790  0.35198  1.0000
  C   C194      1.0  0.91674  0.41676  0.35016  1.0000
  C   C195      1.0  0.94787  0.40836  0.34682  1.0000
  C   C196      1.0  0.97059  0.43119  0.34527  1.0000
  C   C197      1.0  0.96225  0.46229  0.34724  1.0000
  C   C198      1.0  0.93117  0.47064  0.35063  1.0000
  H   H55       1.0  0.99321  0.42517  0.34251  1.0000
  H   H56       1.0  0.92514  0.49327  0.35155  1.0000
  H   H57       1.0  0.90019  0.40020  0.35081  1.0000
  C   C199      1.0  0.10627  0.56674  0.34941  1.0000
  C   C200      1.0  0.09787  0.59787  0.34598  1.0000
  C   C201      1.0  0.06673  0.60626  0.34421  1.0000
  C   C202      1.0  0.04399  0.58344  0.34573  1.0000
  C   C203      1.0  0.05234  0.55236  0.34919  1.0000
  C   C204      1.0  0.08344  0.54402  0.35110  1.0000
  H   H58       1.0  0.02136  0.58947  0.34481  1.0000
  H   H59       1.0  0.08946  0.52140  0.35391  1.0000
  H   H60       1.0  0.11443  0.61442  0.34521  1.0000
  N   N61       1.0  0.36260  0.05475  0.42435  1.0000
  C   C205      1.0  0.33280  0.04654  0.43140  1.0000
  C   C206      1.0  0.32116  0.04449  0.51217  1.0000
  N   N62       1.0  0.31081  0.04266  0.58334  1.0000
  N   N63       1.0  0.65175  0.96017  0.42252  1.0000
  C   C207      1.0  0.68154  0.96835  0.43012  1.0000
  C   C208      1.0  0.69298  0.97052  0.51110  1.0000
  N   N64       1.0  0.70316  0.97244  0.58247  1.0000
  N   N65       1.0  0.95990  0.36264  0.42441  1.0000
  C   C209      1.0  0.96811  0.33284  0.43146  1.0000
  C   C210      1.0  0.97016  0.32120  0.51222  1.0000
  N   N66       1.0  0.97199  0.31085  0.58339  1.0000
  N   N67       1.0  0.05448  0.65178  0.42248  1.0000
  C   C211      1.0  0.04628  0.68156  0.43007  1.0000
  C   C212      1.0  0.04412  0.69301  0.51105  1.0000
  N   N68       1.0  0.04222  0.70320  0.58241  1.0000
  C   C213      1.0  0.13726  0.55818  0.35198  1.0000
  C   C214      1.0  0.19844  0.54122  0.34529  1.0000
  N   N69       1.0  0.18374  0.54490  0.42553  1.0000
  C   C215      1.0  0.15384  0.55275  0.43264  1.0000
  C   C216      1.0  0.14234  0.55566  0.51337  1.0000
  N   N70       1.0  0.13205  0.55830  0.58439  1.0000
  C   C217      1.0  0.87736  0.45647  0.35411  1.0000
  C   C218      1.0  0.81619  0.47340  0.34632  1.0000
  N   N71       1.0  0.83066  0.46949  0.42684  1.0000
  C   C219      1.0  0.86054  0.46162  0.43449  1.0000
  C   C220      1.0  0.87182  0.45857  0.51542  1.0000
  N   N72       1.0  0.88191  0.45582  0.58667  1.0000
  C   C221      1.0  0.55817  0.87738  0.35193  1.0000
  C   C222      1.0  0.54120  0.81622  0.34519  1.0000
  N   N73       1.0  0.54490  0.83090  0.42546  1.0000
  C   C223      1.0  0.55274  0.86080  0.43258  1.0000
  C   C224      1.0  0.55566  0.87229  0.51332  1.0000
  N   N74       1.0  0.55831  0.88257  0.58436  1.0000
  C   C225      1.0  0.45643  0.13729  0.35414  1.0000
  C   C226      1.0  0.47339  0.19845  0.34632  1.0000
  N   N75       1.0  0.46950  0.18397  0.42684  1.0000
  C   C227      1.0  0.46163  0.15409  0.43450  1.0000
  C   C228      1.0  0.45857  0.14282  0.51544  1.0000
  N   N76       1.0  0.45580  0.13273  0.58668  1.0000
  C   C229      1.0  0.21384  0.08351  0.35118  1.0000
  C   C230      1.0  0.19135  0.14370  0.34499  1.0000
  N   N77       1.0  0.19706  0.12927  0.42474  1.0000
  C   C231      1.0  0.20788  0.10021  0.43156  1.0000
  C   C232      1.0  0.21393  0.08994  0.51221  1.0000
  N   N78       1.0  0.21950  0.08085  0.58319  1.0000
  C   C233      1.0  0.80068  0.93106  0.35091  1.0000
  C   C234      1.0  0.82330  0.87094  0.34498  1.0000
  N   N79       1.0  0.81760  0.88541  0.42468  1.0000
  C   C235      1.0  0.80673  0.91446  0.43142  1.0000
  C   C236      1.0  0.80070  0.92475  0.51205  1.0000
  N   N80       1.0  0.79516  0.93386  0.58302  1.0000
  C   C237      1.0  0.93109  0.21392  0.35075  1.0000
  C   C238      1.0  0.87095  0.19131  0.34485  1.0000
  N   N81       1.0  0.88541  0.19705  0.42454  1.0000
  C   C239      1.0  0.91447  0.20790  0.43125  1.0000
  C   C240      1.0  0.92473  0.21396  0.51190  1.0000
  N   N82       1.0  0.93382  0.21954  0.58287  1.0000
  C   C241      1.0  0.08356  0.80071  0.35106  1.0000
  C   C242      1.0  0.14369  0.82329  0.34501  1.0000
  N   N83       1.0  0.12924  0.81760  0.42473  1.0000
  C   C243      1.0  0.10018  0.80676  0.43152  1.0000
  C   C244      1.0  0.08993  0.80069  0.51216  1.0000
  N   N84       1.0  0.08084  0.79510  0.58313  1.0000
  N   N85       1.0  0.30556  0.59841  0.42465  1.0000
  C   C245      1.0  0.31715  0.62717  0.43165  1.0000
  C   C246      1.0  0.32027  0.63862  0.51232  1.0000
  N   N86       1.0  0.32299  0.64885  0.58339  1.0000
  N   N87       1.0  0.70905  0.41620  0.42466  1.0000
  C   C247      1.0  0.69748  0.38743  0.43163  1.0000
  C   C248      1.0  0.69434  0.37598  0.51230  1.0000
  N   N88       1.0  0.69160  0.36574  0.58336  1.0000
  N   N89       1.0  0.59842  0.70907  0.42472  1.0000
  C   C249      1.0  0.62718  0.69748  0.43172  1.0000
  C   C250      1.0  0.63864  0.69437  0.51238  1.0000
  N   N90       1.0  0.64888  0.69166  0.58344  1.0000
  N   N91       1.0  0.41622  0.30554  0.42446  1.0000
  C   C251      1.0  0.38745  0.31711  0.43152  1.0000
  C   C252      1.0  0.37600  0.32017  0.51221  1.0000
  N   N92       1.0  0.36575  0.32284  0.58328  1.0000
  N   N93       1.0  0.22745  0.95505  0.42416  1.0000
  C   C253      1.0  0.22143  0.92464  0.43175  1.0000
  C   C254      1.0  0.21959  0.91317  0.51273  1.0000
  N   N94       1.0  0.21798  0.90296  0.58413  1.0000
  N   N95       1.0  0.78715  0.05958  0.42440  1.0000
  C   C255      1.0  0.79318  0.09000  0.43191  1.0000
  C   C256      1.0  0.79505  0.10148  0.51286  1.0000
  N   N96       1.0  0.79669  0.11170  0.58423  1.0000
  N   N97       1.0  0.05961  0.22749  0.42429  1.0000
  C   C257      1.0  0.09002  0.22145  0.43179  1.0000
  C   C258      1.0  0.10151  0.21960  0.51275  1.0000
  N   N98       1.0  0.11173  0.21798  0.58412  1.0000
  N   N99       1.0  0.95507  0.78719  0.42428  1.0000
  C   C259      1.0  0.92465  0.79321  0.43186  1.0000
  C   C260      1.0  0.91317  0.79504  0.51283  1.0000
  N   N100      1.0  0.90296  0.79665  0.58422  1.0000
  C   C261      1.0  0.28475  0.47027  0.35189  1.0000
  C   C262      1.0  0.29612  0.40701  0.34439  1.0000
  N   N101      1.0  0.29312  0.42208  0.42445  1.0000
  C   C263      1.0  0.28746  0.45257  0.43189  1.0000
  C   C264      1.0  0.28407  0.46374  0.51282  1.0000
  N   N102      1.0  0.28095  0.47367  0.58412  1.0000
  C   C265      1.0  0.72995  0.54441  0.35166  1.0000
  C   C266      1.0  0.71852  0.60765  0.34430  1.0000
  N   N103      1.0  0.72150  0.59256  0.42432  1.0000
  C   C267      1.0  0.72716  0.56207  0.43173  1.0000
  C   C268      1.0  0.73054  0.55089  0.51265  1.0000
  N   N104      1.0  0.73362  0.54094  0.58394  1.0000
  C   C269      1.0  0.47023  0.72996  0.35176  1.0000
  C   C270      1.0  0.40700  0.71851  0.34439  1.0000
  N   N105      1.0  0.42208  0.72148  0.42442  1.0000
  C   C271      1.0  0.45257  0.72715  0.43182  1.0000
  C   C272      1.0  0.46375  0.73053  0.51274  1.0000
  N   N106      1.0  0.47370  0.73363  0.58404  1.0000
  C   C273      1.0  0.54440  0.28471  0.35179  1.0000
  C   C274      1.0  0.60763  0.29609  0.34432  1.0000
  N   N107      1.0  0.59256  0.29312  0.42438  1.0000
  C   C275      1.0  0.56207  0.28748  0.43182  1.0000
  C   C276      1.0  0.55090  0.28408  0.51275  1.0000
  N   N108      1.0  0.54096  0.28098  0.58405  1.0000
  C   C277      1.0  0.26077  0.29943  0.35117  1.0000
  C   C278      1.0  0.21521  0.25387  0.34519  1.0000
  N   N109      1.0  0.22641  0.26480  0.42479  1.0000
  C   C279      1.0  0.24831  0.28683  0.43155  1.0000
  C   C280      1.0  0.25704  0.29484  0.51222  1.0000
  N   N110      1.0  0.26487  0.30195  0.58331  1.0000
  C   C281      1.0  0.75385  0.71525  0.35115  1.0000
  C   C282      1.0  0.79944  0.76078  0.34519  1.0000
  N   N111      1.0  0.78824  0.74983  0.42479  1.0000
  C   C283      1.0  0.76634  0.72781  0.43153  1.0000
  C   C284      1.0  0.75761  0.71978  0.51221  1.0000
  N   N112      1.0  0.74980  0.71265  0.58330  1.0000
  C   C285      1.0  0.71524  0.26078  0.35112  1.0000
  C   C286      1.0  0.76078  0.21519  0.34519  1.0000
  N   N113      1.0  0.74983  0.22639  0.42479  1.0000
  C   C287      1.0  0.72780  0.24829  0.43151  1.0000
  C   C288      1.0  0.71977  0.25702  0.51218  1.0000
  N   N114      1.0  0.71264  0.26483  0.58327  1.0000
  C   C289      1.0  0.29941  0.75386  0.35115  1.0000
  C   C290      1.0  0.25387  0.79943  0.34517  1.0000
  N   N115      1.0  0.26481  0.78824  0.42478  1.0000
  C   C291      1.0  0.28685  0.76635  0.43153  1.0000
  C   C292      1.0  0.29486  0.75762  0.51221  1.0000
  N   N116      1.0  0.30198  0.74979  0.58330  1.0000
  C   C293      1.0  0.52967  0.98499  0.35167  1.0000
  C   C294      1.0  0.48494  0.02973  0.34482  1.0000
  N   N117      1.0  0.49556  0.01911  0.42523  1.0000
  C   C295      1.0  0.51736  0.99725  0.43242  1.0000
  C   C296      1.0  0.52569  0.98889  0.51322  1.0000
  N   N118      1.0  0.53311  0.98140  0.58436  1.0000
  C   C297      1.0  0.02965  0.52970  0.35165  1.0000
  C   C298      1.0  0.98491  0.48497  0.34480  1.0000
  N   N119      1.0  0.99553  0.49558  0.42521  1.0000
  C   C299      1.0  0.01740  0.51739  0.43240  1.0000
  C   C300      1.0  0.02577  0.52571  0.51320  1.0000
  N   N120      1.0  0.03325  0.53313  0.58434  1.0000
