data_image0
_chemical_formula_structural       C2NC2HNHNC2NC2HNHNC2NC2HNHNCNCNCNC3H3CNCNCNC3H3C2HC6H3NC2HC6H3NC2HC6H3N
_chemical_formula_sum              "C48 N18 H24"
_cell_length_a       29.0387
_cell_length_b       29.0388
_cell_length_c       15.0309
_cell_angle_alpha    90
_cell_angle_beta     90
_cell_angle_gamma    120

_space_group_name_H-M_alt    "P 1"
_space_group_IT_number       1

loop_
  _space_group_symop_operation_xyz
  'x, y, z'

loop_
  _atom_site_type_symbol
  _atom_site_label
  _atom_site_symmetry_multiplicity
  _atom_site_fract_x
  _atom_site_fract_y
  _atom_site_fract_z
  _atom_site_occupancy
  C   C1        1.0  0.57859  0.44018  0.35291  1.0000
  C   C2        1.0  0.58914  0.48001  0.28957  1.0000
  N   N1        1.0  0.55983  0.50453  0.28870  1.0000
  C   C3        1.0  0.52024  0.49346  0.34798  1.0000
  C   C4        1.0  0.47234  0.58178  0.26938  1.0000
  H   H1        1.0  0.61813  0.49020  0.24261  1.0000
  N   N2        1.0  0.50025  0.55607  0.27816  1.0000
  H   H2        1.0  0.48144  0.60796  0.21800  1.0000
  N   N3        1.0  0.60783  0.41680  0.35162  1.0000
  C   C5        1.0  0.55725  0.13791  0.35297  1.0000
  C   C6        1.0  0.51740  0.10861  0.28965  1.0000
  N   N4        1.0  0.49289  0.05478  0.28881  1.0000
  C   C7        1.0  0.50398  0.02628  0.34809  1.0000
  C   C8        1.0  0.41567  0.89004  0.26957  1.0000
  H   H3        1.0  0.50722  0.12740  0.24267  1.0000
  N   N5        1.0  0.44137  0.94366  0.27832  1.0000
  H   H4        1.0  0.38949  0.87294  0.21820  1.0000
  N   N6        1.0  0.58062  0.19052  0.35164  1.0000
  C   C9        1.0  0.85952  0.41884  0.35295  1.0000
  C   C10       1.0  0.88881  0.40827  0.28966  1.0000
  N   N7        1.0  0.94264  0.43759  0.28879  1.0000
  C   C11       1.0  0.97115  0.47718  0.34808  1.0000
  C   C12       1.0  0.10739  0.52507  0.26954  1.0000
  H   H5        1.0  0.87001  0.37932  0.24265  1.0000
  N   N8        1.0  0.05376  0.49717  0.27828  1.0000
  H   H6        1.0  0.12446  0.51601  0.21812  1.0000
  N   N9        1.0  0.80691  0.38961  0.35164  1.0000
  C   C13       1.0  0.34578  0.71814  0.29433  1.0000
  N   N10       1.0  0.29380  0.67949  0.29421  1.0000
  C   C14       1.0  0.27929  0.62712  0.29423  1.0000
  N   N11       1.0  0.31793  0.61380  0.29405  1.0000
  C   C15       1.0  0.37030  0.65165  0.29416  1.0000
  N   N12       1.0  0.38363  0.70362  0.29416  1.0000
  C   C16       1.0  0.40954  0.63834  0.29427  1.0000
  C   C17       1.0  0.35908  0.77069  0.29462  1.0000
  C   C18       1.0  0.22674  0.58788  0.29441  1.0000
  H   H7        1.0  0.21714  0.55129  0.27565  1.0000
  H   H8        1.0  0.33211  0.78031  0.27584  1.0000
  H   H9        1.0  0.44614  0.66533  0.27556  1.0000
  C   C19       1.0  0.64708  0.27883  0.36090  1.0000
  N   N13       1.0  0.70003  0.31449  0.36127  1.0000
  C   C20       1.0  0.71859  0.36774  0.36094  1.0000
  N   N14       1.0  0.68294  0.38504  0.36128  1.0000
  C   C21       1.0  0.62969  0.35035  0.36092  1.0000
  N   N15       1.0  0.61239  0.29740  0.36125  1.0000
  C   C22       1.0  0.59337  0.36757  0.36353  1.0000
  C   C23       1.0  0.62986  0.22530  0.36352  1.0000
  C   C24       1.0  0.77213  0.40405  0.36356  1.0000
  H   H10       1.0  0.78373  0.44220  0.37401  1.0000
  H   H11       1.0  0.65640  0.21370  0.37398  1.0000
  H   H12       1.0  0.55523  0.34103  0.37397  1.0000
  C   C25       1.0  0.50871  0.45469  0.41508  1.0000
  C   C26       1.0  0.53851  0.42841  0.41688  1.0000
  H   H13       1.0  0.53102  0.40050  0.46487  1.0000
  C   C27       1.0  0.49039  0.51960  0.34293  1.0000
  C   C28       1.0  0.43049  0.57103  0.32890  1.0000
  C   C29       1.0  0.41883  0.53303  0.39640  1.0000
  C   C30       1.0  0.44878  0.50712  0.40485  1.0000
  C   C31       1.0  0.43806  0.46908  0.47201  1.0000
  C   C32       1.0  0.46787  0.44311  0.47717  1.0000
  H   H14       1.0  0.40824  0.45966  0.51711  1.0000
  H   H15       1.0  0.45908  0.41528  0.52586  1.0000
  H   H16       1.0  0.38825  0.52418  0.43972  1.0000
  N   N16       1.0  0.39965  0.59246  0.32206  1.0000
  C   C33       1.0  0.54277  0.05354  0.41517  1.0000
  C   C34       1.0  0.56903  0.10961  0.41695  1.0000
  H   H17       1.0  0.59695  0.13004  0.46492  1.0000
  C   C35       1.0  0.47785  0.97029  0.34307  1.0000
  C   C36       1.0  0.42644  0.85895  0.32909  1.0000
  C   C37       1.0  0.46445  0.88531  0.39658  1.0000
  C   C38       1.0  0.49035  0.94117  0.40501  1.0000
  C   C39       1.0  0.52840  0.96851  0.47214  1.0000
  C   C40       1.0  0.55435  0.02428  0.47728  1.0000
  H   H18       1.0  0.53783  0.94812  0.51726  1.0000
  H   H19       1.0  0.58219  0.04334  0.52596  1.0000
  H   H20       1.0  0.47331  0.86359  0.43991  1.0000
  N   N17       1.0  0.40500  0.80668  0.32230  1.0000
  C   C41       1.0  0.94390  0.48870  0.41517  1.0000
  C   C42       1.0  0.88783  0.45891  0.41696  1.0000
  H   H21       1.0  0.86741  0.46641  0.46493  1.0000
  C   C43       1.0  0.02714  0.50702  0.34305  1.0000
  C   C44       1.0  0.13849  0.56690  0.32911  1.0000
  C   C45       1.0  0.11213  0.57856  0.39658  1.0000
  C   C46       1.0  0.05627  0.54863  0.40501  1.0000
  C   C47       1.0  0.02894  0.55934  0.47215  1.0000
  C   C48       1.0  0.97317  0.52954  0.47728  1.0000
  H   H22       1.0  0.04934  0.58914  0.51729  1.0000
  H   H23       1.0  0.95412  0.53831  0.52600  1.0000
  H   H24       1.0  0.13386  0.60913  0.43992  1.0000
  N   N18       1.0  0.19075  0.59776  0.32224  1.0000
