data_image0
_chemical_formula_structural       C2NO2NCN2C2NO2NCN3O2NO2CNC2HCNC2HCN2CNC2OCN2CNC2OC2NCNO2C2NCNO2NCHNCHNCHCNC2NCNCNCNCNCN2CHNCHCNCNO2C2NCNO2CNCNOC2NCNO2C2NCNO2NCHNCHNCHCNC2NCNCNCNCNCN2CHNCHCNCNO2C2NCNO2CNCNOC2NCNO2C2NC3NCNO2NCHNCHNCHCNCNCNCNCNCNCNCNCNCNCNCN2CHNCHNCHC2NCNO2C2NCNO2C2NCNO2C2NCNO2C2NC3NCNO2NCHNCHNCHCNCNCNCNCNCNCNCNCNCNCNCN2CHNCHNCHC2NCNO2C2NCNO2C2NCNO2
_chemical_formula_sum              "C144 N120 O48 H24"
_cell_length_a       44.692
_cell_length_b       44.6966
_cell_length_c       14.8253
_cell_angle_alpha    90
_cell_angle_beta     90
_cell_angle_gamma    120.01

_space_group_name_H-M_alt    "P 1"
_space_group_IT_number       1

loop_
  _space_group_symop_operation_xyz
  'x, y, z'

loop_
  _atom_site_type_symbol
  _atom_site_label
  _atom_site_symmetry_multiplicity
  _atom_site_fract_x
  _atom_site_fract_y
  _atom_site_fract_z
  _atom_site_occupancy
  C   C1        1.0  0.07890  0.03862  0.32347  1.0000
  C   C2        1.0  0.09938  0.02254  0.31759  1.0000
  N   N1        1.0  0.08464  0.98648  0.30870  1.0000
  O   O1        1.0  0.09364  0.97448  0.37307  1.0000
  O   O2        1.0  0.09428  0.97927  0.23641  1.0000
  N   N2        1.0  0.02493  0.03916  0.32308  1.0000
  C   C3        1.0  0.04198  0.02101  0.32300  1.0000
  N   N3        1.0  0.02218  0.48592  0.32312  1.0000
  N   N4        1.0  0.09645  0.07376  0.33018  1.0000
  C   C4        1.0  0.07890  0.53862  0.32347  1.0000
  C   C5        1.0  0.09938  0.52254  0.31759  1.0000
  N   N5        1.0  0.08464  0.48648  0.30870  1.0000
  O   O3        1.0  0.09364  0.47448  0.37307  1.0000
  O   O4        1.0  0.09428  0.47927  0.23642  1.0000
  N   N6        1.0  0.02493  0.53916  0.32308  1.0000
  C   C6        1.0  0.04198  0.52101  0.32300  1.0000
  N   N7        1.0  0.02218  0.98591  0.32312  1.0000
  N   N8        1.0  0.09645  0.57376  0.33018  1.0000
  N   N9        1.0  0.02438  0.10104  0.30849  1.0000
  O   O5        1.0  0.03640  0.12206  0.37285  1.0000
  O   O6        1.0  0.03159  0.11789  0.23621  1.0000
  N   N10       1.0  0.02438  0.60104  0.30849  1.0000
  O   O7        1.0  0.03640  0.62206  0.37285  1.0000
  O   O8        1.0  0.03159  0.61789  0.23621  1.0000
  C   C7        1.0  0.15197  0.07801  0.32656  1.0000
  N   N11       1.0  0.13452  0.04296  0.31956  1.0000
  C   C8        1.0  0.18877  0.09651  0.32855  1.0000
  C   C9        1.0  0.13143  0.09380  0.33179  1.0000
  H   H1        1.0  0.14221  0.11998  0.33732  1.0000
  C   C10       1.0  0.15197  0.57801  0.32656  1.0000
  N   N12       1.0  0.13452  0.54296  0.31957  1.0000
  C   C11       1.0  0.18877  0.59651  0.32855  1.0000
  C   C12       1.0  0.13143  0.59380  0.33179  1.0000
  H   H2        1.0  0.14221  0.61998  0.33732  1.0000
  C   C13       1.0  0.24229  0.14934  0.33415  1.0000
  N   N13       1.0  0.20715  0.13185  0.33139  1.0000
  N   N14       1.0  0.20667  0.07903  0.32899  1.0000
  C   C14       1.0  0.24180  0.09614  0.33226  1.0000
  N   N15       1.0  0.25892  0.13106  0.33506  1.0000
  C   C15       1.0  0.26253  0.08070  0.33491  1.0000
  C   C16       1.0  0.26351  0.18549  0.33896  1.0000
  O   O9        1.0  0.24430  0.18586  0.53058  1.0000
  C   C17       1.0  0.24229  0.64934  0.33415  1.0000
  N   N16       1.0  0.20715  0.63185  0.33139  1.0000
  N   N17       1.0  0.20667  0.57903  0.32899  1.0000
  C   C18       1.0  0.24180  0.59615  0.33226  1.0000
  N   N18       1.0  0.25892  0.63106  0.33506  1.0000
  C   C19       1.0  0.26253  0.58070  0.33491  1.0000
  C   C20       1.0  0.26351  0.68549  0.33896  1.0000
  O   O10       1.0  0.24430  0.68585  0.53058  1.0000
  C   C21       1.0  0.47223  0.04316  0.32336  1.0000
  C   C22       1.0  0.43285  0.07684  0.32645  1.0000
  N   N19       1.0  0.46791  0.09444  0.31942  1.0000
  C   C23       1.0  0.48833  0.07973  0.31742  1.0000
  N   N20       1.0  0.52438  0.10104  0.30849  1.0000
  O   O11       1.0  0.53640  0.12206  0.37285  1.0000
  O   O12       1.0  0.53159  0.11789  0.23621  1.0000
  C   C24       1.0  0.46766  0.43195  0.32343  1.0000
  C   C25       1.0  0.43397  0.35889  0.32656  1.0000
  N   N21       1.0  0.41637  0.37634  0.31947  1.0000
  C   C26       1.0  0.43109  0.41147  0.31745  1.0000
  N   N22       1.0  0.40979  0.42621  0.30847  1.0000
  O   O13       1.0  0.38875  0.41721  0.37279  1.0000
  O   O14       1.0  0.39295  0.41656  0.23615  1.0000
  N   N23       1.0  0.30907  0.07915  0.26072  1.0000
  C   C27       1.0  0.27783  0.07728  0.25533  1.0000
  H   H3        1.0  0.26856  0.07857  0.19322  1.0000
  N   N24       1.0  0.43173  0.23275  0.26084  1.0000
  C   C28       1.0  0.43368  0.20343  0.25570  1.0000
  H   H4        1.0  0.43241  0.19284  0.19365  1.0000
  N   N25       1.0  0.27843  0.20162  0.26006  1.0000
  C   C29       1.0  0.30772  0.23293  0.25474  1.0000
  H   H5        1.0  0.31873  0.24185  0.19286  1.0000
  C   C30       1.0  0.48698  0.46886  0.32298  1.0000
  N   N26       1.0  0.47168  0.48866  0.32306  1.0000
  C   C31       1.0  0.48983  0.02385  0.32294  1.0000
  C   C32       1.0  0.36158  0.09588  0.33488  1.0000
  N   N27       1.0  0.37903  0.07821  0.33166  1.0000
  C   C33       1.0  0.41438  0.09516  0.32860  1.0000
  N   N28       1.0  0.43190  0.13053  0.32911  1.0000
  C   C34       1.0  0.41482  0.14857  0.33269  1.0000
  N   N29       1.0  0.37991  0.13080  0.33577  1.0000
  C   C35       1.0  0.41493  0.26858  0.33480  1.0000
  N   N30       1.0  0.43260  0.30371  0.33174  1.0000
  C   C36       1.0  0.41564  0.32209  0.32865  1.0000
  N   N31       1.0  0.38027  0.30421  0.32898  1.0000
  C   C37       1.0  0.36223  0.26909  0.33235  1.0000
  N   N32       1.0  0.38001  0.25196  0.33547  1.0000
  N   N33       1.0  0.43709  0.02557  0.33011  1.0000
  C   C38       1.0  0.41705  0.04051  0.33170  1.0000
  H   H6        1.0  0.39087  0.02510  0.33732  1.0000
  N   N34       1.0  0.48525  0.41440  0.33025  1.0000
  C   C39       1.0  0.47030  0.37943  0.33187  1.0000
  H   H7        1.0  0.48570  0.36865  0.33752  1.0000
  C   C40       1.0  0.32543  0.08103  0.33968  1.0000
  N   N35       1.0  0.28008  0.08470  0.41302  1.0000
  C   C41       1.0  0.30987  0.08348  0.42070  1.0000
  N   N36       1.0  0.32765  0.09041  0.50409  1.0000
  O   O15       1.0  0.31544  0.10077  0.56508  1.0000
  O   O16       1.0  0.32552  0.06295  0.53246  1.0000
  C   C42       1.0  0.42979  0.24731  0.33959  1.0000
  C   C43       1.0  0.43025  0.18473  0.33537  1.0000
  N   N37       1.0  0.42625  0.19840  0.41325  1.0000
  C   C44       1.0  0.42742  0.22939  0.42073  1.0000
  N   N38       1.0  0.42048  0.24024  0.50409  1.0000
  O   O17       1.0  0.41016  0.21770  0.56517  1.0000
  O   O18       1.0  0.44792  0.26563  0.53238  1.0000
  C   C45       1.0  0.32603  0.24834  0.33481  1.0000
  N   N39       1.0  0.31213  0.23107  0.41300  1.0000
  C   C46       1.0  0.28107  0.20130  0.42026  1.0000
  N   N40       1.0  0.26981  0.18373  0.50381  1.0000
  O   O19       1.0  0.29207  0.19613  0.56555  1.0000
  C   C47       1.0  0.47223  0.54316  0.32335  1.0000
  C   C48       1.0  0.43285  0.57684  0.32645  1.0000
  N   N41       1.0  0.46790  0.59444  0.31942  1.0000
  C   C49       1.0  0.48833  0.57973  0.31742  1.0000
  N   N42       1.0  0.52438  0.60104  0.30849  1.0000
  O   O20       1.0  0.53640  0.62206  0.37285  1.0000
  O   O21       1.0  0.53159  0.61789  0.23621  1.0000
  C   C50       1.0  0.46766  0.93195  0.32343  1.0000
  C   C51       1.0  0.43397  0.85889  0.32656  1.0000
  N   N43       1.0  0.41637  0.87634  0.31947  1.0000
  C   C52       1.0  0.43109  0.91147  0.31746  1.0000
  N   N44       1.0  0.40979  0.92621  0.30847  1.0000
  O   O22       1.0  0.38875  0.91721  0.37280  1.0000
  O   O23       1.0  0.39295  0.91656  0.23616  1.0000
  N   N45       1.0  0.30907  0.57915  0.26072  1.0000
  C   C53       1.0  0.27783  0.57728  0.25533  1.0000
  H   H8        1.0  0.26856  0.57857  0.19323  1.0000
  N   N46       1.0  0.43173  0.73275  0.26084  1.0000
  C   C54       1.0  0.43368  0.70343  0.25570  1.0000
  H   H9        1.0  0.43241  0.69284  0.19365  1.0000
  N   N47       1.0  0.27843  0.70162  0.26006  1.0000
  C   C55       1.0  0.30772  0.73293  0.25474  1.0000
  H   H10       1.0  0.31873  0.74185  0.19286  1.0000
  C   C56       1.0  0.48698  0.96886  0.32298  1.0000
  N   N48       1.0  0.47168  0.98866  0.32306  1.0000
  C   C57       1.0  0.48983  0.52385  0.32294  1.0000
  C   C58       1.0  0.36158  0.59588  0.33488  1.0000
  N   N49       1.0  0.37903  0.57821  0.33166  1.0000
  C   C59       1.0  0.41438  0.59516  0.32860  1.0000
  N   N50       1.0  0.43190  0.63053  0.32911  1.0000
  C   C60       1.0  0.41482  0.64857  0.33269  1.0000
  N   N51       1.0  0.37991  0.63079  0.33577  1.0000
  C   C61       1.0  0.41493  0.76858  0.33480  1.0000
  N   N52       1.0  0.43260  0.80371  0.33173  1.0000
  C   C62       1.0  0.41564  0.82209  0.32865  1.0000
  N   N53       1.0  0.38026  0.80421  0.32898  1.0000
  C   C63       1.0  0.36223  0.76909  0.33235  1.0000
  N   N54       1.0  0.38001  0.75196  0.33547  1.0000
  N   N55       1.0  0.43709  0.52557  0.33011  1.0000
  C   C64       1.0  0.41705  0.54051  0.33170  1.0000
  H   H11       1.0  0.39087  0.52511  0.33732  1.0000
  N   N56       1.0  0.48525  0.91440  0.33025  1.0000
  C   C65       1.0  0.47030  0.87942  0.33187  1.0000
  H   H12       1.0  0.48570  0.86865  0.33752  1.0000
  C   C66       1.0  0.32543  0.58103  0.33968  1.0000
  N   N57       1.0  0.28008  0.58470  0.41302  1.0000
  C   C67       1.0  0.30987  0.58348  0.42070  1.0000
  N   N58       1.0  0.32765  0.59041  0.50409  1.0000
  O   O24       1.0  0.31544  0.60077  0.56508  1.0000
  O   O25       1.0  0.32552  0.56295  0.53246  1.0000
  C   C68       1.0  0.42979  0.74731  0.33959  1.0000
  C   C69       1.0  0.43026  0.68473  0.33537  1.0000
  N   N59       1.0  0.42625  0.69840  0.41325  1.0000
  C   C70       1.0  0.42742  0.72939  0.42073  1.0000
  N   N60       1.0  0.42048  0.74024  0.50409  1.0000
  O   O26       1.0  0.41016  0.71770  0.56517  1.0000
  O   O27       1.0  0.44792  0.76563  0.53238  1.0000
  C   C71       1.0  0.32604  0.74834  0.33481  1.0000
  N   N61       1.0  0.31213  0.73107  0.41300  1.0000
  C   C72       1.0  0.28107  0.70130  0.42026  1.0000
  N   N62       1.0  0.26982  0.68373  0.50381  1.0000
  O   O28       1.0  0.29207  0.69613  0.56555  1.0000
  C   C73       1.0  0.57890  0.03862  0.32347  1.0000
  C   C74       1.0  0.65197  0.07801  0.32656  1.0000
  N   N63       1.0  0.63452  0.04296  0.31956  1.0000
  C   C75       1.0  0.59938  0.02254  0.31759  1.0000
  N   N64       1.0  0.58464  0.98648  0.30870  1.0000
  O   O29       1.0  0.59364  0.97448  0.37307  1.0000
  O   O30       1.0  0.59428  0.97927  0.23641  1.0000
  C   C76       1.0  0.97223  0.04316  0.32336  1.0000
  C   C77       1.0  0.93285  0.07684  0.32645  1.0000
  N   N65       1.0  0.96791  0.09444  0.31942  1.0000
  C   C78       1.0  0.98833  0.07973  0.31742  1.0000
  C   C79       1.0  0.96766  0.43195  0.32343  1.0000
  C   C80       1.0  0.93397  0.35889  0.32656  1.0000
  N   N66       1.0  0.91637  0.37634  0.31947  1.0000
  C   C81       1.0  0.93109  0.41147  0.31745  1.0000
  N   N67       1.0  0.90979  0.42621  0.30847  1.0000
  O   O31       1.0  0.88875  0.41721  0.37279  1.0000
  O   O32       1.0  0.89295  0.41656  0.23615  1.0000
  N   N68       1.0  0.80907  0.07915  0.26072  1.0000
  C   C82       1.0  0.77783  0.07728  0.25533  1.0000
  H   H13       1.0  0.76856  0.07857  0.19322  1.0000
  N   N69       1.0  0.93173  0.23275  0.26084  1.0000
  C   C83       1.0  0.93368  0.20343  0.25570  1.0000
  H   H14       1.0  0.93241  0.19284  0.19365  1.0000
  N   N70       1.0  0.77843  0.20162  0.26006  1.0000
  C   C84       1.0  0.80772  0.23293  0.25474  1.0000
  H   H15       1.0  0.81873  0.24185  0.19286  1.0000
  C   C85       1.0  0.98698  0.46886  0.32298  1.0000
  N   N71       1.0  0.97168  0.48866  0.32306  1.0000
  C   C86       1.0  0.98983  0.02385  0.32294  1.0000
  N   N72       1.0  0.52494  0.03916  0.32308  1.0000
  C   C87       1.0  0.54198  0.02101  0.32300  1.0000
  N   N73       1.0  0.52218  0.48592  0.32312  1.0000
  C   C88       1.0  0.74229  0.14934  0.33415  1.0000
  N   N74       1.0  0.70716  0.13185  0.33139  1.0000
  C   C89       1.0  0.68878  0.09651  0.32855  1.0000
  N   N75       1.0  0.70667  0.07903  0.32899  1.0000
  C   C90       1.0  0.74180  0.09614  0.33226  1.0000
  N   N76       1.0  0.75892  0.13106  0.33506  1.0000
  C   C91       1.0  0.86158  0.09588  0.33488  1.0000
  N   N77       1.0  0.87903  0.07821  0.33166  1.0000
  C   C92       1.0  0.91438  0.09516  0.32860  1.0000
  N   N78       1.0  0.93190  0.13053  0.32911  1.0000
  C   C93       1.0  0.91482  0.14857  0.33269  1.0000
  N   N79       1.0  0.87991  0.13080  0.33577  1.0000
  C   C94       1.0  0.91493  0.26858  0.33480  1.0000
  N   N80       1.0  0.93260  0.30371  0.33174  1.0000
  C   C95       1.0  0.91565  0.32209  0.32865  1.0000
  N   N81       1.0  0.88027  0.30421  0.32898  1.0000
  C   C96       1.0  0.86223  0.26909  0.33235  1.0000
  N   N82       1.0  0.88001  0.25196  0.33547  1.0000
  N   N83       1.0  0.59645  0.07376  0.33018  1.0000
  C   C97       1.0  0.63143  0.09380  0.33179  1.0000
  H   H16       1.0  0.64221  0.11998  0.33732  1.0000
  N   N84       1.0  0.93709  0.02557  0.33011  1.0000
  C   C98       1.0  0.91705  0.04051  0.33170  1.0000
  H   H17       1.0  0.89087  0.02510  0.33732  1.0000
  N   N85       1.0  0.98525  0.41440  0.33025  1.0000
  C   C99       1.0  0.97030  0.37943  0.33187  1.0000
  H   H18       1.0  0.98570  0.36865  0.33752  1.0000
  C   C100      1.0  0.82543  0.08103  0.33968  1.0000
  C   C101      1.0  0.76253  0.08070  0.33491  1.0000
  N   N86       1.0  0.78008  0.08470  0.41302  1.0000
  C   C102      1.0  0.80987  0.08348  0.42070  1.0000
  N   N87       1.0  0.82765  0.09041  0.50409  1.0000
  O   O33       1.0  0.81544  0.10077  0.56508  1.0000
  O   O34       1.0  0.82552  0.06295  0.53246  1.0000
  C   C103      1.0  0.92980  0.24731  0.33959  1.0000
  C   C104      1.0  0.93026  0.18473  0.33537  1.0000
  N   N88       1.0  0.92625  0.19840  0.41325  1.0000
  C   C105      1.0  0.92742  0.22939  0.42073  1.0000
  N   N89       1.0  0.92048  0.24024  0.50409  1.0000
  O   O35       1.0  0.91016  0.21770  0.56517  1.0000
  O   O36       1.0  0.94792  0.26563  0.53238  1.0000
  C   C106      1.0  0.76351  0.18549  0.33896  1.0000
  C   C107      1.0  0.82603  0.24834  0.33481  1.0000
  N   N90       1.0  0.81213  0.23107  0.41300  1.0000
  C   C108      1.0  0.78107  0.20130  0.42026  1.0000
  N   N91       1.0  0.76982  0.18373  0.50381  1.0000
  O   O37       1.0  0.79207  0.19613  0.56555  1.0000
  O   O38       1.0  0.74430  0.18586  0.53058  1.0000
  C   C109      1.0  0.57890  0.53862  0.32347  1.0000
  C   C110      1.0  0.65197  0.57801  0.32656  1.0000
  N   N92       1.0  0.63452  0.54296  0.31957  1.0000
  C   C111      1.0  0.59938  0.52254  0.31759  1.0000
  N   N93       1.0  0.58464  0.48648  0.30870  1.0000
  O   O39       1.0  0.59364  0.47448  0.37307  1.0000
  O   O40       1.0  0.59428  0.47927  0.23642  1.0000
  C   C112      1.0  0.97223  0.54316  0.32335  1.0000
  C   C113      1.0  0.93285  0.57684  0.32645  1.0000
  N   N94       1.0  0.96791  0.59444  0.31942  1.0000
  C   C114      1.0  0.98833  0.57973  0.31742  1.0000
  C   C115      1.0  0.96766  0.93195  0.32343  1.0000
  C   C116      1.0  0.93397  0.85889  0.32656  1.0000
  N   N95       1.0  0.91637  0.87634  0.31947  1.0000
  C   C117      1.0  0.93109  0.91147  0.31746  1.0000
  N   N96       1.0  0.90979  0.92621  0.30847  1.0000
  O   O41       1.0  0.88875  0.91721  0.37280  1.0000
  O   O42       1.0  0.89295  0.91656  0.23616  1.0000
  N   N97       1.0  0.80907  0.57915  0.26072  1.0000
  C   C118      1.0  0.77783  0.57728  0.25533  1.0000
  H   H19       1.0  0.76856  0.57857  0.19323  1.0000
  N   N98       1.0  0.93173  0.73275  0.26084  1.0000
  C   C119      1.0  0.93368  0.70343  0.25570  1.0000
  H   H20       1.0  0.93241  0.69284  0.19365  1.0000
  N   N99       1.0  0.77843  0.70162  0.26006  1.0000
  C   C120      1.0  0.80772  0.73293  0.25474  1.0000
  H   H21       1.0  0.81873  0.74185  0.19286  1.0000
  C   C121      1.0  0.98698  0.96886  0.32298  1.0000
  N   N100      1.0  0.97168  0.98866  0.32306  1.0000
  C   C122      1.0  0.98983  0.52385  0.32294  1.0000
  N   N101      1.0  0.52493  0.53916  0.32308  1.0000
  C   C123      1.0  0.54198  0.52101  0.32300  1.0000
  N   N102      1.0  0.52218  0.98591  0.32312  1.0000
  C   C124      1.0  0.74229  0.64934  0.33415  1.0000
  N   N103      1.0  0.70715  0.63185  0.33139  1.0000
  C   C125      1.0  0.68878  0.59651  0.32855  1.0000
  N   N104      1.0  0.70667  0.57903  0.32899  1.0000
  C   C126      1.0  0.74180  0.59615  0.33226  1.0000
  N   N105      1.0  0.75892  0.63106  0.33506  1.0000
  C   C127      1.0  0.86158  0.59588  0.33488  1.0000
  N   N106      1.0  0.87903  0.57821  0.33166  1.0000
  C   C128      1.0  0.91438  0.59516  0.32860  1.0000
  N   N107      1.0  0.93190  0.63053  0.32911  1.0000
  C   C129      1.0  0.91482  0.64857  0.33269  1.0000
  N   N108      1.0  0.87991  0.63079  0.33577  1.0000
  C   C130      1.0  0.91493  0.76858  0.33480  1.0000
  N   N109      1.0  0.93260  0.80371  0.33173  1.0000
  C   C131      1.0  0.91565  0.82209  0.32865  1.0000
  N   N110      1.0  0.88027  0.80421  0.32898  1.0000
  C   C132      1.0  0.86223  0.76909  0.33235  1.0000
  N   N111      1.0  0.88001  0.75196  0.33547  1.0000
  N   N112      1.0  0.59645  0.57376  0.33018  1.0000
  C   C133      1.0  0.63143  0.59380  0.33179  1.0000
  H   H22       1.0  0.64221  0.61998  0.33732  1.0000
  N   N113      1.0  0.93709  0.52557  0.33011  1.0000
  C   C134      1.0  0.91705  0.54051  0.33170  1.0000
  H   H23       1.0  0.89087  0.52511  0.33732  1.0000
  N   N114      1.0  0.98525  0.91440  0.33025  1.0000
  C   C135      1.0  0.97030  0.87942  0.33187  1.0000
  H   H24       1.0  0.98570  0.86865  0.33752  1.0000
  C   C136      1.0  0.82543  0.58103  0.33968  1.0000
  C   C137      1.0  0.76253  0.58070  0.33491  1.0000
  N   N115      1.0  0.78008  0.58470  0.41302  1.0000
  C   C138      1.0  0.80987  0.58348  0.42070  1.0000
  N   N116      1.0  0.82765  0.59041  0.50409  1.0000
  O   O43       1.0  0.81544  0.60077  0.56508  1.0000
  O   O44       1.0  0.82552  0.56295  0.53246  1.0000
  C   C139      1.0  0.92980  0.74731  0.33959  1.0000
  C   C140      1.0  0.93026  0.68473  0.33537  1.0000
  N   N117      1.0  0.92625  0.69840  0.41325  1.0000
  C   C141      1.0  0.92742  0.72939  0.42073  1.0000
  N   N118      1.0  0.92048  0.74024  0.50409  1.0000
  O   O45       1.0  0.91016  0.71770  0.56517  1.0000
  O   O46       1.0  0.94792  0.76563  0.53238  1.0000
  C   C142      1.0  0.76351  0.68549  0.33896  1.0000
  C   C143      1.0  0.82604  0.74834  0.33481  1.0000
  N   N119      1.0  0.81214  0.73107  0.41300  1.0000
  C   C144      1.0  0.78107  0.70130  0.42026  1.0000
  N   N120      1.0  0.76982  0.68373  0.50381  1.0000
  O   O47       1.0  0.79207  0.69613  0.56555  1.0000
  O   O48       1.0  0.74430  0.68585  0.53058  1.0000
