data_image0
_chemical_formula_structural       H2C3N2C2HC3HN2C2HC2HC3NC3HC3HNC3HCNCNCHCH2C2OCOH3NCNCNO2CHC2NO2CH2CN3C2HCHC2OC4OH3N2CNCNO2CHCN2O2HC2N3C2HCHC4OCOH3N2CNO2CHC2NO2CHC2HCN2C2HCHNC2HCHC4OC4OH4N3CNO2CHCN2O2C2HC2HN2C2HCHNC2HCH
_chemical_formula_sum              "H48 C96 N40 O24"
_cell_length_a       31.232
_cell_length_b       31.232
_cell_length_c       14.8337
_cell_angle_alpha    90
_cell_angle_beta     90
_cell_angle_gamma    90

_space_group_name_H-M_alt    "P 1"
_space_group_IT_number       1

loop_
  _space_group_symop_operation_xyz
  'x, y, z'

loop_
  _atom_site_type_symbol
  _atom_site_label
  _atom_site_symmetry_multiplicity
  _atom_site_fract_x
  _atom_site_fract_y
  _atom_site_fract_z
  _atom_site_occupancy
  H   H1        1.0  0.08108  0.02557  0.32554  1.0000
  H   H2        1.0  0.03353  0.07322  0.32589  1.0000
  C   C1        1.0  0.49319  0.01804  0.32569  1.0000
  C   C2        1.0  0.44842  0.00843  0.32538  1.0000
  C   C3        1.0  0.41594  0.03999  0.32494  1.0000
  N   N1        1.0  0.37333  0.03147  0.32468  1.0000
  N   N2        1.0  0.28443  0.03724  0.32275  1.0000
  C   C4        1.0  0.24112  0.04292  0.32242  1.0000
  C   C5        1.0  0.16965  0.00795  0.32480  1.0000
  H   H3        1.0  0.15464  0.03700  0.32345  1.0000
  C   C6        1.0  0.99319  0.01804  0.32569  1.0000
  C   C7        1.0  0.94842  0.00843  0.32538  1.0000
  C   C8        1.0  0.91593  0.03999  0.32494  1.0000
  H   H4        1.0  0.58108  0.02557  0.32554  1.0000
  N   N3        1.0  0.87333  0.03147  0.32468  1.0000
  N   N4        1.0  0.78443  0.03724  0.32275  1.0000
  C   C9        1.0  0.74112  0.04292  0.32242  1.0000
  C   C10       1.0  0.66965  0.00795  0.32480  1.0000
  H   H5        1.0  0.65465  0.03700  0.32345  1.0000
  C   C11       1.0  0.50280  0.06281  0.32572  1.0000
  C   C12       1.0  0.00280  0.06281  0.32572  1.0000
  H   H6        1.0  0.53353  0.07322  0.32589  1.0000
  C   C13       1.0  0.02598  0.48525  0.32583  1.0000
  C   C14       1.0  0.01639  0.44049  0.32611  1.0000
  C   C15       1.0  0.04795  0.40798  0.32639  1.0000
  N   N5        1.0  0.03942  0.36537  0.32636  1.0000
  C   C16       1.0  0.04928  0.23355  0.32763  1.0000
  C   C17       1.0  0.01277  0.20700  0.32572  1.0000
  C   C18       1.0  0.01562  0.16209  0.32593  1.0000
  H   H7        1.0  0.04502  0.14770  0.32728  1.0000
  C   C19       1.0  0.02598  0.98525  0.32583  1.0000
  C   C20       1.0  0.01639  0.94049  0.32611  1.0000
  C   C21       1.0  0.04795  0.90798  0.32639  1.0000
  H   H8        1.0  0.03353  0.57322  0.32589  1.0000
  N   N6        1.0  0.03942  0.86537  0.32636  1.0000
  C   C22       1.0  0.04928  0.73355  0.32763  1.0000
  C   C23       1.0  0.01277  0.70700  0.32572  1.0000
  C   C24       1.0  0.01562  0.66209  0.32593  1.0000
  H   H9        1.0  0.04502  0.64770  0.32728  1.0000
  C   C25       1.0  0.00519  0.29655  0.32547  1.0000
  N   N7        1.0  0.04403  0.27668  0.32748  1.0000
  C   C26       1.0  0.00519  0.79655  0.32547  1.0000
  N   N8        1.0  0.04403  0.77668  0.32748  1.0000
  C   C27       1.0  0.07074  0.49484  0.32572  1.0000
  H   H10       1.0  0.07953  0.22108  0.32928  1.0000
  C   C28       1.0  0.07074  0.99484  0.32572  1.0000
  H   H11       1.0  0.08108  0.52557  0.32554  1.0000
  H   H12       1.0  0.07953  0.72108  0.32928  1.0000
  C   C29       1.0  0.09146  0.41978  0.32598  1.0000
  C   C30       1.0  0.10325  0.46328  0.32606  1.0000
  O   O1        1.0  0.12238  0.38885  0.32769  1.0000
  C   C31       1.0  0.42773  0.08350  0.32532  1.0000
  O   O2        1.0  0.39680  0.11443  0.32341  1.0000
  H   H13       1.0  0.12898  0.38219  0.26439  1.0000
  H   H14       1.0  0.39010  0.12108  0.38667  1.0000
  H   H15       1.0  0.43801  0.47770  0.32508  1.0000
  N   N9        1.0  0.14587  0.47181  0.32586  1.0000
  C   C32       1.0  0.50519  0.29655  0.32547  1.0000
  N   N10       1.0  0.97399  0.22680  0.32358  1.0000
  C   C33       1.0  0.46831  0.27011  0.32331  1.0000
  N   N11       1.0  0.42670  0.28757  0.32039  1.0000
  O   O3        1.0  0.90536  0.27535  0.38735  1.0000
  O   O4        1.0  0.40765  0.27553  0.25029  1.0000
  C   C34       1.0  0.50328  0.34159  0.32553  1.0000
  H   H16       1.0  0.47423  0.35659  0.32425  1.0000
  C   C35       1.0  0.21468  0.50604  0.32471  1.0000
  C   C36       1.0  0.24112  0.54292  0.32242  1.0000
  N   N12       1.0  0.22367  0.58452  0.31935  1.0000
  O   O5        1.0  0.23588  0.10592  0.38622  1.0000
  O   O6        1.0  0.23571  0.60351  0.24917  1.0000
  C   C37       1.0  0.16965  0.50795  0.32480  1.0000
  H   H17       1.0  0.15464  0.53700  0.32345  1.0000
  H   H18       1.0  0.48566  0.43015  0.32643  1.0000
  C   C38       1.0  0.47124  0.09530  0.32523  1.0000
  N   N13       1.0  0.47976  0.13790  0.32515  1.0000
  N   N14       1.0  0.54402  0.27668  0.32748  1.0000
  N   N15       1.0  0.23455  0.46720  0.32686  1.0000
  C   C39       1.0  0.27768  0.96195  0.32703  1.0000
  C   C40       1.0  0.30423  0.99846  0.32503  1.0000
  H   H19       1.0  0.29015  0.93170  0.32879  1.0000
  C   C41       1.0  0.34914  0.99561  0.32532  1.0000
  H   H20       1.0  0.36353  0.96621  0.32679  1.0000
  C   C42       1.0  0.09146  0.91977  0.32598  1.0000
  C   C43       1.0  0.10325  0.96328  0.32606  1.0000
  O   O7        1.0  0.12238  0.88885  0.32769  1.0000
  C   C44       1.0  0.49319  0.51804  0.32569  1.0000
  C   C45       1.0  0.44842  0.50843  0.32538  1.0000
  C   C46       1.0  0.41594  0.53999  0.32494  1.0000
  C   C47       1.0  0.42773  0.58350  0.32532  1.0000
  O   O8        1.0  0.39680  0.61443  0.32341  1.0000
  H   H21       1.0  0.12898  0.88219  0.26439  1.0000
  H   H22       1.0  0.39010  0.62108  0.38667  1.0000
  H   H23       1.0  0.43801  0.97770  0.32508  1.0000
  N   N16       1.0  0.37333  0.53147  0.32468  1.0000
  N   N17       1.0  0.14587  0.97181  0.32586  1.0000
  C   C48       1.0  0.50519  0.79655  0.32547  1.0000
  N   N18       1.0  0.97399  0.72681  0.32358  1.0000
  C   C49       1.0  0.46831  0.77011  0.32331  1.0000
  N   N19       1.0  0.42670  0.78757  0.32039  1.0000
  O   O9        1.0  0.90536  0.77535  0.38735  1.0000
  O   O10       1.0  0.40765  0.77553  0.25029  1.0000
  C   C50       1.0  0.50328  0.84158  0.32553  1.0000
  H   H24       1.0  0.47423  0.85659  0.32425  1.0000
  C   C51       1.0  0.21468  0.00603  0.32471  1.0000
  N   N20       1.0  0.28443  0.53724  0.32275  1.0000
  N   N21       1.0  0.22367  0.08452  0.31935  1.0000
  O   O11       1.0  0.23588  0.60592  0.38622  1.0000
  O   O12       1.0  0.23571  0.10351  0.24917  1.0000
  H   H25       1.0  0.48566  0.93015  0.32643  1.0000
  C   C52       1.0  0.47124  0.59530  0.32523  1.0000
  C   C53       1.0  0.50280  0.56281  0.32572  1.0000
  N   N22       1.0  0.47976  0.63790  0.32515  1.0000
  N   N23       1.0  0.54402  0.77668  0.32748  1.0000
  N   N24       1.0  0.23455  0.96720  0.32686  1.0000
  C   C54       1.0  0.27768  0.46195  0.32703  1.0000
  C   C55       1.0  0.30423  0.49846  0.32503  1.0000
  H   H26       1.0  0.29015  0.43170  0.32879  1.0000
  C   C56       1.0  0.34914  0.49561  0.32532  1.0000
  H   H27       1.0  0.36353  0.46621  0.32679  1.0000
  C   C57       1.0  0.52598  0.48525  0.32583  1.0000
  C   C58       1.0  0.59146  0.41978  0.32598  1.0000
  C   C59       1.0  0.60325  0.46328  0.32606  1.0000
  C   C60       1.0  0.57074  0.49484  0.32572  1.0000
  O   O13       1.0  0.62238  0.38885  0.32769  1.0000
  C   C61       1.0  0.92773  0.08350  0.32532  1.0000
  O   O14       1.0  0.89680  0.11443  0.32341  1.0000
  H   H28       1.0  0.62898  0.38219  0.26439  1.0000
  H   H29       1.0  0.89010  0.12108  0.38667  1.0000
  H   H30       1.0  0.93801  0.47770  0.32508  1.0000
  N   N25       1.0  0.64587  0.47181  0.32586  1.0000
  N   N26       1.0  0.47399  0.22680  0.32358  1.0000
  C   C62       1.0  0.96831  0.27011  0.32331  1.0000
  N   N27       1.0  0.92670  0.28757  0.32039  1.0000
  O   O15       1.0  0.40536  0.27535  0.38735  1.0000
  O   O16       1.0  0.90765  0.27553  0.25029  1.0000
  C   C63       1.0  0.00328  0.34159  0.32553  1.0000
  H   H31       1.0  0.97423  0.35659  0.32425  1.0000
  C   C64       1.0  0.71468  0.50604  0.32471  1.0000
  C   C65       1.0  0.74112  0.54292  0.32242  1.0000
  N   N28       1.0  0.72367  0.58452  0.31935  1.0000
  O   O17       1.0  0.73588  0.10592  0.38622  1.0000
  O   O18       1.0  0.73571  0.60351  0.24917  1.0000
  C   C66       1.0  0.66965  0.50795  0.32480  1.0000
  H   H32       1.0  0.65465  0.53700  0.32345  1.0000
  C   C67       1.0  0.51639  0.44049  0.32611  1.0000
  C   C68       1.0  0.54795  0.40798  0.32639  1.0000
  H   H33       1.0  0.98566  0.43015  0.32643  1.0000
  C   C69       1.0  0.97124  0.09530  0.32523  1.0000
  N   N29       1.0  0.97976  0.13790  0.32515  1.0000
  N   N30       1.0  0.53942  0.36537  0.32636  1.0000
  C   C70       1.0  0.54928  0.23355  0.32763  1.0000
  C   C71       1.0  0.51277  0.20700  0.32572  1.0000
  H   H34       1.0  0.57953  0.22108  0.32928  1.0000
  C   C72       1.0  0.51562  0.16209  0.32593  1.0000
  H   H35       1.0  0.54502  0.14770  0.32728  1.0000
  N   N31       1.0  0.73455  0.46720  0.32686  1.0000
  C   C73       1.0  0.77768  0.96195  0.32703  1.0000
  C   C74       1.0  0.80423  0.99846  0.32503  1.0000
  H   H36       1.0  0.79015  0.93170  0.32879  1.0000
  C   C75       1.0  0.84914  0.99561  0.32532  1.0000
  H   H37       1.0  0.86353  0.96621  0.32679  1.0000
  C   C76       1.0  0.52598  0.98525  0.32583  1.0000
  C   C77       1.0  0.59146  0.91977  0.32598  1.0000
  C   C78       1.0  0.60325  0.96328  0.32606  1.0000
  C   C79       1.0  0.57074  0.99484  0.32572  1.0000
  O   O19       1.0  0.62238  0.88885  0.32769  1.0000
  C   C80       1.0  0.99319  0.51804  0.32569  1.0000
  C   C81       1.0  0.94842  0.50843  0.32538  1.0000
  C   C82       1.0  0.91593  0.53999  0.32494  1.0000
  C   C83       1.0  0.92773  0.58350  0.32532  1.0000
  O   O20       1.0  0.89680  0.61443  0.32341  1.0000
  H   H38       1.0  0.62898  0.88219  0.26439  1.0000
  H   H39       1.0  0.89010  0.62108  0.38667  1.0000
  H   H40       1.0  0.58108  0.52557  0.32554  1.0000
  H   H41       1.0  0.93801  0.97770  0.32508  1.0000
  N   N32       1.0  0.87333  0.53147  0.32468  1.0000
  N   N33       1.0  0.64587  0.97181  0.32586  1.0000
  N   N34       1.0  0.47399  0.72681  0.32358  1.0000
  C   C84       1.0  0.96831  0.77011  0.32331  1.0000
  N   N35       1.0  0.92670  0.78757  0.32039  1.0000
  O   O21       1.0  0.40536  0.77535  0.38735  1.0000
  O   O22       1.0  0.90765  0.77553  0.25029  1.0000
  C   C85       1.0  0.00328  0.84158  0.32553  1.0000
  H   H42       1.0  0.97423  0.85659  0.32425  1.0000
  C   C86       1.0  0.71468  0.00603  0.32471  1.0000
  N   N36       1.0  0.78443  0.53724  0.32275  1.0000
  N   N37       1.0  0.72367  0.08452  0.31935  1.0000
  O   O23       1.0  0.73588  0.60592  0.38622  1.0000
  O   O24       1.0  0.73571  0.10351  0.24917  1.0000
  C   C87       1.0  0.51639  0.94049  0.32611  1.0000
  C   C88       1.0  0.54795  0.90798  0.32639  1.0000
  H   H43       1.0  0.98566  0.93015  0.32643  1.0000
  C   C89       1.0  0.97124  0.59530  0.32523  1.0000
  C   C90       1.0  0.00280  0.56281  0.32572  1.0000
  H   H44       1.0  0.53353  0.57322  0.32589  1.0000
  N   N38       1.0  0.97976  0.63790  0.32515  1.0000
  N   N39       1.0  0.53942  0.86537  0.32636  1.0000
  C   C91       1.0  0.54928  0.73355  0.32763  1.0000
  C   C92       1.0  0.51277  0.70700  0.32572  1.0000
  H   H45       1.0  0.57953  0.72108  0.32928  1.0000
  C   C93       1.0  0.51562  0.66209  0.32593  1.0000
  H   H46       1.0  0.54502  0.64770  0.32728  1.0000
  N   N40       1.0  0.73455  0.96720  0.32686  1.0000
  C   C94       1.0  0.77768  0.46195  0.32703  1.0000
  C   C95       1.0  0.80423  0.49846  0.32503  1.0000
  H   H47       1.0  0.79015  0.43170  0.32879  1.0000
  C   C96       1.0  0.84914  0.49561  0.32532  1.0000
  H   H48       1.0  0.86353  0.46621  0.32679  1.0000
