data_image0
_chemical_formula_structural       C4NC4NH4N2C3N2O4CHC3N2O4CHC2HC2H3N2C3H2CHC3H2CHC4NC4NH4N2C3N2O4CHC3N2O4CHC2HC2H3N2C3H2CHC3H2CHC4NC4NH4N2C3N2O4CHC3N2O4CHC2HC2H3N2C3H2CHC3H2CHC4NC4NH4N2C3N2O4CHC3N2O4CHC2HC2H3N2C3H2CHC3H2CH
_chemical_formula_sum              "C112 N40 H64 O32"
_cell_length_a       31.5198
_cell_length_b       31.5198
_cell_length_c       14.974
_cell_angle_alpha    90
_cell_angle_beta     90
_cell_angle_gamma    90

_space_group_name_H-M_alt    "P 1"
_space_group_IT_number       1

loop_
  _space_group_symop_operation_xyz
  'x, y, z'

loop_
  _atom_site_type_symbol
  _atom_site_label
  _atom_site_symmetry_multiplicity
  _atom_site_fract_x
  _atom_site_fract_y
  _atom_site_fract_z
  _atom_site_occupancy
  C   C1        1.0  0.02482  0.47697  0.31513  1.0000
  C   C2        1.0  0.09016  0.41169  0.32787  1.0000
  C   C3        1.0  0.10126  0.45514  0.32062  1.0000
  C   C4        1.0  0.06910  0.48637  0.31468  1.0000
  N   N1        1.0  0.12074  0.38114  0.33670  1.0000
  C   C5        1.0  0.49234  0.00944  0.31581  1.0000
  C   C6        1.0  0.44799  0.99990  0.31524  1.0000
  C   C7        1.0  0.41600  0.03113  0.32280  1.0000
  C   C8        1.0  0.42737  0.07423  0.33405  1.0000
  N   N2        1.0  0.39766  0.10376  0.35778  1.0000
  H   H1        1.0  0.36952  0.09512  0.37643  1.0000
  H   H2        1.0  0.15063  0.38810  0.34175  1.0000
  H   H3        1.0  0.07927  0.01681  0.31109  1.0000
  H   H4        1.0  0.43752  0.46966  0.30795  1.0000
  N   N3        1.0  0.37401  0.02234  0.31653  1.0000
  N   N4        1.0  0.14317  0.46482  0.31674  1.0000
  C   C9        1.0  0.00320  0.28988  0.30588  1.0000
  C   C10       1.0  0.96726  0.26509  0.28137  1.0000
  C   C11       1.0  0.96968  0.21965  0.28124  1.0000
  N   N5        1.0  0.92998  0.28757  0.25685  1.0000
  N   N6        1.0  0.93649  0.19420  0.24623  1.0000
  O   O1        1.0  0.91800  0.28209  0.17779  1.0000
  O   O2        1.0  0.90097  0.19919  0.28242  1.0000
  O   O3        1.0  0.89987  0.28341  0.31098  1.0000
  O   O4        1.0  0.93324  0.19691  0.16286  1.0000
  C   C12       1.0  0.00176  0.33486  0.30779  1.0000
  H   H5        1.0  0.97403  0.35034  0.29460  1.0000
  C   C13       1.0  0.21196  0.99840  0.30180  1.0000
  C   C14       1.0  0.23678  0.03437  0.27750  1.0000
  C   C15       1.0  0.28221  0.03193  0.27751  1.0000
  N   N7        1.0  0.21432  0.07170  0.25326  1.0000
  N   N8        1.0  0.30773  0.06514  0.24269  1.0000
  O   O5        1.0  0.21985  0.08382  0.17430  1.0000
  O   O6        1.0  0.30275  0.10063  0.27903  1.0000
  O   O7        1.0  0.21851  0.10171  0.30763  1.0000
  O   O8        1.0  0.30503  0.06848  0.15934  1.0000
  C   C16       1.0  0.16699  0.99989  0.30393  1.0000
  H   H6        1.0  0.15151  0.02765  0.29097  1.0000
  C   C17       1.0  0.01540  0.43270  0.31674  1.0000
  C   C18       1.0  0.04665  0.40057  0.32236  1.0000
  H   H7        1.0  0.48491  0.42254  0.31583  1.0000
  C   C19       1.0  0.47053  0.08570  0.32437  1.0000
  C   C20       1.0  0.50185  0.05379  0.31713  1.0000
  H   H8        1.0  0.03217  0.06434  0.31227  1.0000
  H   H9        1.0  0.40623  0.13174  0.37765  1.0000
  H   H10       1.0  0.11379  0.35130  0.34299  1.0000
  N   N9        1.0  0.47929  0.12773  0.31907  1.0000
  N   N10       1.0  0.03694  0.35864  0.31955  1.0000
  C   C21       1.0  0.00788  0.19867  0.30777  1.0000
  C   C22       1.0  0.04356  0.22399  0.32802  1.0000
  C   C23       1.0  0.04125  0.26839  0.32737  1.0000
  H   H11       1.0  0.06792  0.28478  0.34525  1.0000
  H   H12       1.0  0.07172  0.21035  0.34660  1.0000
  C   C24       1.0  0.01293  0.15404  0.31459  1.0000
  H   H13       1.0  0.04232  0.14122  0.32539  1.0000
  C   C25       1.0  0.30317  0.99369  0.30375  1.0000
  C   C26       1.0  0.27784  0.95796  0.32359  1.0000
  C   C27       1.0  0.23344  0.96030  0.32300  1.0000
  H   H14       1.0  0.21705  0.93361  0.34066  1.0000
  H   H15       1.0  0.29147  0.92978  0.34201  1.0000
  C   C28       1.0  0.34780  0.98867  0.31090  1.0000
  H   H16       1.0  0.36061  0.95924  0.32130  1.0000
  C   C29       1.0  0.02482  0.97697  0.31513  1.0000
  C   C30       1.0  0.09016  0.91169  0.32787  1.0000
  C   C31       1.0  0.10126  0.95514  0.32062  1.0000
  C   C32       1.0  0.06910  0.98637  0.31468  1.0000
  N   N11       1.0  0.12074  0.88114  0.33670  1.0000
  C   C33       1.0  0.49234  0.50944  0.31581  1.0000
  C   C34       1.0  0.44799  0.49990  0.31524  1.0000
  C   C35       1.0  0.41600  0.53113  0.32280  1.0000
  C   C36       1.0  0.42737  0.57423  0.33405  1.0000
  N   N12       1.0  0.39766  0.60376  0.35778  1.0000
  H   H17       1.0  0.36952  0.59512  0.37643  1.0000
  H   H18       1.0  0.15063  0.88809  0.34175  1.0000
  H   H19       1.0  0.07927  0.51681  0.31109  1.0000
  H   H20       1.0  0.43752  0.96966  0.30795  1.0000
  N   N13       1.0  0.37401  0.52234  0.31653  1.0000
  N   N14       1.0  0.14317  0.96482  0.31674  1.0000
  C   C37       1.0  0.00320  0.78988  0.30588  1.0000
  C   C38       1.0  0.96726  0.76509  0.28137  1.0000
  C   C39       1.0  0.96968  0.71966  0.28124  1.0000
  N   N15       1.0  0.92998  0.78757  0.25685  1.0000
  N   N16       1.0  0.93649  0.69420  0.24623  1.0000
  O   O9        1.0  0.91800  0.78209  0.17779  1.0000
  O   O10       1.0  0.90097  0.69919  0.28242  1.0000
  O   O11       1.0  0.89987  0.78341  0.31098  1.0000
  O   O12       1.0  0.93324  0.69691  0.16286  1.0000
  C   C40       1.0  0.00176  0.83486  0.30779  1.0000
  H   H21       1.0  0.97403  0.85035  0.29460  1.0000
  C   C41       1.0  0.21196  0.49840  0.30180  1.0000
  C   C42       1.0  0.23678  0.53437  0.27750  1.0000
  C   C43       1.0  0.28221  0.53194  0.27751  1.0000
  N   N17       1.0  0.21432  0.57170  0.25326  1.0000
  N   N18       1.0  0.30773  0.56514  0.24269  1.0000
  O   O13       1.0  0.21985  0.58382  0.17430  1.0000
  O   O14       1.0  0.30275  0.60063  0.27903  1.0000
  O   O15       1.0  0.21851  0.60171  0.30763  1.0000
  O   O16       1.0  0.30503  0.56848  0.15934  1.0000
  C   C44       1.0  0.16699  0.49989  0.30393  1.0000
  H   H22       1.0  0.15151  0.52765  0.29097  1.0000
  C   C45       1.0  0.01540  0.93270  0.31674  1.0000
  C   C46       1.0  0.04665  0.90057  0.32236  1.0000
  H   H23       1.0  0.48491  0.92254  0.31583  1.0000
  C   C47       1.0  0.47053  0.58570  0.32437  1.0000
  C   C48       1.0  0.50185  0.55379  0.31713  1.0000
  H   H24       1.0  0.03217  0.56434  0.31227  1.0000
  H   H25       1.0  0.40623  0.63174  0.37765  1.0000
  H   H26       1.0  0.11379  0.85130  0.34299  1.0000
  N   N19       1.0  0.47929  0.62774  0.31907  1.0000
  N   N20       1.0  0.03694  0.85864  0.31955  1.0000
  C   C49       1.0  0.00788  0.69867  0.30777  1.0000
  C   C50       1.0  0.04356  0.72400  0.32802  1.0000
  C   C51       1.0  0.04125  0.76839  0.32737  1.0000
  H   H27       1.0  0.06792  0.78478  0.34525  1.0000
  H   H28       1.0  0.07172  0.71035  0.34660  1.0000
  C   C52       1.0  0.01293  0.65404  0.31459  1.0000
  H   H29       1.0  0.04232  0.64123  0.32539  1.0000
  C   C53       1.0  0.30317  0.49368  0.30375  1.0000
  C   C54       1.0  0.27784  0.45797  0.32359  1.0000
  C   C55       1.0  0.23344  0.46030  0.32300  1.0000
  H   H30       1.0  0.21705  0.43361  0.34066  1.0000
  H   H31       1.0  0.29147  0.42978  0.34201  1.0000
  C   C56       1.0  0.34780  0.48867  0.31090  1.0000
  H   H32       1.0  0.36061  0.45924  0.32130  1.0000
  C   C57       1.0  0.52482  0.47697  0.31513  1.0000
  C   C58       1.0  0.59016  0.41169  0.32787  1.0000
  C   C59       1.0  0.60126  0.45514  0.32062  1.0000
  C   C60       1.0  0.56910  0.48637  0.31468  1.0000
  N   N21       1.0  0.62074  0.38114  0.33670  1.0000
  C   C61       1.0  0.99234  0.00944  0.31581  1.0000
  C   C62       1.0  0.94799  0.99990  0.31524  1.0000
  C   C63       1.0  0.91600  0.03113  0.32280  1.0000
  C   C64       1.0  0.92737  0.07423  0.33405  1.0000
  N   N22       1.0  0.89766  0.10376  0.35778  1.0000
  H   H33       1.0  0.86952  0.09512  0.37643  1.0000
  H   H34       1.0  0.65063  0.38810  0.34175  1.0000
  H   H35       1.0  0.57927  0.01681  0.31109  1.0000
  H   H36       1.0  0.93752  0.46966  0.30795  1.0000
  N   N23       1.0  0.87401  0.02234  0.31653  1.0000
  N   N24       1.0  0.64317  0.46482  0.31674  1.0000
  C   C65       1.0  0.50320  0.28988  0.30588  1.0000
  C   C66       1.0  0.46725  0.26509  0.28137  1.0000
  C   C67       1.0  0.46969  0.21965  0.28124  1.0000
  N   N25       1.0  0.42998  0.28757  0.25685  1.0000
  N   N26       1.0  0.43649  0.19420  0.24623  1.0000
  O   O17       1.0  0.41800  0.28209  0.17779  1.0000
  O   O18       1.0  0.40097  0.19919  0.28242  1.0000
  O   O19       1.0  0.39987  0.28341  0.31098  1.0000
  O   O20       1.0  0.43324  0.19691  0.16286  1.0000
  C   C68       1.0  0.50176  0.33486  0.30779  1.0000
  H   H37       1.0  0.47403  0.35034  0.29460  1.0000
  C   C69       1.0  0.71196  0.99840  0.30180  1.0000
  C   C70       1.0  0.73678  0.03437  0.27750  1.0000
  C   C71       1.0  0.78221  0.03193  0.27751  1.0000
  N   N27       1.0  0.71432  0.07170  0.25326  1.0000
  N   N28       1.0  0.80773  0.06514  0.24269  1.0000
  O   O21       1.0  0.71985  0.08382  0.17430  1.0000
  O   O22       1.0  0.80275  0.10063  0.27903  1.0000
  O   O23       1.0  0.71852  0.10171  0.30763  1.0000
  O   O24       1.0  0.80503  0.06848  0.15934  1.0000
  C   C72       1.0  0.66699  0.99989  0.30393  1.0000
  H   H38       1.0  0.65151  0.02765  0.29097  1.0000
  C   C73       1.0  0.51540  0.43270  0.31674  1.0000
  C   C74       1.0  0.54665  0.40057  0.32236  1.0000
  H   H39       1.0  0.98491  0.42254  0.31583  1.0000
  C   C75       1.0  0.97053  0.08570  0.32437  1.0000
  C   C76       1.0  0.00185  0.05379  0.31713  1.0000
  H   H40       1.0  0.53217  0.06434  0.31227  1.0000
  H   H41       1.0  0.90624  0.13174  0.37765  1.0000
  H   H42       1.0  0.61379  0.35130  0.34299  1.0000
  N   N29       1.0  0.97929  0.12773  0.31907  1.0000
  N   N30       1.0  0.53694  0.35864  0.31955  1.0000
  C   C77       1.0  0.50788  0.19867  0.30777  1.0000
  C   C78       1.0  0.54356  0.22399  0.32802  1.0000
  C   C79       1.0  0.54126  0.26839  0.32737  1.0000
  H   H43       1.0  0.56793  0.28478  0.34525  1.0000
  H   H44       1.0  0.57172  0.21035  0.34660  1.0000
  C   C80       1.0  0.51293  0.15404  0.31459  1.0000
  H   H45       1.0  0.54232  0.14122  0.32539  1.0000
  C   C81       1.0  0.80317  0.99369  0.30375  1.0000
  C   C82       1.0  0.77784  0.95796  0.32359  1.0000
  C   C83       1.0  0.73344  0.96030  0.32300  1.0000
  H   H46       1.0  0.71705  0.93361  0.34066  1.0000
  H   H47       1.0  0.79147  0.92978  0.34201  1.0000
  C   C84       1.0  0.84780  0.98867  0.31090  1.0000
  H   H48       1.0  0.86060  0.95924  0.32130  1.0000
  C   C85       1.0  0.52482  0.97697  0.31513  1.0000
  C   C86       1.0  0.59016  0.91169  0.32787  1.0000
  C   C87       1.0  0.60126  0.95514  0.32062  1.0000
  C   C88       1.0  0.56910  0.98637  0.31468  1.0000
  N   N31       1.0  0.62074  0.88114  0.33670  1.0000
  C   C89       1.0  0.99234  0.50944  0.31581  1.0000
  C   C90       1.0  0.94799  0.49990  0.31524  1.0000
  C   C91       1.0  0.91600  0.53113  0.32280  1.0000
  C   C92       1.0  0.92737  0.57423  0.33405  1.0000
  N   N32       1.0  0.89766  0.60376  0.35778  1.0000
  H   H49       1.0  0.86952  0.59512  0.37643  1.0000
  H   H50       1.0  0.65063  0.88809  0.34175  1.0000
  H   H51       1.0  0.57927  0.51681  0.31109  1.0000
  H   H52       1.0  0.93752  0.96966  0.30795  1.0000
  N   N33       1.0  0.87401  0.52234  0.31653  1.0000
  N   N34       1.0  0.64317  0.96482  0.31674  1.0000
  C   C93       1.0  0.50320  0.78988  0.30588  1.0000
  C   C94       1.0  0.46725  0.76509  0.28137  1.0000
  C   C95       1.0  0.46969  0.71966  0.28124  1.0000
  N   N35       1.0  0.42998  0.78757  0.25685  1.0000
  N   N36       1.0  0.43649  0.69420  0.24623  1.0000
  O   O25       1.0  0.41800  0.78209  0.17779  1.0000
  O   O26       1.0  0.40097  0.69919  0.28242  1.0000
  O   O27       1.0  0.39987  0.78341  0.31098  1.0000
  O   O28       1.0  0.43324  0.69691  0.16286  1.0000
  C   C96       1.0  0.50176  0.83486  0.30779  1.0000
  H   H53       1.0  0.47403  0.85035  0.29460  1.0000
  C   C97       1.0  0.71196  0.49840  0.30180  1.0000
  C   C98       1.0  0.73678  0.53437  0.27750  1.0000
  C   C99       1.0  0.78221  0.53194  0.27751  1.0000
  N   N37       1.0  0.71432  0.57170  0.25326  1.0000
  N   N38       1.0  0.80773  0.56514  0.24269  1.0000
  O   O29       1.0  0.71985  0.58382  0.17430  1.0000
  O   O30       1.0  0.80275  0.60063  0.27903  1.0000
  O   O31       1.0  0.71852  0.60171  0.30763  1.0000
  O   O32       1.0  0.80503  0.56848  0.15934  1.0000
  C   C100      1.0  0.66699  0.49989  0.30393  1.0000
  H   H54       1.0  0.65151  0.52765  0.29097  1.0000
  C   C101      1.0  0.51540  0.93270  0.31674  1.0000
  C   C102      1.0  0.54665  0.90057  0.32236  1.0000
  H   H55       1.0  0.98491  0.92254  0.31583  1.0000
  C   C103      1.0  0.97053  0.58570  0.32437  1.0000
  C   C104      1.0  0.00185  0.55379  0.31713  1.0000
  H   H56       1.0  0.53217  0.56434  0.31227  1.0000
  H   H57       1.0  0.90624  0.63174  0.37765  1.0000
  H   H58       1.0  0.61379  0.85130  0.34299  1.0000
  N   N39       1.0  0.97929  0.62774  0.31907  1.0000
  N   N40       1.0  0.53694  0.85864  0.31955  1.0000
  C   C105      1.0  0.50788  0.69867  0.30777  1.0000
  C   C106      1.0  0.54356  0.72400  0.32802  1.0000
  C   C107      1.0  0.54126  0.76839  0.32737  1.0000
  H   H59       1.0  0.56793  0.78478  0.34525  1.0000
  H   H60       1.0  0.57172  0.71035  0.34660  1.0000
  C   C108      1.0  0.51293  0.65404  0.31459  1.0000
  H   H61       1.0  0.54232  0.64123  0.32539  1.0000
  C   C109      1.0  0.80317  0.49368  0.30375  1.0000
  C   C110      1.0  0.77784  0.45797  0.32359  1.0000
  C   C111      1.0  0.73344  0.46030  0.32300  1.0000
  H   H62       1.0  0.71705  0.43361  0.34066  1.0000
  H   H63       1.0  0.79147  0.42978  0.34201  1.0000
  C   C112      1.0  0.84780  0.48867  0.31090  1.0000
  H   H64       1.0  0.86060  0.45924  0.32130  1.0000
