data_image0
_chemical_formula_structural       CNC3H2CH3CHCNC3H2CH3CHCNC3H2CH3CHNC18H12NHNHNHNC18H12NHNHNHC4HC2NHCH4CH2C4HC2NHCH4CH2C4HC2NHCH4CH2
_chemical_formula_sum              "C78 N14 H72"
_cell_length_a       39.7171
_cell_length_b       39.7184
_cell_length_c       14.9285
_cell_angle_alpha    90
_cell_angle_beta     90
_cell_angle_gamma    119.999

_space_group_name_H-M_alt    "P 1"
_space_group_IT_number       1

loop_
  _space_group_symop_operation_xyz
  'x, y, z'

loop_
  _atom_site_type_symbol
  _atom_site_label
  _atom_site_symmetry_multiplicity
  _atom_site_fract_x
  _atom_site_fract_y
  _atom_site_fract_z
  _atom_site_occupancy
  C   C1        1.0  0.47387  0.55343  0.30410  1.0000
  N   N1        1.0  0.49179  0.53201  0.29963  1.0000
  C   C2        1.0  0.48550  0.44663  0.30959  1.0000
  C   C3        1.0  0.50483  0.42511  0.29888  1.0000
  C   C4        1.0  0.54415  0.44020  0.32380  1.0000
  H   H1        1.0  0.48986  0.39766  0.27238  1.0000
  H   H2        1.0  0.47646  0.57046  0.25047  1.0000
  C   C5        1.0  0.44411  0.42821  0.28137  1.0000
  H   H3        1.0  0.43163  0.44691  0.29110  1.0000
  H   H4        1.0  0.42674  0.40162  0.31982  1.0000
  H   H5        1.0  0.44166  0.42079  0.21034  1.0000
  C   C6        1.0  0.56229  0.41540  0.31198  1.0000
  H   H6        1.0  0.55762  0.40517  0.24257  1.0000
  C   C7        1.0  0.45258  0.92165  0.30409  1.0000
  N   N2        1.0  0.47400  0.96098  0.29962  1.0000
  C   C8        1.0  0.55939  0.04008  0.30959  1.0000
  C   C9        1.0  0.58091  0.08094  0.29888  1.0000
  C   C10       1.0  0.56581  0.10515  0.32381  1.0000
  H   H7        1.0  0.60836  0.09342  0.27237  1.0000
  H   H8        1.0  0.43553  0.90721  0.25047  1.0000
  C   C11       1.0  0.57783  0.01712  0.28136  1.0000
  H   H9        1.0  0.55913  0.98594  0.29107  1.0000
  H   H10       1.0  0.60442  0.02635  0.31980  1.0000
  H   H11       1.0  0.58525  0.02210  0.21033  1.0000
  C   C12       1.0  0.59059  0.14809  0.31197  1.0000
  H   H12       1.0  0.60081  0.15364  0.24255  1.0000
  C   C13       1.0  0.08432  0.53214  0.30399  1.0000
  N   N3        1.0  0.04498  0.51421  0.29955  1.0000
  C   C14       1.0  0.96590  0.52048  0.30949  1.0000
  C   C15       1.0  0.92504  0.50114  0.29875  1.0000
  C   C16       1.0  0.90082  0.46183  0.32374  1.0000
  H   H13       1.0  0.91256  0.51609  0.27219  1.0000
  H   H14       1.0  0.09876  0.52950  0.25043  1.0000
  C   C17       1.0  0.98886  0.56187  0.28119  1.0000
  H   H15       1.0  0.02004  0.57436  0.29095  1.0000
  H   H16       1.0  0.97962  0.57924  0.31956  1.0000
  H   H17       1.0  0.98389  0.56428  0.21014  1.0000
  C   C18       1.0  0.85789  0.44368  0.31187  1.0000
  H   H18       1.0  0.85233  0.44832  0.24242  1.0000
  N   N4        1.0  0.33691  0.66906  0.33946  1.0000
  C   C19       1.0  0.35927  0.65012  0.33450  1.0000
  C   C20       1.0  0.29562  0.64671  0.33449  1.0000
  C   C21       1.0  0.35585  0.71036  0.33449  1.0000
  C   C22       1.0  0.38019  0.73053  0.26138  1.0000
  C   C23       1.0  0.39835  0.77129  0.25576  1.0000
  C   C24       1.0  0.39214  0.79319  0.32197  1.0000
  C   C25       1.0  0.36696  0.77264  0.39388  1.0000
  C   C26       1.0  0.34967  0.73194  0.40104  1.0000
  C   C27       1.0  0.35510  0.62578  0.26140  1.0000
  C   C28       1.0  0.37770  0.60762  0.25579  1.0000
  C   C29       1.0  0.40581  0.61383  0.32200  1.0000
  C   C30       1.0  0.41046  0.63903  0.39388  1.0000
  C   C31       1.0  0.38704  0.65632  0.40104  1.0000
  C   C32       1.0  0.27403  0.61894  0.40104  1.0000
  C   C33       1.0  0.23333  0.59550  0.39384  1.0000
  C   C34       1.0  0.21279  0.60014  0.32193  1.0000
  C   C35       1.0  0.23469  0.62826  0.25573  1.0000
  C   C36       1.0  0.27544  0.65088  0.26138  1.0000
  H   H19       1.0  0.37400  0.59028  0.20173  1.0000
  H   H20       1.0  0.33555  0.62121  0.21167  1.0000
  H   H21       1.0  0.39107  0.67437  0.45383  1.0000
  H   H22       1.0  0.43121  0.64516  0.44160  1.0000
  H   H23       1.0  0.38476  0.71555  0.21165  1.0000
  H   H24       1.0  0.41568  0.78492  0.20169  1.0000
  H   H25       1.0  0.28807  0.61490  0.45380  1.0000
  H   H26       1.0  0.21872  0.57475  0.44154  1.0000
  H   H27       1.0  0.22105  0.63198  0.20170  1.0000
  H   H28       1.0  0.29042  0.67044  0.21167  1.0000
  H   H29       1.0  0.33162  0.71791  0.45384  1.0000
  H   H30       1.0  0.36084  0.78726  0.44160  1.0000
  N   N5        1.0  0.43068  0.59749  0.31408  1.0000
  H   H31       1.0  0.42547  0.58306  0.25414  1.0000
  N   N6        1.0  0.40850  0.83440  0.31404  1.0000
  H   H32       1.0  0.42291  0.84362  0.25408  1.0000
  N   N7        1.0  0.17158  0.57528  0.31400  1.0000
  H   H33       1.0  0.16236  0.58049  0.25406  1.0000
  N   N8        1.0  0.67024  0.33572  0.34960  1.0000
  C   C37       1.0  0.65339  0.35977  0.34348  1.0000
  C   C38       1.0  0.71115  0.35257  0.34346  1.0000
  C   C39       1.0  0.64620  0.29481  0.34348  1.0000
  C   C40       1.0  0.62660  0.27325  0.42040  1.0000
  C   C41       1.0  0.60248  0.23259  0.41583  1.0000
  C   C42       1.0  0.59739  0.21265  0.33429  1.0000
  C   C43       1.0  0.61680  0.23432  0.25704  1.0000
  C   C44       1.0  0.64114  0.27495  0.26172  1.0000
  C   C45       1.0  0.65144  0.37937  0.42040  1.0000
  C   C46       1.0  0.63490  0.40350  0.41582  1.0000
  C   C47       1.0  0.62004  0.40858  0.33428  1.0000
  C   C48       1.0  0.62229  0.38917  0.25704  1.0000
  C   C49       1.0  0.63857  0.36482  0.26173  1.0000
  C   C50       1.0  0.73101  0.36736  0.26170  1.0000
  C   C51       1.0  0.77164  0.38366  0.25701  1.0000
  C   C52       1.0  0.79332  0.38594  0.33426  1.0000
  C   C53       1.0  0.77338  0.37109  0.41581  1.0000
  C   C54       1.0  0.73271  0.35454  0.42040  1.0000
  H   H34       1.0  0.63386  0.41751  0.47234  1.0000
  H   H35       1.0  0.66207  0.37611  0.48019  1.0000
  H   H36       1.0  0.63998  0.35111  0.20506  1.0000
  H   H37       1.0  0.61224  0.39286  0.19690  1.0000
  H   H38       1.0  0.62987  0.28714  0.48020  1.0000
  H   H39       1.0  0.58848  0.21754  0.47236  1.0000
  H   H40       1.0  0.71589  0.36594  0.20504  1.0000
  H   H41       1.0  0.78538  0.39369  0.19686  1.0000
  H   H42       1.0  0.78844  0.37214  0.47234  1.0000
  H   H43       1.0  0.71883  0.34393  0.48019  1.0000
  H   H44       1.0  0.65483  0.29006  0.20506  1.0000
  H   H45       1.0  0.61310  0.22057  0.19690  1.0000
  N   N9        1.0  0.60454  0.43395  0.33262  1.0000
  H   H46       1.0  0.62016  0.45580  0.28740  1.0000
  N   N10       1.0  0.57203  0.17178  0.33264  1.0000
  H   H47       1.0  0.55017  0.16554  0.28742  1.0000
  N   N11       1.0  0.83419  0.40144  0.33260  1.0000
  H   H48       1.0  0.84041  0.38580  0.28741  1.0000
  C   C55       1.0  0.45076  0.55040  0.37905  1.0000
  C   C56       1.0  0.49046  0.50801  0.36607  1.0000
  C   C57       1.0  0.46909  0.50456  0.44519  1.0000
  C   C58       1.0  0.44936  0.52594  0.44963  1.0000
  H   H49       1.0  0.43304  0.52317  0.50524  1.0000
  C   C59       1.0  0.50693  0.48445  0.34733  1.0000
  C   C60       1.0  0.56353  0.47803  0.36066  1.0000
  N   N12       1.0  0.54459  0.49827  0.37138  1.0000
  H   H50       1.0  0.59174  0.49056  0.38144  1.0000
  C   C61       1.0  0.46570  0.47946  0.52252  1.0000
  H   H51       1.0  0.48227  0.46459  0.51365  1.0000
  H   H52       1.0  0.43527  0.45743  0.53253  1.0000
  H   H53       1.0  0.47641  0.49718  0.58301  1.0000
  H   H54       1.0  0.54648  0.39002  0.35543  1.0000
  C   C62       1.0  0.42710  0.57008  0.38678  1.0000
  H   H55       1.0  0.43545  0.58627  0.44978  1.0000
  H   H56       1.0  0.39657  0.54733  0.39239  1.0000
  C   C63       1.0  0.45561  0.90156  0.37902  1.0000
  C   C64       1.0  0.49802  0.98365  0.36604  1.0000
  C   C65       1.0  0.50149  0.96572  0.44513  1.0000
  C   C66       1.0  0.48011  0.92462  0.44954  1.0000
  H   H57       1.0  0.48289  0.91106  0.50515  1.0000
  C   C67       1.0  0.52157  0.02368  0.34733  1.0000
  C   C68       1.0  0.52798  0.08669  0.36070  1.0000
  N   N13       1.0  0.50774  0.04751  0.37138  1.0000
  H   H58       1.0  0.51542  0.10236  0.38142  1.0000
  C   C69       1.0  0.52662  0.98743  0.52244  1.0000
  H   H59       1.0  0.54148  0.01886  0.51359  1.0000
  H   H60       1.0  0.54866  0.97902  0.53236  1.0000
  H   H61       1.0  0.50892  0.98041  0.58296  1.0000
  H   H62       1.0  0.61598  0.15766  0.35539  1.0000
  C   C70       1.0  0.43594  0.85822  0.38670  1.0000
  H   H63       1.0  0.41978  0.85037  0.44975  1.0000
  H   H64       1.0  0.45870  0.85044  0.39222  1.0000
  C   C71       1.0  0.10441  0.55522  0.37898  1.0000
  C   C72       1.0  0.02233  0.51555  0.36600  1.0000
  C   C73       1.0  0.04025  0.53692  0.44512  1.0000
  C   C74       1.0  0.08135  0.55664  0.44953  1.0000
  H   H65       1.0  0.09491  0.57296  0.50515  1.0000
  C   C75       1.0  0.98229  0.49907  0.34731  1.0000
  C   C76       1.0  0.91927  0.44247  0.36067  1.0000
  N   N14       1.0  0.95846  0.46141  0.37137  1.0000
  H   H66       1.0  0.90361  0.41425  0.38140  1.0000
  C   C77       1.0  0.01854  0.54033  0.52244  1.0000
  H   H67       1.0  0.98711  0.52377  0.51358  1.0000
  H   H68       1.0  0.02696  0.57078  0.53242  1.0000
  H   H69       1.0  0.02555  0.52963  0.58294  1.0000
  H   H70       1.0  0.84831  0.45951  0.35523  1.0000
  C   C78       1.0  0.14775  0.57887  0.38669  1.0000
  H   H71       1.0  0.15559  0.57053  0.44970  1.0000
  H   H72       1.0  0.15554  0.60941  0.39228  1.0000
