data_image0
_chemical_formula_structural       C3NC3NC5NC5NC36H26N4CNCOCH3CHCNCOCH3CHC16H16NC2OCH3CHNC2OCH3CH
_chemical_formula_sum              "C84 N12 H58 O4"
_cell_length_a       34.4319
_cell_length_b       34.4299
_cell_length_c       14.7669
_cell_angle_alpha    90
_cell_angle_beta     90
_cell_angle_gamma    90.0659

_space_group_name_H-M_alt    "P 1"
_space_group_IT_number       1

loop_
  _space_group_symop_operation_xyz
  'x, y, z'

loop_
  _atom_site_type_symbol
  _atom_site_label
  _atom_site_symmetry_multiplicity
  _atom_site_fract_x
  _atom_site_fract_y
  _atom_site_fract_z
  _atom_site_occupancy
  C   C1        1.0  0.93291  0.90716  0.32697  1.0000
  C   C2        1.0  0.90436  0.93536  0.32795  1.0000
  C   C3        1.0  0.92217  0.97185  0.32587  1.0000
  N   N1        1.0  0.96094  0.96415  0.32467  1.0000
  C   C4        1.0  0.96914  0.92548  0.32534  1.0000
  C   C5        1.0  0.00562  0.90574  0.32425  1.0000
  C   C6        1.0  0.04229  0.92503  0.32385  1.0000
  N   N2        1.0  0.04979  0.96371  0.32435  1.0000
  C   C7        1.0  0.08838  0.97167  0.32427  1.0000
  C   C8        1.0  0.10684  0.93556  0.32355  1.0000
  C   C9        1.0  0.07861  0.90699  0.32368  1.0000
  C   C10       1.0  0.10724  0.00856  0.32402  1.0000
  C   C11       1.0  0.08707  0.04481  0.32410  1.0000
  N   N3        1.0  0.04832  0.05255  0.32572  1.0000
  C   C12       1.0  0.04018  0.09122  0.32520  1.0000
  C   C13       1.0  0.07646  0.10947  0.32287  1.0000
  C   C14       1.0  0.10498  0.08125  0.32285  1.0000
  C   C15       1.0  0.00371  0.11101  0.32575  1.0000
  C   C16       1.0  0.96704  0.09166  0.32603  1.0000
  N   N4        1.0  0.95950  0.05296  0.32595  1.0000
  C   C17       1.0  0.92089  0.04498  0.32627  1.0000
  C   C18       1.0  0.90248  0.08111  0.32620  1.0000
  C   C19       1.0  0.93071  0.10967  0.32694  1.0000
  C   C20       1.0  0.90196  0.00810  0.32609  1.0000
  C   C21       1.0  0.86005  0.00752  0.32620  1.0000
  C   C22       1.0  0.77615  0.00662  0.32610  1.0000
  C   C23       1.0  0.79783  0.99691  0.24764  1.0000
  C   C24       1.0  0.83885  0.99765  0.24739  1.0000
  C   C25       1.0  0.73425  0.00589  0.32634  1.0000
  C   C26       1.0  0.71320  0.97458  0.28763  1.0000
  C   C27       1.0  0.67221  0.97321  0.29025  1.0000
  C   C28       1.0  0.65038  0.00358  0.32936  1.0000
  C   C29       1.0  0.00381  0.15291  0.32568  1.0000
  C   C30       1.0  0.00339  0.23681  0.32610  1.0000
  C   C31       1.0  0.99340  0.21525  0.24761  1.0000
  C   C32       1.0  0.99389  0.17423  0.24711  1.0000
  C   C33       1.0  0.00266  0.27870  0.32675  1.0000
  C   C34       1.0  0.00032  0.36254  0.33063  1.0000
  C   C35       1.0  0.96976  0.34069  0.29215  1.0000
  C   C36       1.0  0.97115  0.29971  0.28907  1.0000
  C   C37       1.0  0.14908  0.00912  0.32339  1.0000
  C   C38       1.0  0.17009  0.01569  0.24253  1.0000
  C   C39       1.0  0.21112  0.01616  0.24216  1.0000
  C   C40       1.0  0.23301  0.00975  0.32221  1.0000
  C   C41       1.0  0.27500  0.00976  0.32166  1.0000
  C   C42       1.0  0.35920  0.00994  0.32199  1.0000
  C   C43       1.0  0.33777  0.03712  0.27062  1.0000
  C   C44       1.0  0.29672  0.03699  0.27023  1.0000
  C   C45       1.0  0.00559  0.86388  0.32379  1.0000
  C   C46       1.0  0.01179  0.84279  0.24290  1.0000
  C   C47       1.0  0.00604  0.77993  0.32298  1.0000
  C   C48       1.0  0.01214  0.80176  0.24269  1.0000
  C   C49       1.0  0.00610  0.73793  0.32263  1.0000
  C   C50       1.0  0.03310  0.71627  0.27054  1.0000
  C   C51       1.0  0.03327  0.67522  0.27101  1.0000
  C   C52       1.0  0.00640  0.65372  0.32321  1.0000
  H   H1        1.0  0.05366  0.66097  0.23308  1.0000
  H   H2        1.0  0.05375  0.73029  0.23292  1.0000
  H   H3        1.0  0.01614  0.78788  0.18217  1.0000
  H   H4        1.0  0.01607  0.85728  0.18319  1.0000
  H   H5        1.0  0.92752  0.87797  0.32792  1.0000
  H   H6        1.0  0.87526  0.92954  0.33004  1.0000
  H   H7        1.0  0.98055  0.98401  0.32266  1.0000
  H   H8        1.0  0.02870  0.03270  0.32762  1.0000
  H   H9        1.0  0.08418  0.87784  0.32364  1.0000
  H   H10       1.0  0.13605  0.93033  0.32298  1.0000
  H   H11       1.0  0.15555  0.02007  0.18294  1.0000
  H   H12       1.0  0.22496  0.02037  0.18165  1.0000
  H   H13       1.0  0.13410  0.08699  0.32150  1.0000
  H   H14       1.0  0.08193  0.13864  0.32114  1.0000
  H   H15       1.0  0.87328  0.08642  0.32596  1.0000
  H   H16       1.0  0.92508  0.13880  0.32763  1.0000
  H   H17       1.0  0.98672  0.15990  0.18871  1.0000
  H   H18       1.0  0.98623  0.22937  0.18898  1.0000
  H   H19       1.0  0.94807  0.28520  0.26142  1.0000
  H   H20       1.0  0.94608  0.35460  0.26570  1.0000
  H   H21       1.0  0.85326  0.99082  0.18890  1.0000
  H   H22       1.0  0.78381  0.98993  0.18874  1.0000
  H   H23       1.0  0.65828  0.94967  0.26302  1.0000
  H   H24       1.0  0.72769  0.95164  0.25943  1.0000
  H   H25       1.0  0.28274  0.05785  0.23326  1.0000
  H   H26       1.0  0.35207  0.05768  0.23321  1.0000
  N   N5        1.0  0.61155  0.00005  0.33342  1.0000
  N   N6        1.0  0.00883  0.61462  0.32110  1.0000
  N   N7        1.0  0.39830  0.01235  0.31991  1.0000
  N   N8        1.0  0.99680  0.40135  0.33508  1.0000
  C   C53       1.0  0.01278  0.46768  0.33093  1.0000
  N   N9        1.0  0.01294  0.53314  0.27523  1.0000
  C   C54       1.0  0.02006  0.49466  0.26047  1.0000
  O   O1        1.0  0.03499  0.48354  0.17868  1.0000
  C   C55       1.0  0.00547  0.47282  0.11444  1.0000
  H   H27       1.0  0.01977  0.46444  0.05157  1.0000
  H   H28       1.0  0.98606  0.49714  0.10001  1.0000
  H   H29       1.0  0.98842  0.44803  0.13811  1.0000
  C   C56       1.0  0.02216  0.42855  0.32429  1.0000
  H   H30       1.0  0.04923  0.42168  0.30722  1.0000
  C   C57       1.0  0.54525  0.01602  0.33014  1.0000
  N   N10       1.0  0.47987  0.01622  0.27398  1.0000
  C   C58       1.0  0.51839  0.02331  0.25949  1.0000
  O   O2        1.0  0.52967  0.03827  0.17782  1.0000
  C   C59       1.0  0.54021  0.00876  0.11345  1.0000
  H   H31       1.0  0.54872  0.02308  0.05068  1.0000
  H   H32       1.0  0.51576  0.98949  0.09882  1.0000
  H   H33       1.0  0.56486  0.99156  0.13713  1.0000
  C   C60       1.0  0.58439  0.02549  0.32397  1.0000
  H   H34       1.0  0.59129  0.05275  0.30850  1.0000
  C   C61       1.0  0.83864  0.01694  0.40495  1.0000
  C   C62       1.0  0.79761  0.01676  0.40462  1.0000
  C   C63       1.0  0.67110  0.03503  0.36784  1.0000
  C   C64       1.0  0.71213  0.03603  0.36665  1.0000
  C   C65       1.0  0.01365  0.17420  0.40436  1.0000
  C   C66       1.0  0.01372  0.21523  0.40428  1.0000
  C   C67       1.0  0.03298  0.30082  0.36652  1.0000
  C   C68       1.0  0.03196  0.34185  0.36810  1.0000
  C   C69       1.0  0.21159  0.00315  0.40290  1.0000
  C   C70       1.0  0.17057  0.00296  0.40367  1.0000
  C   C71       1.0  0.29666  0.98243  0.37275  1.0000
  C   C72       1.0  0.33768  0.98242  0.37284  1.0000
  C   C73       1.0  0.99970  0.84245  0.40430  1.0000
  C   C74       1.0  0.99979  0.80143  0.40370  1.0000
  C   C75       1.0  0.97913  0.67517  0.37479  1.0000
  C   C76       1.0  0.97909  0.71619  0.37460  1.0000
  H   H35       1.0  0.95882  0.66116  0.41323  1.0000
  H   H36       1.0  0.95838  0.73014  0.41208  1.0000
  H   H37       1.0  0.99598  0.78730  0.46400  1.0000
  H   H38       1.0  0.99538  0.85667  0.46432  1.0000
  H   H39       1.0  0.15641  0.99827  0.46363  1.0000
  H   H40       1.0  0.22576  0.99909  0.46304  1.0000
  H   H41       1.0  0.02079  0.15986  0.46274  1.0000
  H   H42       1.0  0.02050  0.22931  0.46323  1.0000
  H   H43       1.0  0.05422  0.35658  0.39853  1.0000
  H   H44       1.0  0.05651  0.28715  0.39427  1.0000
  H   H45       1.0  0.72581  0.05943  0.39509  1.0000
  H   H46       1.0  0.65639  0.05716  0.39871  1.0000
  H   H47       1.0  0.78345  0.02336  0.46355  1.0000
  H   H48       1.0  0.85289  0.02408  0.46346  1.0000
  H   H49       1.0  0.28266  0.96155  0.40972  1.0000
  H   H50       1.0  0.35164  0.96190  0.41065  1.0000
  N   N11       1.0  0.99902  0.48224  0.41024  1.0000
  C   C77       1.0  0.99185  0.52065  0.42490  1.0000
  C   C78       1.0  0.99888  0.54782  0.35440  1.0000
  O   O3        1.0  0.97783  0.53143  0.50787  1.0000
  C   C79       1.0  0.00808  0.54045  0.57169  1.0000
  H   H51       1.0  0.99447  0.54885  0.63536  1.0000
  H   H52       1.0  0.02598  0.56475  0.54858  1.0000
  H   H53       1.0  0.02659  0.51528  0.58442  1.0000
  C   C80       1.0  0.99108  0.58738  0.36475  1.0000
  H   H54       1.0  0.97148  0.59486  0.41084  1.0000
  N   N12       1.0  0.53054  0.00232  0.40939  1.0000
  C   C81       1.0  0.49210  0.99517  0.42379  1.0000
  C   C82       1.0  0.46505  0.00219  0.35308  1.0000
  O   O4        1.0  0.48116  0.98118  0.50671  1.0000
  C   C83       1.0  0.47220  0.01145  0.57046  1.0000
  H   H55       1.0  0.46366  0.99786  0.63407  1.0000
  H   H56       1.0  0.44801  0.02940  0.54718  1.0000
  H   H57       1.0  0.49744  0.02991  0.58337  1.0000
  C   C84       1.0  0.42547  0.99436  0.36314  1.0000
  H   H58       1.0  0.41792  0.97459  0.40881  1.0000
