data_image0
_chemical_formula_structural       H2NC5HC5HCH2C2HNC2NCNHCOCH2CNCNCNHCOCHC8HC7HCH4C3H3C8HC7HCH4C4H4C2NHNC2NHNC2NHNC2NHNC5H2C2H2CHNC2NOCH3NH2C2NOCH3NC2NOCH3NC2NOCH3N
_chemical_formula_sum              "H54 N24 C90 O6"
_cell_length_a       30.742
_cell_length_b       30.742
_cell_length_c       14.6849
_cell_angle_alpha    90.0002
_cell_angle_beta     89.9998
_cell_angle_gamma    120

_space_group_name_H-M_alt    "P 1"
_space_group_IT_number       1

loop_
  _space_group_symop_operation_xyz
  'x, y, z'

loop_
  _atom_site_type_symbol
  _atom_site_label
  _atom_site_symmetry_multiplicity
  _atom_site_fract_x
  _atom_site_fract_y
  _atom_site_fract_z
  _atom_site_occupancy
  H   H1        1.0  0.19040  0.57358  0.38898  1.0000
  H   H2        1.0  0.19419  0.42935  0.35868  1.0000
  N   N1        1.0  0.17681  0.50340  0.37233  1.0000
  C   C1        1.0  0.04379  0.60619  0.37012  1.0000
  C   C2        1.0  0.02523  0.68780  0.36894  1.0000
  C   C3        1.0  0.07603  0.69912  0.36825  1.0000
  C   C4        1.0  0.08460  0.65716  0.36825  1.0000
  C   C5        1.0  0.13320  0.66340  0.36167  1.0000
  H   H3        1.0  0.01798  0.71698  0.37041  1.0000
  C   C6        1.0  0.05276  0.56405  0.37011  1.0000
  C   C7        1.0  0.02052  0.47113  0.36809  1.0000
  C   C8        1.0  0.07131  0.48243  0.36889  1.0000
  C   C9        1.0  0.11293  0.53170  0.37126  1.0000
  C   C10       1.0  0.10299  0.57262  0.36960  1.0000
  H   H4        1.0  0.07855  0.45325  0.37035  1.0000
  C   C11       1.0  0.14206  0.62316  0.36249  1.0000
  H   H5        1.0  0.17857  0.63266  0.35329  1.0000
  H   H6        1.0  0.16420  0.69740  0.35219  1.0000
  C   C12       1.0  0.11283  0.75156  0.36876  1.0000
  C   C13       1.0  0.16226  0.53850  0.37765  1.0000
  H   H7        1.0  0.10105  0.77739  0.36480  1.0000
  N   N2        1.0  0.16307  0.77156  0.37641  1.0000
  C   C14       1.0  0.22332  0.50762  0.37661  1.0000
  C   C15       1.0  0.22620  0.46329  0.36717  1.0000
  N   N3        1.0  0.27117  0.46445  0.36742  1.0000
  C   C16       1.0  0.24855  0.90720  0.36714  1.0000
  N   N4        1.0  0.20474  0.86225  0.36746  1.0000
  H   H8        1.0  0.24665  0.93922  0.35865  1.0000
  C   C17       1.0  0.27032  0.55254  0.38813  1.0000
  O   O1        1.0  0.27609  0.59937  0.39647  1.0000
  C   C18       1.0  0.28336  0.61696  0.48912  1.0000
  H   H9        1.0  0.25173  0.59184  0.53228  1.0000
  H   H10       1.0  0.28615  0.65372  0.48941  1.0000
  C   C19       1.0  0.20419  0.81800  0.37716  1.0000
  N   N5        1.0  0.24875  0.81967  0.38672  1.0000
  C   C20       1.0  0.29576  0.91007  0.37660  1.0000
  N   N6        1.0  0.33805  0.95656  0.37230  1.0000
  C   C21       1.0  0.31541  0.50816  0.37707  1.0000
  N   N7        1.0  0.31372  0.55104  0.38664  1.0000
  H   H11       1.0  0.31810  0.62112  0.51752  1.0000
  C   C22       1.0  0.29367  0.86307  0.38822  1.0000
  O   O2        1.0  0.33473  0.85729  0.39639  1.0000
  C   C23       1.0  0.34505  0.84992  0.48898  1.0000
  H   H12       1.0  0.31449  0.81514  0.51727  1.0000
  C   C24       1.0  0.52720  0.55956  0.37013  1.0000
  C   C25       1.0  0.53578  0.51791  0.36953  1.0000
  C   C26       1.0  0.49487  0.46706  0.37124  1.0000
  C   C27       1.0  0.44560  0.45940  0.36893  1.0000
  C   C28       1.0  0.43429  0.49888  0.36816  1.0000
  C   C29       1.0  0.47624  0.54941  0.36817  1.0000
  C   C30       1.0  0.58630  0.52937  0.36211  1.0000
  C   C31       1.0  0.47000  0.59176  0.36136  1.0000
  H   H13       1.0  0.41642  0.42297  0.37033  1.0000
  C   C32       1.0  0.56934  0.61068  0.37013  1.0000
  C   C33       1.0  0.62031  0.62083  0.36806  1.0000
  C   C34       1.0  0.66226  0.67136  0.36808  1.0000
  C   C35       1.0  0.65096  0.71084  0.36890  1.0000
  C   C36       1.0  0.60169  0.70319  0.37128  1.0000
  C   C37       1.0  0.56077  0.65234  0.36958  1.0000
  C   C38       1.0  0.62654  0.57848  0.36116  1.0000
  H   H14       1.0  0.68014  0.74727  0.37032  1.0000
  C   C39       1.0  0.51025  0.64087  0.36234  1.0000
  H   H15       1.0  0.66053  0.58150  0.35118  1.0000
  H   H16       1.0  0.59576  0.50236  0.35242  1.0000
  H   H17       1.0  0.50077  0.66788  0.35275  1.0000
  H   H18       1.0  0.43601  0.58875  0.35159  1.0000
  C   C40       1.0  0.59487  0.74571  0.37776  1.0000
  C   C41       1.0  0.71470  0.68698  0.36862  1.0000
  C   C42       1.0  0.50170  0.42455  0.37772  1.0000
  H   H19       1.0  0.55978  0.73874  0.38928  1.0000
  H   H20       1.0  0.74054  0.72458  0.36466  1.0000
  H   H21       1.0  0.53679  0.43151  0.38922  1.0000
  C   C43       1.0  0.57384  0.08961  0.37015  1.0000
  C   C44       1.0  0.61550  0.13984  0.36961  1.0000
  C   C45       1.0  0.66635  0.14977  0.37129  1.0000
  C   C46       1.0  0.67399  0.10815  0.36887  1.0000
  C   C47       1.0  0.63450  0.05736  0.36806  1.0000
  C   C48       1.0  0.58398  0.04880  0.36804  1.0000
  C   C49       1.0  0.60404  0.17890  0.36238  1.0000
  C   C50       1.0  0.54163  0.00021  0.36102  1.0000
  H   H22       1.0  0.71042  0.11539  0.37031  1.0000
  C   C51       1.0  0.52272  0.08064  0.37015  1.0000
  C   C52       1.0  0.51257  0.12145  0.36823  1.0000
  C   C53       1.0  0.46205  0.11288  0.36819  1.0000
  C   C54       1.0  0.42256  0.06209  0.36892  1.0000
  C   C55       1.0  0.43022  0.02047  0.37123  1.0000
  C   C56       1.0  0.48106  0.03041  0.36949  1.0000
  C   C57       1.0  0.55493  0.17005  0.36152  1.0000
  H   H23       1.0  0.38613  0.05484  0.37032  1.0000
  C   C58       1.0  0.49252  0.99136  0.36195  1.0000
  H   H24       1.0  0.55192  0.20102  0.35172  1.0000
  H   H25       1.0  0.63105  0.21539  0.35290  1.0000
  H   H26       1.0  0.46550  0.95489  0.35205  1.0000
  H   H27       1.0  0.54466  0.96927  0.35077  1.0000
  C   C59       1.0  0.65011  0.02053  0.36859  1.0000
  C   C60       1.0  0.38771  0.97113  0.37773  1.0000
  C   C61       1.0  0.44641  0.14969  0.36867  1.0000
  C   C62       1.0  0.70887  0.19910  0.37777  1.0000
  H   H28       1.0  0.68771  0.03229  0.36460  1.0000
  H   H29       1.0  0.39469  0.94302  0.38931  1.0000
  H   H30       1.0  0.40881  0.13792  0.36469  1.0000
  H   H31       1.0  0.70191  0.22722  0.38930  1.0000
  C   C63       1.0  0.62572  0.83764  0.37666  1.0000
  C   C64       1.0  0.67005  0.88486  0.36714  1.0000
  N   N8        1.0  0.66888  0.92866  0.36742  1.0000
  H   H32       1.0  0.70398  0.88678  0.35854  1.0000
  N   N9        1.0  0.62995  0.79536  0.37234  1.0000
  C   C65       1.0  0.87320  0.66257  0.37660  1.0000
  C   C66       1.0  0.87033  0.70691  0.36713  1.0000
  N   N10       1.0  0.82536  0.70575  0.36741  1.0000
  H   H33       1.0  0.90234  0.74084  0.35863  1.0000
  N   N11       1.0  0.91971  0.66679  0.37229  1.0000
  C   C67       1.0  0.47082  0.33260  0.37665  1.0000
  C   C68       1.0  0.42648  0.28539  0.36715  1.0000
  N   N12       1.0  0.42764  0.24158  0.36741  1.0000
  H   H34       1.0  0.39255  0.28348  0.35861  1.0000
  N   N13       1.0  0.46661  0.37489  0.37233  1.0000
  C   C69       1.0  0.80081  0.26018  0.37665  1.0000
  C   C70       1.0  0.84802  0.26306  0.36717  1.0000
  N   N14       1.0  0.89183  0.30804  0.36745  1.0000
  H   H35       1.0  0.84995  0.23105  0.35861  1.0000
  N   N15       1.0  0.75853  0.21367  0.37235  1.0000
  C   C71       1.0  0.99356  0.59762  0.36943  1.0000
  C   C72       1.0  0.98361  0.63853  0.37120  1.0000
  C   C73       1.0  0.95452  0.54710  0.36191  1.0000
  C   C74       1.0  0.01195  0.51309  0.36804  1.0000
  C   C75       1.0  0.96336  0.50684  0.36118  1.0000
  H   H36       1.0  0.93241  0.47287  0.35108  1.0000
  H   H37       1.0  0.91803  0.53763  0.35237  1.0000
  C   C76       1.0  0.98370  0.41869  0.36865  1.0000
  C   C77       1.0  0.93427  0.63170  0.37762  1.0000
  H   H38       1.0  0.99546  0.39285  0.36471  1.0000
  H   H39       1.0  0.90614  0.59660  0.38904  1.0000
  C   C78       1.0  0.38184  0.48325  0.36865  1.0000
  H   H40       1.0  0.35601  0.44564  0.36470  1.0000
  N   N16       1.0  0.36186  0.51350  0.37632  1.0000
  C   C79       1.0  0.58082  0.83972  0.38834  1.0000
  C   C80       1.0  0.62518  0.92920  0.37720  1.0000
  N   N17       1.0  0.58231  0.88462  0.38685  1.0000
  O   O3        1.0  0.53399  0.79866  0.39660  1.0000
  C   C81       1.0  0.51635  0.78833  0.48923  1.0000
  H   H41       1.0  0.54146  0.78181  0.53244  1.0000
  H   H42       1.0  0.47960  0.75435  0.48947  1.0000
  H   H43       1.0  0.51216  0.81889  0.51759  1.0000
  N   N18       1.0  0.61983  0.97030  0.37640  1.0000
  H   H44       1.0  0.35156  0.88150  0.53229  1.0000
  H   H45       1.0  0.37904  0.84714  0.48915  1.0000
  C   C82       1.0  0.82621  0.61766  0.38813  1.0000
  C   C83       1.0  0.78112  0.66205  0.37711  1.0000
  N   N19       1.0  0.78280  0.61916  0.38667  1.0000
  O   O4        1.0  0.82044  0.57083  0.39646  1.0000
  C   C84       1.0  0.81315  0.55323  0.48910  1.0000
  H   H46       1.0  0.84477  0.57834  0.53229  1.0000
  H   H47       1.0  0.81038  0.51647  0.48938  1.0000
  H   H48       1.0  0.77839  0.54904  0.51746  1.0000
  N   N20       1.0  0.73467  0.65671  0.37634  1.0000
  C   C85       1.0  0.51572  0.33052  0.38823  1.0000
  C   C86       1.0  0.47134  0.24104  0.37712  1.0000
  N   N21       1.0  0.51422  0.28561  0.38674  1.0000
  O   O5        1.0  0.56255  0.37158  0.39659  1.0000
  C   C87       1.0  0.58014  0.38186  0.48924  1.0000
  H   H49       1.0  0.55502  0.38836  0.53244  1.0000
  H   H50       1.0  0.61689  0.41585  0.48956  1.0000
  H   H51       1.0  0.58432  0.35128  0.51758  1.0000
  N   N22       1.0  0.47667  0.19993  0.37638  1.0000
  C   C88       1.0  0.80289  0.30716  0.38830  1.0000
  C   C89       1.0  0.89236  0.35227  0.37720  1.0000
  N   N23       1.0  0.84779  0.35058  0.38680  1.0000
  O   O6        1.0  0.76182  0.31294  0.39651  1.0000
  C   C90       1.0  0.75149  0.32026  0.48912  1.0000
  H   H52       1.0  0.74497  0.28866  0.53237  1.0000
  H   H53       1.0  0.71750  0.32304  0.48932  1.0000
  H   H54       1.0  0.78205  0.35503  0.51747  1.0000
  N   N24       1.0  0.93346  0.39872  0.37640  1.0000
