data_image0
_chemical_formula_structural       C3NC3NC5NC5NC20H18N4C3NC3NC5NC5NC20H18N4C3NC3NC5NC5NC20H18N4CNCHCHCNCHCHCNCHCHCNCHCHCNCHCHCNCHCHC8H8C8H8C8H8NC2HCHNC2HCHNC2HCHNC2HCHNC2HCHNC2HCH
_chemical_formula_sum              "C168 N36 H102"
_cell_length_a       49.8169
_cell_length_b       49.8169
_cell_length_c       14.996
_cell_angle_alpha    90.0998
_cell_angle_beta     89.9002
_cell_angle_gamma    120

_space_group_name_H-M_alt    "P 1"
_space_group_IT_number       1

loop_
  _space_group_symop_operation_xyz
  'x, y, z'

loop_
  _atom_site_type_symbol
  _atom_site_label
  _atom_site_symmetry_multiplicity
  _atom_site_fract_x
  _atom_site_fract_y
  _atom_site_fract_z
  _atom_site_occupancy
  C   C1        1.0  0.04645  0.65168  0.31254  1.0000
  C   C2        1.0  0.01445  0.63613  0.31268  1.0000
  C   C3        1.0  0.00383  0.60432  0.31262  1.0000
  N   N1        1.0  0.02968  0.60178  0.31256  1.0000
  C   C4        1.0  0.05609  0.62972  0.31270  1.0000
  C   C5        1.0  0.08748  0.63670  0.31285  1.0000
  C   C6        1.0  0.09722  0.61434  0.31280  1.0000
  N   N2        1.0  0.07927  0.58314  0.31268  1.0000
  C   C7        1.0  0.09637  0.56896  0.31298  1.0000
  C   C8        1.0  0.12734  0.59265  0.31308  1.0000
  C   C9        1.0  0.12786  0.62060  0.31326  1.0000
  C   C10       1.0  0.08562  0.53665  0.31306  1.0000
  C   C11       1.0  0.05392  0.51296  0.31273  1.0000
  N   N3        1.0  0.02807  0.51549  0.31263  1.0000
  C   C12       1.0  0.00166  0.48756  0.31279  1.0000
  C   C13       1.0  0.01131  0.46560  0.31266  1.0000
  C   C14       1.0  0.04330  0.48115  0.31283  1.0000
  C   C15       1.0  0.97027  0.48058  0.31293  1.0000
  C   C16       1.0  0.96054  0.50294  0.31280  1.0000
  N   N4        1.0  0.97849  0.53414  0.31263  1.0000
  C   C17       1.0  0.96139  0.54831  0.31289  1.0000
  C   C18       1.0  0.93042  0.52462  0.31300  1.0000
  C   C19       1.0  0.92990  0.49667  0.31324  1.0000
  C   C20       1.0  0.97214  0.58063  0.31294  1.0000
  C   C21       1.0  0.94927  0.58979  0.31345  1.0000
  C   C22       1.0  0.90021  0.60334  0.31319  1.0000
  C   C23       1.0  0.91426  0.60218  0.23258  1.0000
  C   C24       1.0  0.93859  0.59554  0.23251  1.0000
  C   C25       1.0  0.94669  0.44880  0.31384  1.0000
  C   C26       1.0  0.89776  0.38612  0.31669  1.0000
  C   C27       1.0  0.90809  0.40243  0.23513  1.0000
  C   C28       1.0  0.93237  0.43343  0.23367  1.0000
  C   C29       1.0  0.10847  0.52747  0.31354  1.0000
  C   C30       1.0  0.11906  0.52148  0.23262  1.0000
  C   C31       1.0  0.14327  0.51466  0.23268  1.0000
  C   C32       1.0  0.15723  0.51348  0.31327  1.0000
  C   C33       1.0  0.11107  0.66847  0.31371  1.0000
  C   C34       1.0  0.12549  0.68375  0.23354  1.0000
  C   C35       1.0  0.16025  0.73104  0.31656  1.0000
  C   C36       1.0  0.14988  0.71469  0.23499  1.0000
  H   H1        1.0  0.16047  0.72483  0.17621  1.0000
  H   H2        1.0  0.11877  0.67226  0.17388  1.0000
  H   H3        1.0  0.06013  0.67527  0.31246  1.0000
  H   H4        1.0  0.00138  0.64671  0.31285  1.0000
  H   H5        1.0  0.02932  0.58234  0.31269  1.0000
  H   H6        1.0  0.02843  0.53494  0.31278  1.0000
  H   H7        1.0  0.14758  0.64182  0.31362  1.0000
  H   H8        1.0  0.14662  0.59038  0.31321  1.0000
  H   H9        1.0  0.10980  0.52284  0.17308  1.0000
  H   H10       1.0  0.15105  0.51114  0.17300  1.0000
  H   H11       1.0  0.05637  0.47057  0.31306  1.0000
  H   H12       1.0  0.99762  0.44201  0.31264  1.0000
  H   H13       1.0  0.91113  0.52689  0.31316  1.0000
  H   H14       1.0  0.91018  0.47545  0.31366  1.0000
  H   H15       1.0  0.93911  0.44487  0.17400  1.0000
  H   H16       1.0  0.89763  0.39220  0.17633  1.0000
  H   H17       1.0  0.94789  0.59414  0.17295  1.0000
  H   H18       1.0  0.90640  0.60548  0.17288  1.0000
  N   N5        1.0  0.87393  0.35743  0.32387  1.0000
  N   N6        1.0  0.18148  0.50925  0.30703  1.0000
  N   N7        1.0  0.18430  0.75960  0.32381  1.0000
  N   N8        1.0  0.87579  0.60728  0.30697  1.0000
  C   C37       1.0  0.43495  0.48132  0.31163  1.0000
  C   C38       1.0  0.45050  0.46488  0.31176  1.0000
  C   C39       1.0  0.48231  0.48607  0.31160  1.0000
  N   N9        1.0  0.48484  0.51445  0.31149  1.0000
  C   C40       1.0  0.45691  0.51292  0.31170  1.0000
  C   C41       1.0  0.44992  0.53733  0.31182  1.0000
  C   C42       1.0  0.47228  0.56943  0.31171  1.0000
  N   N10       1.0  0.50348  0.58268  0.31160  1.0000
  C   C43       1.0  0.51765  0.61396  0.31186  1.0000
  C   C44       1.0  0.49397  0.62124  0.31192  1.0000
  C   C45       1.0  0.46602  0.59381  0.31212  1.0000
  C   C46       1.0  0.54997  0.63553  0.31197  1.0000
  C   C47       1.0  0.57366  0.62752  0.31170  1.0000
  N   N11       1.0  0.57113  0.59914  0.31153  1.0000
  C   C48       1.0  0.59906  0.60067  0.31177  1.0000
  C   C49       1.0  0.62102  0.63228  0.31178  1.0000
  C   C50       1.0  0.60547  0.64872  0.31194  1.0000
  C   C51       1.0  0.60605  0.57626  0.31182  1.0000
  C   C52       1.0  0.58369  0.54417  0.31165  1.0000
  N   N12       1.0  0.55249  0.53091  0.31153  1.0000
  C   C53       1.0  0.53832  0.49964  0.31176  1.0000
  C   C54       1.0  0.56201  0.49236  0.31181  1.0000
  C   C55       1.0  0.58996  0.51979  0.31202  1.0000
  C   C56       1.0  0.50600  0.47807  0.31186  1.0000
  C   C57       1.0  0.49685  0.44604  0.31238  1.0000
  C   C58       1.0  0.48332  0.38344  0.31216  1.0000
  C   C59       1.0  0.48446  0.39856  0.23154  1.0000
  C   C60       1.0  0.49107  0.42952  0.23146  1.0000
  C   C61       1.0  0.63783  0.58446  0.31284  1.0000
  C   C62       1.0  0.70052  0.59825  0.31589  1.0000
  C   C63       1.0  0.68423  0.59218  0.23429  1.0000
  C   C64       1.0  0.65324  0.58545  0.23272  1.0000
  C   C65       1.0  0.55914  0.66756  0.31247  1.0000
  C   C66       1.0  0.56516  0.68407  0.23156  1.0000
  C   C67       1.0  0.57198  0.71509  0.23163  1.0000
  C   C68       1.0  0.57311  0.73030  0.31221  1.0000
  C   C69       1.0  0.41815  0.52915  0.31278  1.0000
  C   C70       1.0  0.40284  0.52819  0.23265  1.0000
  C   C71       1.0  0.35560  0.51581  0.31585  1.0000
  C   C72       1.0  0.37191  0.52169  0.23423  1.0000
  H   H19       1.0  0.36174  0.52203  0.17547  1.0000
  H   H20       1.0  0.41430  0.53288  0.17296  1.0000
  H   H21       1.0  0.41136  0.47141  0.31162  1.0000
  H   H22       1.0  0.43993  0.44123  0.31198  1.0000
  H   H23       1.0  0.50429  0.53354  0.31151  1.0000
  H   H24       1.0  0.55168  0.58006  0.31147  1.0000
  H   H25       1.0  0.44479  0.59230  0.31249  1.0000
  H   H26       1.0  0.49623  0.64279  0.31204  1.0000
  H   H27       1.0  0.56381  0.67339  0.17202  1.0000
  H   H28       1.0  0.57550  0.72634  0.17195  1.0000
  H   H29       1.0  0.61605  0.67236  0.31225  1.0000
  H   H30       1.0  0.64461  0.64218  0.31182  1.0000
  H   H31       1.0  0.55975  0.47081  0.31188  1.0000
  H   H32       1.0  0.61119  0.52130  0.31238  1.0000
  H   H33       1.0  0.64182  0.58070  0.17301  1.0000
  H   H34       1.0  0.69450  0.59191  0.17551  1.0000
  H   H35       1.0  0.49247  0.44015  0.17190  1.0000
  H   H36       1.0  0.48112  0.38731  0.17186  1.0000
  N   N13       1.0  0.72920  0.60310  0.32322  1.0000
  N   N14       1.0  0.57735  0.75878  0.30599  1.0000
  N   N15       1.0  0.32703  0.51129  0.32320  1.0000
  N   N16       1.0  0.47940  0.35508  0.30595  1.0000
  C   C73       1.0  0.60531  0.04019  0.31066  1.0000
  C   C74       1.0  0.62175  0.07219  0.31089  1.0000
  C   C75       1.0  0.60055  0.08281  0.31074  1.0000
  N   N17       1.0  0.57217  0.05695  0.31053  1.0000
  C   C76       1.0  0.57370  0.03054  0.31070  1.0000
  C   C77       1.0  0.54930  0.99915  0.31078  1.0000
  C   C78       1.0  0.51720  0.98941  0.31073  1.0000
  N   N18       1.0  0.50394  0.00735  0.31067  1.0000
  C   C79       1.0  0.47267  0.99025  0.31104  1.0000
  C   C80       1.0  0.46539  0.95928  0.31113  1.0000
  C   C81       1.0  0.49282  0.95876  0.31123  1.0000
  C   C82       1.0  0.45109  0.00099  0.31122  1.0000
  C   C83       1.0  0.45909  0.03268  0.31086  1.0000
  N   N19       1.0  0.48747  0.05853  0.31062  1.0000
  C   C84       1.0  0.48594  0.08494  0.31083  1.0000
  C   C85       1.0  0.45434  0.07529  0.31085  1.0000
  C   C86       1.0  0.43790  0.04329  0.31110  1.0000
  C   C87       1.0  0.51035  0.11633  0.31089  1.0000
  C   C88       1.0  0.54244  0.12608  0.31077  1.0000
  N   N20       1.0  0.55570  0.10813  0.31065  1.0000
  C   C89       1.0  0.58697  0.12524  0.31097  1.0000
  C   C90       1.0  0.59425  0.15620  0.31109  1.0000
  C   C91       1.0  0.56682  0.15672  0.31122  1.0000
  C   C92       1.0  0.60855  0.11449  0.31111  1.0000
  C   C93       1.0  0.64058  0.13737  0.31188  1.0000
  C   C94       1.0  0.70317  0.18646  0.31222  1.0000
  C   C95       1.0  0.68813  0.17246  0.23146  1.0000
  C   C96       1.0  0.65717  0.14810  0.23110  1.0000
  C   C97       1.0  0.50214  0.13991  0.31189  1.0000
  C   C98       1.0  0.48837  0.18882  0.31494  1.0000
  C   C99       1.0  0.49443  0.17851  0.23333  1.0000
  C   C100      1.0  0.50115  0.15424  0.23177  1.0000
  C   C101      1.0  0.41906  0.97813  0.31198  1.0000
  C   C102      1.0  0.40248  0.96748  0.23121  1.0000
  C   C103      1.0  0.37145  0.94328  0.23157  1.0000
  C   C104      1.0  0.35632  0.92935  0.31230  1.0000
  C   C105      1.0  0.55748  0.97556  0.31175  1.0000
  C   C106      1.0  0.55844  0.96112  0.23164  1.0000
  C   C107      1.0  0.57082  0.92635  0.31484  1.0000
  C   C108      1.0  0.56495  0.93671  0.23322  1.0000
  H   H37       1.0  0.56461  0.92613  0.17446  1.0000
  H   H38       1.0  0.55376  0.96784  0.17193  1.0000
  H   H39       1.0  0.61522  0.02651  0.31065  1.0000
  H   H40       1.0  0.64539  0.08526  0.31118  1.0000
  H   H41       1.0  0.55308  0.05731  0.31057  1.0000
  H   H42       1.0  0.50656  0.05818  0.31059  1.0000
  H   H43       1.0  0.49433  0.93905  0.31160  1.0000
  H   H44       1.0  0.44384  0.93999  0.31133  1.0000
  H   H45       1.0  0.41309  0.97673  0.17158  1.0000
  H   H46       1.0  0.36014  0.93546  0.17200  1.0000
  H   H47       1.0  0.41425  0.03023  0.31146  1.0000
  H   H48       1.0  0.44443  0.08897  0.31091  1.0000
  H   H49       1.0  0.61580  0.17550  0.31123  1.0000
  H   H50       1.0  0.56530  0.17644  0.31161  1.0000
  H   H51       1.0  0.50592  0.14753  0.17206  1.0000
  H   H52       1.0  0.49472  0.18900  0.17456  1.0000
  H   H53       1.0  0.64660  0.13885  0.17144  1.0000
  H   H54       1.0  0.69944  0.18035  0.17188  1.0000
  N   N21       1.0  0.48351  0.21266  0.32225  1.0000
  N   N22       1.0  0.32783  0.90512  0.30636  1.0000
  N   N23       1.0  0.57534  0.90232  0.32220  1.0000
  N   N24       1.0  0.73155  0.21088  0.30629  1.0000
  C   C109      1.0  0.22925  0.49697  0.24990  1.0000
  N   N25       1.0  0.25609  0.49762  0.22932  1.0000
  C   C110      1.0  0.27747  0.50187  0.29224  1.0000
  H   H55       1.0  0.21427  0.49389  0.19926  1.0000
  C   C111      1.0  0.30492  0.50367  0.26695  1.0000
  H   H56       1.0  0.30775  0.49980  0.20356  1.0000
  C   C112      1.0  0.58965  0.81877  0.24890  1.0000
  N   N26       1.0  0.58901  0.84495  0.22833  1.0000
  C   C113      1.0  0.58476  0.86214  0.29124  1.0000
  H   H57       1.0  0.59275  0.80682  0.19827  1.0000
  C   C114      1.0  0.58299  0.88779  0.26596  1.0000
  H   H58       1.0  0.58686  0.89442  0.20258  1.0000
  C   C115      1.0  0.26775  0.85737  0.24985  1.0000
  N   N27       1.0  0.24155  0.83052  0.22951  1.0000
  C   C116      1.0  0.22444  0.80916  0.29256  1.0000
  H   H59       1.0  0.27964  0.87234  0.19911  1.0000
  C   C117      1.0  0.19876  0.78171  0.26748  1.0000
  H   H60       1.0  0.19205  0.77887  0.20418  1.0000
  C   C118      1.0  0.82757  0.61878  0.24985  1.0000
  N   N28       1.0  0.80053  0.61768  0.22929  1.0000
  C   C119      1.0  0.77900  0.61312  0.29220  1.0000
  H   H61       1.0  0.84267  0.62209  0.19923  1.0000
  C   C120      1.0  0.75139  0.61094  0.26695  1.0000
  H   H62       1.0  0.74854  0.61474  0.20359  1.0000
  C   C121      1.0  0.46786  0.29528  0.24887  1.0000
  N   N29       1.0  0.46894  0.26931  0.22831  1.0000
  C   C122      1.0  0.47347  0.25238  0.29123  1.0000
  H   H63       1.0  0.46460  0.30705  0.19822  1.0000
  C   C123      1.0  0.47567  0.22694  0.26597  1.0000
  H   H64       1.0  0.47188  0.22023  0.20261  1.0000
  C   C124      1.0  0.79143  0.25908  0.24979  1.0000
  N   N30       1.0  0.81742  0.28612  0.22948  1.0000
  C   C125      1.0  0.83426  0.30763  0.29255  1.0000
  H   H65       1.0  0.77974  0.24400  0.19906  1.0000
  C   C126      1.0  0.85973  0.33525  0.26752  1.0000
  H   H66       1.0  0.86653  0.33812  0.20424  1.0000
  C   C127      1.0  0.93548  0.59118  0.39440  1.0000
  C   C128      1.0  0.91116  0.59783  0.39424  1.0000
  C   C129      1.0  0.93645  0.43261  0.39534  1.0000
  C   C130      1.0  0.91216  0.40163  0.39657  1.0000
  C   C131      1.0  0.14641  0.51928  0.39429  1.0000
  C   C132      1.0  0.12222  0.52614  0.39446  1.0000
  C   C133      1.0  0.12133  0.68470  0.39522  1.0000
  C   C134      1.0  0.14575  0.71563  0.39644  1.0000
  H   H67       1.0  0.15313  0.72673  0.45649  1.0000
  H   H68       1.0  0.11150  0.67395  0.45423  1.0000
  H   H69       1.0  0.11529  0.53097  0.45371  1.0000
  H   H70       1.0  0.15660  0.51954  0.45357  1.0000
  H   H71       1.0  0.94624  0.44342  0.45435  1.0000
  H   H72       1.0  0.90483  0.39053  0.45660  1.0000
  H   H73       1.0  0.90088  0.59754  0.45353  1.0000
  H   H74       1.0  0.94242  0.58646  0.45365  1.0000
  C   C135      1.0  0.49548  0.43096  0.39334  1.0000
  C   C136      1.0  0.48887  0.40000  0.39319  1.0000
  C   C137      1.0  0.65398  0.59048  0.39439  1.0000
  C   C138      1.0  0.68497  0.59718  0.39572  1.0000
  C   C139      1.0  0.56730  0.71375  0.39323  1.0000
  C   C140      1.0  0.56046  0.68272  0.39339  1.0000
  C   C141      1.0  0.40196  0.52328  0.39434  1.0000
  C   C142      1.0  0.37103  0.51678  0.39567  1.0000
  H   H75       1.0  0.35995  0.51313  0.45576  1.0000
  H   H76       1.0  0.41272  0.52427  0.45331  1.0000
  H   H77       1.0  0.55559  0.67101  0.45263  1.0000
  H   H78       1.0  0.56702  0.72375  0.45249  1.0000
  H   H79       1.0  0.64315  0.58949  0.45337  1.0000
  H   H80       1.0  0.69604  0.60099  0.45580  1.0000
  H   H81       1.0  0.48915  0.39007  0.45249  1.0000
  H   H82       1.0  0.50023  0.44270  0.45257  1.0000
  C   C143      1.0  0.65558  0.15110  0.39298  1.0000
  C   C144      1.0  0.68655  0.17544  0.39312  1.0000
  C   C145      1.0  0.49613  0.15014  0.39344  1.0000
  C   C146      1.0  0.48941  0.17441  0.39476  1.0000
  C   C147      1.0  0.37294  0.94025  0.39318  1.0000
  C   C148      1.0  0.40399  0.96443  0.39304  1.0000
  C   C149      1.0  0.56335  0.96532  0.39331  1.0000
  C   C150      1.0  0.56984  0.94089  0.39466  1.0000
  H   H83       1.0  0.57350  0.93354  0.45475  1.0000
  H   H84       1.0  0.56236  0.97517  0.45229  1.0000
  H   H85       1.0  0.41575  0.97139  0.45219  1.0000
  H   H86       1.0  0.36302  0.93007  0.45254  1.0000
  H   H87       1.0  0.49709  0.14033  0.45241  1.0000
  H   H88       1.0  0.48560  0.18173  0.45484  1.0000
  H   H89       1.0  0.69641  0.18566  0.45251  1.0000
  H   H90       1.0  0.64379  0.14411  0.45213  1.0000
  N   N31       1.0  0.27150  0.50557  0.37855  1.0000
  C   C151      1.0  0.24504  0.50504  0.40340  1.0000
  C   C152      1.0  0.22262  0.50105  0.33906  1.0000
  H   H91       1.0  0.24217  0.50837  0.46922  1.0000
  C   C153      1.0  0.19634  0.50222  0.36363  1.0000
  H   H92       1.0  0.18976  0.49887  0.42715  1.0000
  N   N32       1.0  0.58104  0.85256  0.37755  1.0000
  C   C154      1.0  0.58155  0.82664  0.40239  1.0000
  C   C155      1.0  0.58556  0.80815  0.33806  1.0000
  H   H93       1.0  0.57823  0.82051  0.46822  1.0000
  C   C156      1.0  0.58438  0.78072  0.36261  1.0000
  H   H94       1.0  0.58770  0.77755  0.42614  1.0000
  N   N33       1.0  0.23414  0.81514  0.37877  1.0000
  C   C157      1.0  0.26008  0.84160  0.40337  1.0000
  C   C158      1.0  0.27849  0.86401  0.33889  1.0000
  H   H95       1.0  0.26631  0.84449  0.46912  1.0000
  C   C159      1.0  0.30596  0.89030  0.36319  1.0000
  H   H96       1.0  0.30921  0.89688  0.42669  1.0000
  N   N34       1.0  0.78500  0.60958  0.37851  1.0000
  C   C160      1.0  0.81163  0.61054  0.40333  1.0000
  C   C161      1.0  0.83424  0.61487  0.33900  1.0000
  H   H97       1.0  0.81454  0.60733  0.46915  1.0000
  C   C162      1.0  0.86074  0.61416  0.36355  1.0000
  H   H98       1.0  0.86724  0.61757  0.42709  1.0000
  N   N35       1.0  0.47701  0.26201  0.37753  1.0000
  C   C163      1.0  0.47605  0.28772  0.40235  1.0000
  C   C164      1.0  0.47177  0.30596  0.33802  1.0000
  H   H99       1.0  0.47930  0.29393  0.46816  1.0000
  C   C165      1.0  0.47254  0.33322  0.36255  1.0000
  H   H100      1.0  0.46909  0.33637  0.42606  1.0000
  N   N36       1.0  0.82452  0.30159  0.37875  1.0000
  C   C166      1.0  0.79878  0.27494  0.40333  1.0000
  C   C167      1.0  0.78064  0.25237  0.33884  1.0000
  H   H101      1.0  0.79249  0.27201  0.46908  1.0000
  C   C168      1.0  0.75335  0.22588  0.36310  1.0000
  H   H102      1.0  0.75013  0.21932  0.42658  1.0000
