data_image0
_chemical_formula_structural       C3NC3NC5NC5NC36H26C4H4CNC2OH3NHCNC2OH3NHC16H20NC2HNHNC2HNH
_chemical_formula_sum              "C82 N12 H62 O2"
_cell_length_a       34.0344
_cell_length_b       34.0324
_cell_length_c       15.0181
_cell_angle_alpha    90
_cell_angle_beta     90
_cell_angle_gamma    90.0777

_space_group_name_H-M_alt    "P 1"
_space_group_IT_number       1

loop_
  _space_group_symop_operation_xyz
  'x, y, z'

loop_
  _atom_site_type_symbol
  _atom_site_label
  _atom_site_symmetry_multiplicity
  _atom_site_fract_x
  _atom_site_fract_y
  _atom_site_fract_z
  _atom_site_occupancy
  C   C1        1.0  0.07910  0.09940  0.33011  1.0000
  C   C2        1.0  0.10683  0.06985  0.32956  1.0000
  C   C3        1.0  0.08714  0.03379  0.32887  1.0000
  N   N1        1.0  0.04837  0.04278  0.32918  1.0000
  C   C4        1.0  0.04185  0.08205  0.32983  1.0000
  C   C5        1.0  0.00567  0.10291  0.33016  1.0000
  C   C6        1.0  0.96785  0.08536  0.33081  1.0000
  N   N2        1.0  0.95909  0.04665  0.33126  1.0000
  C   C7        1.0  0.91991  0.04034  0.33110  1.0000
  C   C8        1.0  0.90238  0.07743  0.33088  1.0000
  C   C9        1.0  0.93195  0.10520  0.33057  1.0000
  C   C10       1.0  0.90000  0.00368  0.33055  1.0000
  C   C11       1.0  0.91853  0.96627  0.32992  1.0000
  N   N3        1.0  0.95731  0.95728  0.33044  1.0000
  C   C12       1.0  0.96383  0.91801  0.32880  1.0000
  C   C13       1.0  0.92658  0.90067  0.32753  1.0000
  C   C14       1.0  0.89885  0.93021  0.32812  1.0000
  C   C15       1.0  0.00000  0.89713  0.32820  1.0000
  C   C16       1.0  0.03782  0.91469  0.32791  1.0000
  N   N4        1.0  0.04657  0.95340  0.32800  1.0000
  C   C17       1.0  0.08575  0.95972  0.32771  1.0000
  C   C18       1.0  0.10328  0.92261  0.32724  1.0000
  C   C19       1.0  0.07371  0.89483  0.32742  1.0000
  C   C20       1.0  0.10566  0.99638  0.32807  1.0000
  C   C21       1.0  0.14742  0.99534  0.32840  1.0000
  C   C22       1.0  0.23087  0.98949  0.32924  1.0000
  C   C23       1.0  0.20975  0.99171  0.24811  1.0000
  C   C24       1.0  0.16852  0.99449  0.24755  1.0000
  C   C25       1.0  0.27253  0.98486  0.32959  1.0000
  C   C26       1.0  0.29685  0.00729  0.27236  1.0000
  C   C27       1.0  0.33781  0.00189  0.27141  1.0000
  C   C28       1.0  0.35576  0.97403  0.32801  1.0000
  C   C29       1.0  0.99823  0.85539  0.32819  1.0000
  C   C30       1.0  0.99157  0.77197  0.32841  1.0000
  C   C31       1.0  0.99432  0.79317  0.24746  1.0000
  C   C32       1.0  0.99754  0.83438  0.24720  1.0000
  C   C33       1.0  0.98678  0.73031  0.32848  1.0000
  C   C34       1.0  0.97592  0.64704  0.32685  1.0000
  C   C35       1.0  0.00402  0.66503  0.27080  1.0000
  C   C36       1.0  0.00943  0.70601  0.27178  1.0000
  C   C37       1.0  0.85826  0.00468  0.32778  1.0000
  C   C38       1.0  0.83857  0.00692  0.24526  1.0000
  C   C39       1.0  0.79734  0.00887  0.24231  1.0000
  C   C40       1.0  0.77471  0.00868  0.32149  1.0000
  C   C41       1.0  0.73291  0.01170  0.31802  1.0000
  C   C42       1.0  0.64946  0.01995  0.30659  1.0000
  C   C43       1.0  0.66983  0.99413  0.24920  1.0000
  C   C44       1.0  0.71083  0.98996  0.25507  1.0000
  C   C45       1.0  0.00739  0.14464  0.32773  1.0000
  C   C46       1.0  0.01022  0.16440  0.24538  1.0000
  C   C47       1.0  0.01189  0.22819  0.32197  1.0000
  C   C48       1.0  0.01244  0.20562  0.24269  1.0000
  C   C49       1.0  0.01486  0.27001  0.31878  1.0000
  C   C50       1.0  0.99342  0.29205  0.25535  1.0000
  C   C51       1.0  0.99744  0.33310  0.24999  1.0000
  C   C52       1.0  0.02282  0.35355  0.30836  1.0000
  H   H1        1.0  0.98198  0.34795  0.20225  1.0000
  H   H2        1.0  0.97449  0.27842  0.21229  1.0000
  H   H3        1.0  0.01537  0.21895  0.18197  1.0000
  H   H4        1.0  0.01102  0.14891  0.18696  1.0000
  H   H5        1.0  0.08561  0.12873  0.33082  1.0000
  H   H6        1.0  0.13651  0.07447  0.32962  1.0000
  H   H7        1.0  0.02780  0.02347  0.32838  1.0000
  H   H8        1.0  0.97787  0.97658  0.33208  1.0000
  H   H9        1.0  0.92753  0.13490  0.33000  1.0000
  H   H10       1.0  0.87302  0.08373  0.33057  1.0000
  H   H11       1.0  0.85412  0.00760  0.18691  1.0000
  H   H12       1.0  0.78408  0.01149  0.18146  1.0000
  H   H13       1.0  0.86917  0.92558  0.32709  1.0000
  H   H14       1.0  0.92006  0.87135  0.32588  1.0000
  H   H15       1.0  0.13263  0.91631  0.32699  1.0000
  H   H16       1.0  0.07812  0.86513  0.32727  1.0000
  H   H17       1.0  0.99877  0.84895  0.18763  1.0000
  H   H18       1.0  0.99283  0.77890  0.18758  1.0000
  H   H19       1.0  0.03045  0.71790  0.23113  1.0000
  H   H20       1.0  0.02081  0.64833  0.22885  1.0000
  H   H21       1.0  0.15400  0.99521  0.18787  1.0000
  H   H22       1.0  0.22408  0.98995  0.18834  1.0000
  H   H23       1.0  0.35452  0.01848  0.22898  1.0000
  H   H24       1.0  0.28497  0.02808  0.23116  1.0000
  H   H25       1.0  0.72442  0.97074  0.21268  1.0000
  H   H26       1.0  0.65495  0.97844  0.20182  1.0000
  C   C53       1.0  0.97005  0.60376  0.32424  1.0000
  C   C54       1.0  0.39901  0.96810  0.32526  1.0000
  C   C55       1.0  0.02776  0.39682  0.29985  1.0000
  C   C56       1.0  0.60625  0.02505  0.29751  1.0000
  H   H27       1.0  0.96016  0.59624  0.25706  1.0000
  H   H28       1.0  0.40640  0.95792  0.25824  1.0000
  H   H29       1.0  0.59992  0.03397  0.22921  1.0000
  H   H30       1.0  0.03707  0.40333  0.23189  1.0000
  C   C57       1.0  0.99477  0.45962  0.32242  1.0000
  N   N5        1.0  0.99365  0.52399  0.26119  1.0000
  C   C58       1.0  0.98907  0.48472  0.24795  1.0000
  C   C59       1.0  0.97663  0.47133  0.15822  1.0000
  O   O1        1.0  0.00533  0.44738  0.11489  1.0000
  H   H31       1.0  0.96998  0.49646  0.11529  1.0000
  H   H32       1.0  0.94956  0.45434  0.16444  1.0000
  H   H33       1.0  0.02870  0.46366  0.10308  1.0000
  N   N6        1.0  0.99110  0.41829  0.32255  1.0000
  H   H34       1.0  0.96774  0.40975  0.28405  1.0000
  C   C60       1.0  0.54319  0.99251  0.32132  1.0000
  N   N7        1.0  0.47869  0.99150  0.26077  1.0000
  C   C61       1.0  0.51791  0.98678  0.24716  1.0000
  C   C62       1.0  0.53102  0.97416  0.15738  1.0000
  O   O2        1.0  0.55490  0.00280  0.11341  1.0000
  H   H35       1.0  0.50576  0.96741  0.11488  1.0000
  H   H36       1.0  0.54798  0.94712  0.16363  1.0000
  H   H37       1.0  0.53863  0.02614  0.10162  1.0000
  N   N8        1.0  0.58448  0.98862  0.32113  1.0000
  H   H38       1.0  0.59277  0.96504  0.28309  1.0000
  C   C63       1.0  0.16815  0.99373  0.40967  1.0000
  C   C64       1.0  0.20935  0.99084  0.40993  1.0000
  C   C65       1.0  0.33166  0.95163  0.38536  1.0000
  C   C66       1.0  0.29070  0.95694  0.38605  1.0000
  C   C67       1.0  0.99599  0.83459  0.40929  1.0000
  C   C68       1.0  0.99269  0.79340  0.40924  1.0000
  C   C69       1.0  0.95857  0.71211  0.38426  1.0000
  C   C70       1.0  0.95325  0.67113  0.38358  1.0000
  C   C71       1.0  0.79483  0.00625  0.40391  1.0000
  C   C72       1.0  0.83608  0.00424  0.40716  1.0000
  C   C73       1.0  0.71237  0.03743  0.37561  1.0000
  C   C74       1.0  0.67133  0.04151  0.36998  1.0000
  C   C75       1.0  0.00669  0.16674  0.40721  1.0000
  C   C76       1.0  0.00894  0.20800  0.40422  1.0000
  C   C77       1.0  0.04410  0.33171  0.37217  1.0000
  C   C78       1.0  0.04015  0.29062  0.37736  1.0000
  H   H39       1.0  0.06309  0.34549  0.41479  1.0000
  H   H40       1.0  0.05689  0.27579  0.42284  1.0000
  H   H41       1.0  0.00793  0.22320  0.46296  1.0000
  H   H42       1.0  0.00460  0.15297  0.46763  1.0000
  H   H43       1.0  0.84981  0.00265  0.46771  1.0000
  H   H44       1.0  0.77957  0.00555  0.46260  1.0000
  H   H45       1.0  0.99636  0.84928  0.46877  1.0000
  H   H46       1.0  0.99127  0.77918  0.46919  1.0000
  H   H47       1.0  0.93235  0.65909  0.42426  1.0000
  H   H48       1.0  0.94095  0.72862  0.42482  1.0000
  H   H49       1.0  0.27416  0.93944  0.42694  1.0000
  H   H50       1.0  0.34367  0.93089  0.42645  1.0000
  H   H51       1.0  0.22352  0.98978  0.46998  1.0000
  H   H52       1.0  0.15339  0.99418  0.46906  1.0000
  H   H53       1.0  0.72725  0.05438  0.42073  1.0000
  H   H54       1.0  0.65760  0.06081  0.41188  1.0000
  H   H55       1.0  0.94692  0.59466  0.37063  1.0000
  H   H56       1.0  0.40808  0.94516  0.37208  1.0000
  H   H57       1.0  0.59615  0.04883  0.34090  1.0000
  H   H58       1.0  0.05122  0.40701  0.34406  1.0000
  N   N9        1.0  0.00387  0.47630  0.40200  1.0000
  C   C79       1.0  0.00823  0.51553  0.41386  1.0000
  C   C80       1.0  0.00295  0.54083  0.34048  1.0000
  H   H59       1.0  0.01514  0.52618  0.47549  1.0000
  N   N10       1.0  0.00693  0.58226  0.34520  1.0000
  H   H60       1.0  0.01640  0.59062  0.40739  1.0000
  N   N11       1.0  0.52672  0.00179  0.40100  1.0000
  C   C81       1.0  0.48755  0.00632  0.41324  1.0000
  C   C82       1.0  0.46207  0.00099  0.34017  1.0000
  H   H61       1.0  0.47707  0.01334  0.47492  1.0000
  N   N12       1.0  0.42068  0.00505  0.34530  1.0000
  H   H62       1.0  0.41250  0.01474  0.40742  1.0000
