data_image0
_chemical_formula_structural       C3NC3NC5NC4NC35H25C21H18C16H16NCHNCHCNC2HNCHNCHCNC2HC18H17C3NC3NC2NC5NC34H24C3NC3NC5NC5NC36H26C2NC2NC2NC2N2C2NC2NC2NC2NC2N2C2N
_chemical_formula_sum              "C234 N30 H132"
_cell_length_a       58.584
_cell_length_b       58.584
_cell_length_c       14.9835
_cell_angle_alpha    89.773
_cell_angle_beta     90.227
_cell_angle_gamma    120

_space_group_name_H-M_alt    "P 1"
_space_group_IT_number       1

loop_
  _space_group_symop_operation_xyz
  'x, y, z'

loop_
  _atom_site_type_symbol
  _atom_site_label
  _atom_site_symmetry_multiplicity
  _atom_site_fract_x
  _atom_site_fract_y
  _atom_site_fract_z
  _atom_site_occupancy
  C   C1        1.0  0.01949  0.48556  0.33386  1.0000
  C   C2        1.0  0.04670  0.49916  0.33277  1.0000
  C   C3        1.0  0.05532  0.52613  0.33152  1.0000
  N   N1        1.0  0.03309  0.52786  0.33182  1.0000
  C   C4        1.0  0.01087  0.50391  0.33322  1.0000
  C   C5        1.0  0.98404  0.49753  0.33354  1.0000
  C   C6        1.0  0.97535  0.51622  0.33235  1.0000
  N   N2        1.0  0.99026  0.54279  0.33174  1.0000
  C   C7        1.0  0.97535  0.55445  0.33069  1.0000
  C   C8        1.0  0.94915  0.53402  0.33041  1.0000
  C   C9        1.0  0.94915  0.51047  0.33184  1.0000
  C   C10       1.0  0.98404  0.58184  0.33022  1.0000
  C   C11       1.0  0.01087  0.60228  0.33132  1.0000
  N   N3        1.0  0.03309  0.60054  0.33174  1.0000
  C   C12       1.0  0.05532  0.62449  0.33326  1.0000
  C   C13       1.0  0.04670  0.64284  0.33384  1.0000
  C   C14       1.0  0.01949  0.62924  0.33259  1.0000
  C   C15       1.0  0.08215  0.63088  0.33372  1.0000
  N   N4        1.0  0.07593  0.58562  0.33202  1.0000
  C   C16       1.0  0.09083  0.57396  0.33096  1.0000
  C   C17       1.0  0.11703  0.59440  0.33058  1.0000
  C   C18       1.0  0.11703  0.61795  0.33200  1.0000
  C   C19       1.0  0.08214  0.54657  0.33054  1.0000
  C   C20       1.0  0.10192  0.53921  0.32908  1.0000
  C   C21       1.0  0.11061  0.53445  0.24719  1.0000
  C   C22       1.0  0.13141  0.52898  0.24527  1.0000
  C   C23       1.0  0.14414  0.52815  0.32484  1.0000
  C   C24       1.0  0.16636  0.52426  0.32247  1.0000
  C   C25       1.0  0.20933  0.53510  0.25954  1.0000
  C   C26       1.0  0.18673  0.53772  0.25931  1.0000
  C   C27       1.0  0.10191  0.65801  0.33622  1.0000
  C   C28       1.0  0.11367  0.67184  0.25669  1.0000
  C   C29       1.0  0.13427  0.69821  0.25984  1.0000
  C   C30       1.0  0.14371  0.71146  0.34232  1.0000
  C   C31       1.0  0.16560  0.73776  0.34561  1.0000
  C   C32       1.0  0.16794  0.75737  0.28473  1.0000
  C   C33       1.0  0.19014  0.78289  0.28584  1.0000
  C   C34       1.0  0.21062  0.78982  0.34872  1.0000
  C   C35       1.0  0.96428  0.58922  0.32868  1.0000
  C   C36       1.0  0.92248  0.60090  0.32452  1.0000
  C   C37       1.0  0.93482  0.59976  0.24485  1.0000
  C   C38       1.0  0.95543  0.59400  0.24674  1.0000
  C   C39       1.0  0.90056  0.60527  0.32225  1.0000
  C   C40       1.0  0.87991  0.59202  0.25967  1.0000
  C   C41       1.0  0.85766  0.59522  0.25984  1.0000
  C   C42       1.0  0.85509  0.61179  0.32267  1.0000
  C   C43       1.0  0.96426  0.47040  0.33596  1.0000
  C   C44       1.0  0.95216  0.45678  0.25647  1.0000
  C   C45       1.0  0.93137  0.43051  0.25963  1.0000
  C   C46       1.0  0.92204  0.41712  0.34209  1.0000
  C   C47       1.0  0.89985  0.39100  0.34546  1.0000
  C   C48       1.0  0.85416  0.33939  0.34848  1.0000
  C   C49       1.0  0.87438  0.34608  0.28512  1.0000
  C   C50       1.0  0.89691  0.37138  0.28406  1.0000
  H   H1        1.0  0.87292  0.33251  0.23924  1.0000
  H   H2        1.0  0.91121  0.37532  0.23771  1.0000
  H   H3        1.0  0.92241  0.42159  0.20096  1.0000
  H   H4        1.0  0.95794  0.46613  0.19601  1.0000
  H   H5        1.0  0.00810  0.46547  0.33470  1.0000
  H   H6        1.0  0.05808  0.49046  0.33312  1.0000
  H   H7        1.0  0.03309  0.54424  0.33076  1.0000
  H   H8        1.0  0.03310  0.58417  0.33068  1.0000
  H   H9        1.0  0.93256  0.49228  0.33217  1.0000
  H   H10       1.0  0.93257  0.53563  0.32972  1.0000
  H   H11       1.0  0.96365  0.59291  0.18786  1.0000
  H   H12       1.0  0.92887  0.60307  0.18427  1.0000
  H   H13       1.0  0.00811  0.63795  0.33287  1.0000
  H   H14       1.0  0.05808  0.66293  0.33477  1.0000
  H   H15       1.0  0.13362  0.63614  0.33221  1.0000
  H   H16       1.0  0.10775  0.66263  0.19617  1.0000
  H   H17       1.0  0.14295  0.70732  0.20109  1.0000
  H   H18       1.0  0.19115  0.79646  0.24038  1.0000
  H   H19       1.0  0.15342  0.75326  0.23879  1.0000
  H   H20       1.0  0.18586  0.55050  0.21455  1.0000
  H   H21       1.0  0.22395  0.54617  0.21500  1.0000
  H   H22       1.0  0.13728  0.52572  0.18471  1.0000
  H   H23       1.0  0.10218  0.53540  0.18835  1.0000
  H   H24       1.0  0.88035  0.57902  0.21525  1.0000
  H   H25       1.0  0.84280  0.58429  0.21571  1.0000
  C   C51       1.0  0.54462  0.51978  0.33341  1.0000
  C   C52       1.0  0.56506  0.51402  0.33305  1.0000
  C   C53       1.0  0.58861  0.53756  0.33442  1.0000
  C   C54       1.0  0.56466  0.67522  0.24995  1.0000
  C   C55       1.0  0.57012  0.70149  0.24800  1.0000
  C   C56       1.0  0.56402  0.77326  0.26215  1.0000
  C   C57       1.0  0.56138  0.74804  0.26201  1.0000
  C   C58       1.0  0.42731  0.54084  0.25876  1.0000
  C   C59       1.0  0.40094  0.53507  0.26157  1.0000
  C   C60       1.0  0.34176  0.50950  0.28581  1.0000
  C   C61       1.0  0.31623  0.50616  0.28649  1.0000
  C   C62       1.0  0.30924  0.51963  0.34902  1.0000
  C   C63       1.0  0.49932  0.43412  0.24763  1.0000
  C   C64       1.0  0.50508  0.46049  0.24951  1.0000
  C   C65       1.0  0.50709  0.38693  0.26250  1.0000
  C   C66       1.0  0.50389  0.36148  0.26267  1.0000
  C   C67       1.0  0.64224  0.59442  0.25855  1.0000
  C   C68       1.0  0.66851  0.59990  0.26139  1.0000
  C   C69       1.0  0.75971  0.61364  0.34881  1.0000
  C   C70       1.0  0.75296  0.62732  0.28579  1.0000
  C   C71       1.0  0.72766  0.62455  0.28516  1.0000
  H   H26       1.0  0.76649  0.63954  0.23981  1.0000
  H   H27       1.0  0.72367  0.63502  0.23902  1.0000
  H   H28       1.0  0.67739  0.60002  0.20257  1.0000
  H   H29       1.0  0.63285  0.59101  0.19818  1.0000
  H   H30       1.0  0.60680  0.53916  0.33474  1.0000
  H   H31       1.0  0.50619  0.46991  0.19063  1.0000
  H   H32       1.0  0.49602  0.42498  0.18705  1.0000
  H   H33       1.0  0.46113  0.46905  0.33554  1.0000
  H   H34       1.0  0.43657  0.54422  0.19835  1.0000
  H   H35       1.0  0.39186  0.53470  0.20267  1.0000
  H   H36       1.0  0.30271  0.49367  0.24098  1.0000
  H   H37       1.0  0.34591  0.49915  0.24012  1.0000
  H   H38       1.0  0.54860  0.73448  0.21724  1.0000
  H   H39       1.0  0.55291  0.77689  0.21771  1.0000
  H   H40       1.0  0.57338  0.71073  0.18743  1.0000
  H   H41       1.0  0.56368  0.66594  0.19111  1.0000
  H   H42       1.0  0.52008  0.40046  0.21805  1.0000
  H   H43       1.0  0.51481  0.35764  0.21850  1.0000
  C   C72       1.0  0.42400  0.98860  0.25135  1.0000
  C   C73       1.0  0.39773  0.96779  0.24890  1.0000
  C   C74       1.0  0.32596  0.88986  0.26155  1.0000
  C   C75       1.0  0.35117  0.91245  0.26189  1.0000
  C   C76       1.0  0.55824  0.98549  0.26141  1.0000
  C   C77       1.0  0.56404  0.96491  0.26423  1.0000
  C   C78       1.0  0.58959  0.93123  0.28852  1.0000
  C   C79       1.0  0.59292  0.90904  0.28922  1.0000
  C   C80       1.0  0.66483  0.16414  0.24843  1.0000
  C   C81       1.0  0.63846  0.14354  0.25085  1.0000
  C   C82       1.0  0.71206  0.21906  0.26215  1.0000
  C   C83       1.0  0.73751  0.24132  0.26179  1.0000
  C   C84       1.0  0.50466  0.14685  0.26110  1.0000
  C   C85       1.0  0.49916  0.16763  0.26394  1.0000
  C   C86       1.0  0.47175  0.22461  0.28844  1.0000
  C   C87       1.0  0.47453  0.20209  0.28778  1.0000
  H   H44       1.0  0.45953  0.22601  0.24249  1.0000
  H   H45       1.0  0.46407  0.18773  0.24164  1.0000
  H   H46       1.0  0.49907  0.17653  0.20515  1.0000
  H   H47       1.0  0.50807  0.14100  0.20073  1.0000
  H   H48       1.0  0.62895  0.13525  0.19218  1.0000
  H   H49       1.0  0.67388  0.17002  0.18768  1.0000
  H   H50       1.0  0.55485  0.99148  0.20098  1.0000
  H   H51       1.0  0.56436  0.95628  0.20536  1.0000
  H   H52       1.0  0.60539  0.90808  0.24366  1.0000
  H   H53       1.0  0.59992  0.94581  0.24277  1.0000
  H   H54       1.0  0.36481  0.91338  0.21732  1.0000
  H   H55       1.0  0.32239  0.87528  0.21688  1.0000
  H   H56       1.0  0.38858  0.96200  0.18817  1.0000
  H   H57       1.0  0.43336  0.99709  0.19270  1.0000
  H   H58       1.0  0.69844  0.21859  0.21803  1.0000
  H   H59       1.0  0.74126  0.25613  0.21759  1.0000
  N   N5        1.0  0.27506  0.52047  0.26524  1.0000
  C   C88       1.0  0.25213  0.52051  0.25288  1.0000
  H   H60       1.0  0.24696  0.52274  0.18966  1.0000
  N   N6        1.0  0.57859  0.85359  0.26798  1.0000
  C   C89       1.0  0.57856  0.83066  0.25560  1.0000
  H   H61       1.0  0.57633  0.82339  0.19238  1.0000
  C   C90       1.0  0.23378  0.81510  0.34623  1.0000
  N   N7        1.0  0.24561  0.82410  0.26564  1.0000
  C   C91       1.0  0.26856  0.84704  0.25376  1.0000
  C   C92       1.0  0.28160  0.86293  0.32859  1.0000
  H   H62       1.0  0.27593  0.85228  0.19069  1.0000
  N   N8        1.0  0.79317  0.61172  0.26506  1.0000
  C   C93       1.0  0.81574  0.61106  0.25270  1.0000
  H   H63       1.0  0.82059  0.60854  0.18957  1.0000
  N   N9        1.0  0.48736  0.28046  0.26777  1.0000
  C   C94       1.0  0.48804  0.30374  0.25543  1.0000
  H   H64       1.0  0.49057  0.31124  0.19232  1.0000
  C   C95       1.0  0.83066  0.31438  0.34589  1.0000
  N   N10       1.0  0.81850  0.30584  0.26543  1.0000
  C   C96       1.0  0.79522  0.28325  0.25355  1.0000
  C   C97       1.0  0.78215  0.26726  0.32827  1.0000
  H   H65       1.0  0.78762  0.27833  0.19057  1.0000
  C   C98       1.0  0.09083  0.61218  0.33256  1.0000
  C   C99       1.0  0.13492  0.53251  0.40674  1.0000
  C   C100      1.0  0.11414  0.53803  0.40896  1.0000
  C   C101      1.0  0.16938  0.50784  0.38526  1.0000
  C   C102      1.0  0.19204  0.50530  0.38568  1.0000
  C   C103      1.0  0.21252  0.51890  0.32291  1.0000
  C   C104      1.0  0.13145  0.69746  0.42156  1.0000
  C   C105      1.0  0.11086  0.67110  0.41873  1.0000
  C   C106      1.0  0.20838  0.77026  0.40942  1.0000
  C   C107      1.0  0.18625  0.74474  0.40804  1.0000
  C   C108      1.0  0.95240  0.59065  0.40863  1.0000
  C   C109      1.0  0.93182  0.59646  0.40645  1.0000
  C   C110      1.0  0.87584  0.62517  0.38492  1.0000
  C   C111      1.0  0.89816  0.62206  0.38451  1.0000
  C   C112      1.0  0.95547  0.45715  0.41841  1.0000
  C   C113      1.0  0.93468  0.43088  0.42127  1.0000
  C   C114      1.0  0.87946  0.38425  0.40838  1.0000
  C   C115      1.0  0.85702  0.35894  0.40978  1.0000
  H   H66       1.0  0.84228  0.35531  0.45388  1.0000
  H   H67       1.0  0.88025  0.39804  0.45191  1.0000
  H   H68       1.0  0.92875  0.42191  0.48223  1.0000
  H   H69       1.0  0.96382  0.46668  0.47697  1.0000
  H   H70       1.0  0.95826  0.58691  0.46874  1.0000
  H   H71       1.0  0.92305  0.59641  0.46542  1.0000
  H   H72       1.0  0.13362  0.59280  0.32983  1.0000
  H   H73       1.0  0.10272  0.66142  0.47730  1.0000
  H   H74       1.0  0.13747  0.70634  0.48255  1.0000
  H   H75       1.0  0.18591  0.73098  0.45116  1.0000
  H   H76       1.0  0.22333  0.77410  0.45319  1.0000
  H   H77       1.0  0.10844  0.54181  0.46900  1.0000
  H   H78       1.0  0.14398  0.53282  0.46562  1.0000
  H   H79       1.0  0.19338  0.49331  0.43273  1.0000
  H   H80       1.0  0.15505  0.49753  0.43168  1.0000
  H   H81       1.0  0.91272  0.63224  0.43048  1.0000
  H   H82       1.0  0.87495  0.63742  0.43153  1.0000
  C   C116      1.0  0.61353  0.63280  0.33649  1.0000
  C   C117      1.0  0.59993  0.64641  0.33548  1.0000
  C   C118      1.0  0.57296  0.62807  0.33427  1.0000
  N   N11       1.0  0.57123  0.60412  0.33456  1.0000
  C   C119      1.0  0.59518  0.60584  0.33587  1.0000
  C   C120      1.0  0.60156  0.58539  0.33609  1.0000
  C   C121      1.0  0.58286  0.55800  0.33495  1.0000
  N   N12       1.0  0.55629  0.54635  0.33444  1.0000
  C   C122      1.0  0.51724  0.50109  0.33301  1.0000
  C   C123      1.0  0.49680  0.50748  0.33408  1.0000
  N   N13       1.0  0.49854  0.53144  0.33449  1.0000
  C   C124      1.0  0.47459  0.52971  0.33590  1.0000
  C   C125      1.0  0.45624  0.50275  0.33644  1.0000
  C   C126      1.0  0.46984  0.48914  0.33528  1.0000
  C   C127      1.0  0.46821  0.55016  0.33630  1.0000
  C   C128      1.0  0.48690  0.57754  0.33522  1.0000
  N   N14       1.0  0.51347  0.58920  0.33476  1.0000
  C   C129      1.0  0.52514  0.61577  0.33371  1.0000
  C   C130      1.0  0.50469  0.62152  0.33327  1.0000
  C   C131      1.0  0.48115  0.59798  0.33460  1.0000
  C   C132      1.0  0.55253  0.63446  0.33331  1.0000
  C   C133      1.0  0.55989  0.66160  0.33184  1.0000
  C   C134      1.0  0.57096  0.71489  0.32756  1.0000
  C   C135      1.0  0.56656  0.70114  0.40946  1.0000
  C   C136      1.0  0.56109  0.67486  0.41171  1.0000
  C   C137      1.0  0.57484  0.74101  0.32516  1.0000
  C   C138      1.0  0.59126  0.76032  0.38795  1.0000
  C   C139      1.0  0.59379  0.78551  0.38837  1.0000
  C   C140      1.0  0.58018  0.79252  0.32559  1.0000
  C   C141      1.0  0.44108  0.54279  0.33849  1.0000
  C   C142      1.0  0.38761  0.53111  0.34387  1.0000
  C   C143      1.0  0.40155  0.53274  0.42333  1.0000
  C   C144      1.0  0.42792  0.53852  0.42084  1.0000
  C   C145      1.0  0.36131  0.52669  0.34678  1.0000
  C   C146      1.0  0.32873  0.53686  0.40983  1.0000
  C   C147      1.0  0.35426  0.54027  0.40882  1.0000
  C   C148      1.0  0.50985  0.47395  0.33146  1.0000
  C   C149      1.0  0.50840  0.46047  0.41142  1.0000
  C   C150      1.0  0.50261  0.43410  0.40923  1.0000
  C   C151      1.0  0.49817  0.42048  0.32731  1.0000
  C   C152      1.0  0.49382  0.39419  0.32506  1.0000
  C   C153      1.0  0.48731  0.34221  0.32545  1.0000
  C   C154      1.0  0.47392  0.34944  0.38769  1.0000
  C   C155      1.0  0.47702  0.37488  0.38729  1.0000
  C   C156      1.0  0.62869  0.59273  0.33822  1.0000
  C   C157      1.0  0.64201  0.59700  0.42053  1.0000
  C   C158      1.0  0.68197  0.60378  0.34368  1.0000
  C   C159      1.0  0.66828  0.60246  0.42306  1.0000
  C   C160      1.0  0.70810  0.60772  0.34669  1.0000
  C   C161      1.0  0.71492  0.59394  0.40930  1.0000
  C   C162      1.0  0.74023  0.59679  0.41025  1.0000
  H   H83       1.0  0.74391  0.58559  0.45415  1.0000
  H   H84       1.0  0.70117  0.58083  0.45291  1.0000
  H   H85       1.0  0.67730  0.60537  0.48391  1.0000
  H   H86       1.0  0.63252  0.59566  0.47922  1.0000
  H   H87       1.0  0.63362  0.64150  0.33726  1.0000
  H   H88       1.0  0.60864  0.66650  0.33580  1.0000
  H   H89       1.0  0.55485  0.58774  0.33350  1.0000
  H   H90       1.0  0.51492  0.54782  0.33350  1.0000
  H   H91       1.0  0.56344  0.49582  0.33245  1.0000
  H   H92       1.0  0.51216  0.46996  0.47152  1.0000
  H   H93       1.0  0.50266  0.42525  0.46821  1.0000
  H   H94       1.0  0.43616  0.49404  0.33730  1.0000
  H   H95       1.0  0.50630  0.63972  0.33248  1.0000
  H   H96       1.0  0.46295  0.59637  0.33473  1.0000
  H   H97       1.0  0.43755  0.53997  0.47955  1.0000
  H   H98       1.0  0.39263  0.52978  0.48420  1.0000
  H   H99       1.0  0.36797  0.55359  0.45210  1.0000
  H   H100      1.0  0.32485  0.54789  0.45341  1.0000
  H   H101      1.0  0.55727  0.66524  0.47175  1.0000
  H   H102      1.0  0.56628  0.70979  0.46834  1.0000
  H   H103      1.0  0.60576  0.79875  0.43545  1.0000
  H   H104      1.0  0.60156  0.75621  0.43439  1.0000
  H   H105      1.0  0.46683  0.37915  0.43323  1.0000
  H   H106      1.0  0.46165  0.33620  0.43427  1.0000
  C   C163      1.0  0.46629  0.07961  0.33874  1.0000
  C   C164      1.0  0.45267  0.05239  0.33758  1.0000
  C   C165      1.0  0.47102  0.04377  0.33648  1.0000
  N   N15       1.0  0.49497  0.06600  0.33696  1.0000
  C   C166      1.0  0.49325  0.08822  0.33829  1.0000
  C   C167      1.0  0.51370  0.11505  0.33861  1.0000
  C   C168      1.0  0.54108  0.12374  0.33742  1.0000
  N   N16       1.0  0.55274  0.10882  0.33684  1.0000
  C   C169      1.0  0.57931  0.12373  0.33565  1.0000
  C   C170      1.0  0.58507  0.14993  0.33526  1.0000
  C   C171      1.0  0.56153  0.14993  0.33683  1.0000
  C   C172      1.0  0.59799  0.11503  0.33510  1.0000
  C   C173      1.0  0.59160  0.08820  0.33633  1.0000
  N   N17       1.0  0.56765  0.06598  0.33698  1.0000
  C   C174      1.0  0.56938  0.04376  0.33842  1.0000
  C   C175      1.0  0.59634  0.05237  0.33886  1.0000
  C   C176      1.0  0.60995  0.07958  0.33750  1.0000
  C   C177      1.0  0.54893  0.01693  0.33889  1.0000
  C   C178      1.0  0.52155  0.00825  0.33772  1.0000
  N   N18       1.0  0.50989  0.02316  0.33719  1.0000
  C   C179      1.0  0.48332  0.00825  0.33599  1.0000
  C   C180      1.0  0.47757  0.98205  0.33554  1.0000
  C   C181      1.0  0.50111  0.98205  0.33703  1.0000
  C   C182      1.0  0.46463  0.01695  0.33543  1.0000
  C   C183      1.0  0.43749  0.99717  0.33349  1.0000
  C   C184      1.0  0.38421  0.95497  0.32819  1.0000
  C   C185      1.0  0.39784  0.96406  0.41035  1.0000
  C   C186      1.0  0.42412  0.98486  0.41309  1.0000
  C   C187      1.0  0.35810  0.93275  0.32526  1.0000
  C   C188      1.0  0.33869  0.92964  0.38775  1.0000
  C   C189      1.0  0.31349  0.90698  0.38763  1.0000
  C   C190      1.0  0.30659  0.88658  0.32460  1.0000
  C   C191      1.0  0.55631  0.99717  0.34111  1.0000
  C   C192      1.0  0.56799  0.95537  0.34656  1.0000
  C   C193      1.0  0.56637  0.96754  0.42600  1.0000
  C   C194      1.0  0.56059  0.98813  0.42347  1.0000
  C   C195      1.0  0.57241  0.93348  0.34950  1.0000
  C   C196      1.0  0.57946  0.88847  0.35179  1.0000
  C   C197      1.0  0.56227  0.89063  0.41269  1.0000
  C   C198      1.0  0.55886  0.91275  0.41166  1.0000
  C   C199      1.0  0.62513  0.13478  0.33306  1.0000
  C   C200      1.0  0.63874  0.14675  0.41273  1.0000
  C   C201      1.0  0.66511  0.16735  0.41001  1.0000
  C   C202      1.0  0.67860  0.17658  0.32782  1.0000
  C   C203      1.0  0.70489  0.19850  0.32500  1.0000
  C   C204      1.0  0.75687  0.24397  0.32431  1.0000
  C   C205      1.0  0.74973  0.22330  0.38682  1.0000
  C   C206      1.0  0.72430  0.20097  0.38695  1.0000
  C   C207      1.0  0.50635  0.13483  0.34075  1.0000
  C   C208      1.0  0.50209  0.14371  0.42307  1.0000
  C   C209      1.0  0.49530  0.17704  0.34626  1.0000
  C   C210      1.0  0.49662  0.16451  0.42562  1.0000
  C   C211      1.0  0.49136  0.19923  0.34928  1.0000
  C   C212      1.0  0.50514  0.21970  0.41193  1.0000
  C   C213      1.0  0.50230  0.24216  0.41286  1.0000
  C   C214      1.0  0.48544  0.24492  0.35149  1.0000
  H   H107      1.0  0.51349  0.25694  0.45683  1.0000
  H   H108      1.0  0.51826  0.21898  0.45552  1.0000
  H   H109      1.0  0.49373  0.17050  0.48649  1.0000
  H   H110      1.0  0.50342  0.13543  0.48176  1.0000
  H   H111      1.0  0.45759  0.09099  0.33947  1.0000
  H   H112      1.0  0.43259  0.04101  0.33776  1.0000
  H   H113      1.0  0.51135  0.06600  0.33606  1.0000
  H   H114      1.0  0.55127  0.06598  0.33601  1.0000
  H   H115      1.0  0.55993  0.16652  0.33707  1.0000
  H   H116      1.0  0.60326  0.16651  0.33451  1.0000
  H   H117      1.0  0.62935  0.14099  0.47301  1.0000
  H   H118      1.0  0.67404  0.17619  0.46880  1.0000
  H   H119      1.0  0.63004  0.09096  0.33756  1.0000
  H   H120      1.0  0.60505  0.04099  0.33963  1.0000
  H   H121      1.0  0.45938  0.96547  0.33461  1.0000
  H   H122      1.0  0.50272  0.96546  0.33716  1.0000
  H   H123      1.0  0.55915  0.99621  0.48217  1.0000
  H   H124      1.0  0.56934  0.96146  0.48688  1.0000
  H   H125      1.0  0.54552  0.91304  0.45485  1.0000
  H   H126      1.0  0.55121  0.87562  0.45618  1.0000
  H   H127      1.0  0.43364  0.99048  0.47331  1.0000
  H   H128      1.0  0.38910  0.95496  0.46904  1.0000
  H   H129      1.0  0.30018  0.90557  0.43448  1.0000
  H   H130      1.0  0.34273  0.94391  0.43433  1.0000
  H   H131      1.0  0.72009  0.18648  0.43310  1.0000
  H   H132      1.0  0.76304  0.22425  0.43324  1.0000
  C   C215      1.0  0.28395  0.51750  0.34605  1.0000
  C   C216      1.0  0.23615  0.51754  0.32741  1.0000
  N   N19       1.0  0.24485  0.51402  0.40788  1.0000
  C   C217      1.0  0.26768  0.51380  0.42094  1.0000
  C   C218      1.0  0.27265  0.50937  0.50183  1.0000
  N   N20       1.0  0.27699  0.50542  0.57326  1.0000
  C   C219      1.0  0.58156  0.86530  0.34880  1.0000
  C   C220      1.0  0.58153  0.81749  0.33013  1.0000
  N   N21       1.0  0.58505  0.82955  0.41061  1.0000
  C   C221      1.0  0.58526  0.85257  0.42368  1.0000
  C   C222      1.0  0.58971  0.86180  0.50457  1.0000
  N   N22       1.0  0.59369  0.86995  0.57599  1.0000
  N   N23       1.0  0.26942  0.85414  0.40882  1.0000
  C   C223      1.0  0.24639  0.83129  0.42140  1.0000
  C   C224      1.0  0.23701  0.82625  0.50210  1.0000
  N   N24       1.0  0.22873  0.82184  0.57335  1.0000
  C   C225      1.0  0.78471  0.61513  0.34575  1.0000
  C   C226      1.0  0.83181  0.61379  0.32712  1.0000
  N   N25       1.0  0.82356  0.61773  0.40746  1.0000
  C   C227      1.0  0.80108  0.61857  0.42051  1.0000
  C   C228      1.0  0.79656  0.62337  0.50121  1.0000
  N   N26       1.0  0.79261  0.62765  0.57247  1.0000
  C   C229      1.0  0.48393  0.26842  0.34844  1.0000
  C   C230      1.0  0.48530  0.31692  0.32987  1.0000
  N   N27       1.0  0.48135  0.30456  0.41019  1.0000
  C   C231      1.0  0.48050  0.28120  0.42322  1.0000
  C   C232      1.0  0.47570  0.27171  0.50391  1.0000
  N   N28       1.0  0.47142  0.26333  0.57516  1.0000
  N   N29       1.0  0.79464  0.27559  0.40836  1.0000
  C   C233      1.0  0.81801  0.29809  0.42092  1.0000
  C   C234      1.0  0.82761  0.30271  0.50147  1.0000
  N   N30       1.0  0.83609  0.30675  0.57259  1.0000
