data_image0
_chemical_formula_structural       COC30H17NHNHNHC30H17NHNHNHNC2HCH2NC2HCH2NCHCH10CNC2OHCH2CNC2OHCH2CNC2HCH2
_chemical_formula_sum              "C81 O3 H66 N12"
_cell_length_a       44.7701
_cell_length_b       44.7701
_cell_length_c       14.9909
_cell_angle_alpha    90
_cell_angle_beta     90
_cell_angle_gamma    120

_space_group_name_H-M_alt    "P 1"
_space_group_IT_number       1

loop_
  _space_group_symop_operation_xyz
  'x, y, z'

loop_
  _atom_site_type_symbol
  _atom_site_label
  _atom_site_symmetry_multiplicity
  _atom_site_fract_x
  _atom_site_fract_y
  _atom_site_fract_z
  _atom_site_occupancy
  C   C1        1.0  0.00936  0.51011  0.25044  1.0000
  O   O1        1.0  0.00778  0.50033  0.57342  1.0000
  C   C2        1.0  0.13125  0.56688  0.35002  1.0000
  C   C3        1.0  0.15056  0.60097  0.31732  1.0000
  C   C4        1.0  0.18622  0.61593  0.30180  1.0000
  C   C5        1.0  0.20318  0.59702  0.31868  1.0000
  C   C6        1.0  0.18371  0.56277  0.35020  1.0000
  C   C7        1.0  0.14813  0.54799  0.36641  1.0000
  C   C8        1.0  0.23836  0.61150  0.30576  1.0000
  C   C9        1.0  0.26177  0.63807  0.35489  1.0000
  C   C10       1.0  0.29726  0.65204  0.34729  1.0000
  C   C11       1.0  0.31250  0.63094  0.34802  1.0000
  C   C12       1.0  0.34872  0.64537  0.34743  1.0000
  C   C13       1.0  0.36982  0.68171  0.34809  1.0000
  C   C14       1.0  0.35539  0.70350  0.34743  1.0000
  C   C15       1.0  0.31905  0.68826  0.34798  1.0000
  C   C16       1.0  0.37689  0.73898  0.35503  1.0000
  C   C17       1.0  0.37375  0.76240  0.30588  1.0000
  C   C18       1.0  0.39445  0.79757  0.31876  1.0000
  C   C19       1.0  0.37968  0.81705  0.35030  1.0000
  C   C20       1.0  0.43032  0.81453  0.30187  1.0000
  C   C21       1.0  0.45102  0.85019  0.31732  1.0000
  C   C22       1.0  0.43625  0.86951  0.35003  1.0000
  C   C23       1.0  0.40047  0.85263  0.36643  1.0000
  C   C24       1.0  0.36270  0.62387  0.35503  1.0000
  C   C25       1.0  0.38927  0.62702  0.30591  1.0000
  C   C26       1.0  0.40374  0.60632  0.31879  1.0000
  C   C27       1.0  0.38482  0.57045  0.30190  1.0000
  C   C28       1.0  0.43798  0.62109  0.35034  1.0000
  C   C29       1.0  0.45277  0.60028  0.36649  1.0000
  C   C30       1.0  0.43387  0.56451  0.35010  1.0000
  C   C31       1.0  0.39978  0.54974  0.31738  1.0000
  H   H1        1.0  0.13881  0.61520  0.30614  1.0000
  H   H2        1.0  0.19971  0.64078  0.27892  1.0000
  H   H3        1.0  0.30827  0.70376  0.35133  1.0000
  H   H4        1.0  0.29699  0.60466  0.35133  1.0000
  H   H5        1.0  0.39610  0.69249  0.35145  1.0000
  H   H6        1.0  0.35997  0.55909  0.27902  1.0000
  H   H7        1.0  0.35380  0.80540  0.36348  1.0000
  H   H8        1.0  0.47700  0.86194  0.30619  1.0000
  H   H9        1.0  0.44167  0.80103  0.27900  1.0000
  H   H10       1.0  0.38555  0.52376  0.30622  1.0000
  H   H11       1.0  0.45222  0.64697  0.36351  1.0000
  H   H12       1.0  0.35484  0.75460  0.26129  1.0000
  H   H13       1.0  0.39572  0.74729  0.40017  1.0000
  H   H14       1.0  0.24615  0.60035  0.26128  1.0000
  H   H15       1.0  0.25347  0.64860  0.39997  1.0000
  H   H16       1.0  0.40039  0.64594  0.26135  1.0000
  H   H17       1.0  0.35217  0.60503  0.40014  1.0000
  N   N1        1.0  0.45617  0.90504  0.37034  1.0000
  H   H18       1.0  0.47544  0.90872  0.41391  1.0000
  N   N2        1.0  0.09572  0.55127  0.37034  1.0000
  H   H19       1.0  0.09204  0.56686  0.41392  1.0000
  N   N3        1.0  0.44948  0.54459  0.37038  1.0000
  H   H20       1.0  0.43389  0.52532  0.41395  1.0000
  C   C32       1.0  0.86984  0.43383  0.31697  1.0000
  C   C33       1.0  0.85048  0.39985  0.35037  1.0000
  C   C34       1.0  0.81472  0.38478  0.36436  1.0000
  C   C35       1.0  0.79772  0.40350  0.34533  1.0000
  C   C36       1.0  0.81721  0.43759  0.31280  1.0000
  C   C37       1.0  0.85288  0.45247  0.29805  1.0000
  C   C38       1.0  0.76254  0.38908  0.35791  1.0000
  C   C39       1.0  0.73913  0.36242  0.30902  1.0000
  C   C40       1.0  0.70364  0.34851  0.31649  1.0000
  C   C41       1.0  0.68846  0.36966  0.31579  1.0000
  C   C42       1.0  0.65225  0.35529  0.31645  1.0000
  C   C43       1.0  0.63110  0.31896  0.31580  1.0000
  C   C44       1.0  0.64546  0.29711  0.31646  1.0000
  C   C45       1.0  0.68180  0.31230  0.31583  1.0000
  C   C46       1.0  0.62390  0.26162  0.30899  1.0000
  C   C47       1.0  0.62714  0.23822  0.35790  1.0000
  C   C48       1.0  0.60638  0.20304  0.34532  1.0000
  C   C49       1.0  0.62099  0.18355  0.31280  1.0000
  C   C50       1.0  0.57067  0.18604  0.36434  1.0000
  C   C51       1.0  0.54998  0.15028  0.35034  1.0000
  C   C52       1.0  0.56460  0.13091  0.31695  1.0000
  C   C53       1.0  0.60019  0.14788  0.29804  1.0000
  C   C54       1.0  0.63833  0.37686  0.30897  1.0000
  C   C55       1.0  0.61168  0.37362  0.35788  1.0000
  C   C56       1.0  0.59726  0.39438  0.34528  1.0000
  C   C57       1.0  0.61597  0.43009  0.36432  1.0000
  C   C58       1.0  0.56317  0.37977  0.31270  1.0000
  C   C59       1.0  0.54829  0.40057  0.29798  1.0000
  C   C60       1.0  0.56692  0.43616  0.31691  1.0000
  C   C61       1.0  0.60091  0.45078  0.35031  1.0000
  H   H21       1.0  0.86231  0.38584  0.36361  1.0000
  H   H22       1.0  0.80122  0.36007  0.38819  1.0000
  H   H23       1.0  0.69253  0.29676  0.31251  1.0000
  H   H24       1.0  0.70400  0.39593  0.31249  1.0000
  H   H25       1.0  0.60483  0.30822  0.31247  1.0000
  H   H26       1.0  0.64068  0.44130  0.38819  1.0000
  H   H27       1.0  0.64677  0.19523  0.29822  1.0000
  H   H28       1.0  0.52414  0.13844  0.36359  1.0000
  H   H29       1.0  0.55945  0.19954  0.38817  1.0000
  H   H30       1.0  0.61491  0.47662  0.36361  1.0000
  H   H31       1.0  0.54906  0.35400  0.29817  1.0000
  H   H32       1.0  0.64614  0.24602  0.40223  1.0000
  H   H33       1.0  0.60495  0.25331  0.26420  1.0000
  H   H34       1.0  0.75474  0.40029  0.40221  1.0000
  H   H35       1.0  0.74745  0.35179  0.26425  1.0000
  H   H36       1.0  0.60047  0.35462  0.40219  1.0000
  H   H37       1.0  0.64896  0.39581  0.26419  1.0000
  N   N4        1.0  0.54477  0.09512  0.29974  1.0000
  H   H38       1.0  0.52466  0.09060  0.25824  1.0000
  N   N5        1.0  0.90564  0.44980  0.29976  1.0000
  H   H39       1.0  0.91016  0.43421  0.25826  1.0000
  N   N6        1.0  0.55095  0.45600  0.29972  1.0000
  H   H40       1.0  0.56654  0.47610  0.25823  1.0000
  N   N7        1.0  0.51022  0.48560  0.27567  1.0000
  C   C62       1.0  0.49063  0.49939  0.25044  1.0000
  C   C63       1.0  0.47940  0.51411  0.31590  1.0000
  H   H41       1.0  0.48452  0.49913  0.18466  1.0000
  C   C64       1.0  0.45823  0.52995  0.29228  1.0000
  H   H42       1.0  0.47291  0.55058  0.24423  1.0000
  H   H43       1.0  0.43456  0.51042  0.25985  1.0000
  N   N8        1.0  0.51516  0.02479  0.27566  1.0000
  C   C65       1.0  0.50137  0.99140  0.25043  1.0000
  C   C66       1.0  0.48665  0.96544  0.31588  1.0000
  H   H44       1.0  0.50163  0.98555  0.18464  1.0000
  C   C67       1.0  0.47081  0.92844  0.29225  1.0000
  H   H45       1.0  0.45018  0.92249  0.24419  1.0000
  H   H46       1.0  0.49034  0.92430  0.25982  1.0000
  N   N9        1.0  0.97597  0.49052  0.27568  1.0000
  C   C68       1.0  0.03531  0.52134  0.31589  1.0000
  H   H47       1.0  0.01520  0.51622  0.18466  1.0000
  C   C69       1.0  0.07232  0.54251  0.29226  1.0000
  H   H48       1.0  0.07826  0.52783  0.24419  1.0000
  H   H49       1.0  0.07645  0.56618  0.25983  1.0000
  H   H50       1.0  0.13458  0.52336  0.39064  1.0000
  H   H51       1.0  0.19537  0.54855  0.36344  1.0000
  H   H52       1.0  0.38941  0.86620  0.39066  1.0000
  H   H53       1.0  0.47740  0.61135  0.39070  1.0000
  H   H54       1.0  0.86650  0.47706  0.27360  1.0000
  H   H55       1.0  0.80554  0.45170  0.29823  1.0000
  H   H56       1.0  0.61116  0.13426  0.27360  1.0000
  H   H57       1.0  0.52370  0.38960  0.27354  1.0000
  C   C70       1.0  0.51988  0.48479  0.36141  1.0000
  N   N10       1.0  0.48898  0.51328  0.40148  1.0000
  C   C71       1.0  0.50832  0.49919  0.42849  1.0000
  C   C72       1.0  0.51626  0.50069  0.51844  1.0000
  O   O2        1.0  0.50042  0.50759  0.57341  1.0000
  H   H58       1.0  0.52468  0.48545  0.54124  1.0000
  C   C73       1.0  0.54163  0.46900  0.38024  1.0000
  H   H59       1.0  0.52718  0.44738  0.42584  1.0000
  H   H60       1.0  0.56519  0.48816  0.41384  1.0000
  C   C74       1.0  0.51597  0.03525  0.36141  1.0000
  N   N11       1.0  0.48748  0.97586  0.40146  1.0000
  C   C75       1.0  0.50157  0.00929  0.42847  1.0000
  C   C76       1.0  0.50006  0.01571  0.51843  1.0000
  O   O3        1.0  0.49316  0.99298  0.57340  1.0000
  H   H61       1.0  0.51530  0.03938  0.54124  1.0000
  C   C77       1.0  0.53175  0.07279  0.38026  1.0000
  H   H62       1.0  0.55337  0.07995  0.42586  1.0000
  H   H63       1.0  0.51259  0.07718  0.41384  1.0000
  C   C78       1.0  0.96551  0.48087  0.36142  1.0000
  N   N12       1.0  0.02490  0.51176  0.40147  1.0000
  C   C79       1.0  0.99147  0.49242  0.42849  1.0000
  C   C80       1.0  0.98505  0.48449  0.51845  1.0000
  H   H64       1.0  0.96138  0.47607  0.54126  1.0000
  C   C81       1.0  0.92797  0.45911  0.38028  1.0000
  H   H65       1.0  0.92081  0.47357  0.42588  1.0000
  H   H66       1.0  0.92358  0.43556  0.41386  1.0000
