data_image0
_chemical_formula_structural       C2NOC2NOC9H3OC6H3OC8H3NO2C2H2C2H2C2H2C2H2C2H2C2H2C3H3C6H3C6H3C6H3C2H2C2H2C2H2C2H2C2H2C2H2C8H3NO2C8H3NO2C8H3NO2
_chemical_formula_sum              "C96 N6 O12 H54"
_cell_length_a       34.4516
_cell_length_b       34.4621
_cell_length_c       14.7348
_cell_angle_alpha    90
_cell_angle_beta     90
_cell_angle_gamma    119.993

_space_group_name_H-M_alt    "P 1"
_space_group_IT_number       1

loop_
  _space_group_symop_operation_xyz
  'x, y, z'

loop_
  _atom_site_type_symbol
  _atom_site_label
  _atom_site_symmetry_multiplicity
  _atom_site_fract_x
  _atom_site_fract_y
  _atom_site_fract_z
  _atom_site_occupancy
  C   C1        1.0  0.10629  0.05512  0.35318  1.0000
  C   C2        1.0  0.13050  0.05983  0.27204  1.0000
  N   N1        1.0  0.10655  0.04069  0.19075  1.0000
  O   O1        1.0  0.11534  0.01208  0.15922  1.0000
  C   C3        1.0  0.96316  0.05559  0.34974  1.0000
  C   C4        1.0  0.94307  0.05982  0.26902  1.0000
  N   N2        1.0  0.94740  0.04028  0.18788  1.0000
  O   O2        1.0  0.90982  0.01150  0.15734  1.0000
  C   C5        1.0  0.05844  0.03131  0.35496  1.0000
  C   C6        1.0  0.03438  0.05468  0.35585  1.0000
  C   C7        1.0  0.98698  0.03156  0.35178  1.0000
  C   C8        1.0  0.17810  0.08405  0.27350  1.0000
  C   C9        1.0  0.20261  0.10338  0.35415  1.0000
  C   C10       1.0  0.25077  0.12759  0.35448  1.0000
  C   C11       1.0  0.27546  0.16084  0.28850  1.0000
  C   C12       1.0  0.32274  0.18499  0.28932  1.0000
  C   C13       1.0  0.34738  0.17615  0.35485  1.0000
  H   H1        1.0  0.25911  0.16852  0.23999  1.0000
  H   H2        1.0  0.33914  0.20874  0.24034  1.0000
  H   H3        1.0  0.19499  0.08685  0.21451  1.0000
  O   O3        1.0  0.11520  0.07007  0.13132  1.0000
  C   C14       1.0  0.91975  0.08411  0.27069  1.0000
  C   C15       1.0  0.91516  0.10397  0.35116  1.0000
  C   C16       1.0  0.89110  0.12809  0.35197  1.0000
  C   C17       1.0  0.89831  0.16032  0.28452  1.0000
  C   C18       1.0  0.87490  0.18420  0.28568  1.0000
  C   C19       1.0  0.84250  0.17625  0.35325  1.0000
  H   H4        1.0  0.92146  0.16736  0.23440  1.0000
  H   H5        1.0  0.88109  0.20693  0.23512  1.0000
  H   H6        1.0  0.90520  0.08651  0.21200  1.0000
  O   O4        1.0  0.96779  0.06936  0.12775  1.0000
  C   C20       1.0  0.96278  0.91206  0.34658  1.0000
  C   C21       1.0  0.94337  0.88790  0.26538  1.0000
  C   C22       1.0  0.91987  0.84030  0.26685  1.0000
  C   C23       1.0  0.91439  0.81575  0.34760  1.0000
  C   C24       1.0  0.89031  0.76759  0.34819  1.0000
  C   C25       1.0  0.89883  0.74272  0.28259  1.0000
  C   C26       1.0  0.87570  0.69544  0.28394  1.0000
  C   C27       1.0  0.84227  0.67099  0.34966  1.0000
  H   H7        1.0  0.92282  0.75892  0.23395  1.0000
  H   H8        1.0  0.88301  0.67891  0.23519  1.0000
  H   H9        1.0  0.90584  0.82343  0.20781  1.0000
  N   N3        1.0  0.94843  0.91196  0.18416  1.0000
  O   O5        1.0  0.91113  0.90335  0.15235  1.0000
  O   O6        1.0  0.96920  0.90324  0.12492  1.0000
  C   C28       1.0  0.62819  0.15233  0.28560  1.0000
  C   C29       1.0  0.67247  0.16040  0.28932  1.0000
  H   H10       1.0  0.61155  0.14229  0.22504  1.0000
  H   H11       1.0  0.68686  0.15740  0.23088  1.0000
  C   C30       1.0  0.52398  0.19081  0.27006  1.0000
  C   C31       1.0  0.55950  0.18177  0.27371  1.0000
  H   H12       1.0  0.52207  0.20816  0.21542  1.0000
  H   H13       1.0  0.58214  0.19338  0.22158  1.0000
  C   C32       1.0  0.86369  0.47955  0.27185  1.0000
  C   C33       1.0  0.85578  0.51584  0.27673  1.0000
  H   H14       1.0  0.87237  0.47235  0.21034  1.0000
  H   H15       1.0  0.85757  0.53274  0.21829  1.0000
  C   C34       1.0  0.82481  0.33653  0.25999  1.0000
  C   C35       1.0  0.83384  0.38111  0.26268  1.0000
  H   H16       1.0  0.80604  0.31652  0.20737  1.0000
  H   H17       1.0  0.82099  0.39149  0.21170  1.0000
  C   C36       1.0  0.53797  0.38970  0.27850  1.0000
  C   C37       1.0  0.50187  0.34538  0.28270  1.0000
  H   H18       1.0  0.54489  0.40591  0.21739  1.0000
  H   H19       1.0  0.48495  0.33052  0.22412  1.0000
  C   C38       1.0  0.68048  0.49453  0.26456  1.0000
  C   C39       1.0  0.63592  0.45899  0.26776  1.0000
  H   H20       1.0  0.70000  0.49630  0.21052  1.0000
  H   H21       1.0  0.62520  0.43627  0.21581  1.0000
  C   C40       1.0  0.96366  0.98416  0.34778  1.0000
  C   C41       1.0  0.98680  0.95988  0.34905  1.0000
  C   C42       1.0  0.03420  0.98391  0.35201  1.0000
  H   H22       1.0  0.92934  0.96709  0.34510  1.0000
  H   H23       1.0  0.05131  0.96667  0.35122  1.0000
  H   H24       1.0  0.05163  0.08901  0.35685  1.0000
  C   C43       1.0  0.46767  0.20152  0.34988  1.0000
  C   C44       1.0  0.49014  0.24876  0.35318  1.0000
  C   C45       1.0  0.46669  0.27252  0.35781  1.0000
  C   C46       1.0  0.41933  0.24810  0.35653  1.0000
  C   C47       1.0  0.39542  0.20050  0.35508  1.0000
  C   C48       1.0  0.42026  0.17772  0.35332  1.0000
  H   H25       1.0  0.40219  0.26523  0.35984  1.0000
  H   H26       1.0  0.40370  0.14344  0.35046  1.0000
  H   H27       1.0  0.52454  0.26636  0.35285  1.0000
  C   C49       1.0  0.81630  0.27068  0.34168  1.0000
  C   C50       1.0  0.76926  0.24600  0.35090  1.0000
  C   C51       1.0  0.74588  0.19905  0.36145  1.0000
  C   C52       1.0  0.77048  0.17629  0.36182  1.0000
  C   C53       1.0  0.81794  0.19984  0.35323  1.0000
  C   C54       1.0  0.84029  0.24725  0.34390  1.0000
  H   H28       1.0  0.75343  0.14211  0.36763  1.0000
  H   H29       1.0  0.87448  0.26507  0.33842  1.0000
  H   H30       1.0  0.75154  0.26268  0.35043  1.0000
  C   C55       1.0  0.74720  0.55081  0.34525  1.0000
  C   C56       1.0  0.77187  0.52825  0.34887  1.0000
  C   C57       1.0  0.81908  0.55158  0.35340  1.0000
  C   C58       1.0  0.84211  0.59893  0.35196  1.0000
  C   C59       1.0  0.81851  0.62295  0.35036  1.0000
  C   C60       1.0  0.77088  0.59821  0.34848  1.0000
  H   H31       1.0  0.87640  0.61599  0.35497  1.0000
  H   H32       1.0  0.75323  0.61483  0.34530  1.0000
  H   H33       1.0  0.75501  0.49385  0.34848  1.0000
  C   C61       1.0  0.17776  0.09802  0.43429  1.0000
  C   C62       1.0  0.13051  0.07472  0.43372  1.0000
  H   H34       1.0  0.19396  0.11192  0.49398  1.0000
  H   H35       1.0  0.11386  0.07183  0.49313  1.0000
  C   C63       1.0  0.32281  0.14255  0.42016  1.0000
  C   C64       1.0  0.27550  0.11916  0.42061  1.0000
  H   H36       1.0  0.33927  0.13535  0.46928  1.0000
  H   H37       1.0  0.25917  0.09509  0.46905  1.0000
  C   C65       1.0  0.93528  0.09909  0.43087  1.0000
  C   C66       1.0  0.95915  0.07574  0.43006  1.0000
  H   H38       1.0  0.93345  0.11336  0.49045  1.0000
  H   H39       1.0  0.97328  0.07316  0.48926  1.0000
  C   C67       1.0  0.83500  0.14376  0.42027  1.0000
  C   C68       1.0  0.85908  0.12055  0.42016  1.0000
  H   H40       1.0  0.81223  0.13713  0.47100  1.0000
  H   H41       1.0  0.85223  0.09720  0.46974  1.0000
  C   C69       1.0  0.93379  0.84057  0.42780  1.0000
  C   C70       1.0  0.95786  0.88778  0.42720  1.0000
  H   H42       1.0  0.93129  0.82437  0.48758  1.0000
  H   H43       1.0  0.97148  0.90439  0.48673  1.0000
  C   C71       1.0  0.83326  0.69573  0.41458  1.0000
  C   C72       1.0  0.85719  0.74303  0.41452  1.0000
  H   H44       1.0  0.80965  0.67942  0.46385  1.0000
  H   H45       1.0  0.84947  0.75948  0.46274  1.0000
  C   C73       1.0  0.69832  0.17722  0.36911  1.0000
  C   C74       1.0  0.67819  0.18397  0.44703  1.0000
  C   C75       1.0  0.63352  0.17559  0.44209  1.0000
  C   C76       1.0  0.60824  0.16138  0.36071  1.0000
  C   C77       1.0  0.56711  0.16238  0.35171  1.0000
  C   C78       1.0  0.53575  0.15006  0.42373  1.0000
  C   C79       1.0  0.50006  0.15910  0.42027  1.0000
  C   C80       1.0  0.49428  0.18057  0.34406  1.0000
  H   H46       1.0  0.54001  0.13645  0.48196  1.0000
  H   H47       1.0  0.48054  0.15309  0.47672  1.0000
  H   H48       1.0  0.62103  0.18385  0.49711  1.0000
  N   N4        1.0  0.70407  0.20120  0.52705  1.0000
  O   O7        1.0  0.70870  0.23856  0.54870  1.0000
  O   O8        1.0  0.68661  0.17463  0.59247  1.0000
  C   C81       1.0  0.84074  0.52560  0.35811  1.0000
  C   C82       1.0  0.83558  0.49935  0.43631  1.0000
  C   C83       1.0  0.84381  0.46303  0.43017  1.0000
  C   C84       1.0  0.85636  0.45129  0.34749  1.0000
  C   C85       1.0  0.85525  0.40914  0.33842  1.0000
  C   C86       1.0  0.86952  0.39112  0.40903  1.0000
  C   C87       1.0  0.86049  0.34641  0.40658  1.0000
  C   C88       1.0  0.83701  0.31811  0.33285  1.0000
  H   H49       1.0  0.88453  0.40971  0.46579  1.0000
  H   H50       1.0  0.86789  0.33367  0.46248  1.0000
  H   H51       1.0  0.83675  0.44278  0.48573  1.0000
  N   N5        1.0  0.81999  0.50860  0.51798  1.0000
  O   O9        1.0  0.78303  0.47610  0.54237  1.0000
  O   O10       1.0  0.84780  0.51810  0.58117  1.0000
  C   C89       1.0  0.49252  0.32013  0.36336  1.0000
  C   C90       1.0  0.51882  0.34092  0.44165  1.0000
  C   C91       1.0  0.55498  0.38559  0.43615  1.0000
  C   C92       1.0  0.56647  0.41032  0.35404  1.0000
  C   C93       1.0  0.60859  0.45149  0.34515  1.0000
  C   C94       1.0  0.62727  0.48308  0.41688  1.0000
  C   C95       1.0  0.67200  0.51876  0.41395  1.0000
  C   C96       1.0  0.69964  0.52430  0.33855  1.0000
  H   H52       1.0  0.60918  0.47895  0.47472  1.0000
  H   H53       1.0  0.68531  0.53826  0.47048  1.0000
  H   H54       1.0  0.57535  0.39851  0.49162  1.0000
  N   N6        1.0  0.50973  0.31573  0.52278  1.0000
  O   O11       1.0  0.54238  0.31140  0.54663  1.0000
  O   O12       1.0  0.50005  0.33359  0.58655  1.0000
