data_image0
_chemical_formula_structural       C3NC3NC5NC4NC35H25C21H18C16H16CNCHNHCNCHNHC2NC4HNHCNCHNHCNCHNHC2NC4HNHC18H17C3NC3NC2NC5NC34H24C3NC3NC5NC5NC36H26C4HC6H3C4HC6H3C2HC4H3C4HC6H3C4HC6H3C2HC4H3
_chemical_formula_sum              "C276 N24 H162"
_cell_length_a       66.9806
_cell_length_b       66.9807
_cell_length_c       14.978
_cell_angle_alpha    89.8016
_cell_angle_beta     90.1984
_cell_angle_gamma    120

_space_group_name_H-M_alt    "P 1"
_space_group_IT_number       1

loop_
  _space_group_symop_operation_xyz
  'x, y, z'

loop_
  _atom_site_type_symbol
  _atom_site_label
  _atom_site_symmetry_multiplicity
  _atom_site_fract_x
  _atom_site_fract_y
  _atom_site_fract_z
  _atom_site_occupancy
  C   C1        1.0  0.04325  0.62843  0.32866  1.0000
  C   C2        1.0  0.01945  0.61655  0.32779  1.0000
  C   C3        1.0  0.01188  0.59296  0.32897  1.0000
  N   N1        1.0  0.03131  0.59143  0.33023  1.0000
  C   C4        1.0  0.05076  0.61237  0.33017  1.0000
  C   C5        1.0  0.07423  0.61794  0.33137  1.0000
  C   C6        1.0  0.08181  0.60158  0.33127  1.0000
  N   N2        1.0  0.06876  0.57835  0.32976  1.0000
  C   C7        1.0  0.08178  0.56812  0.33000  1.0000
  C   C8        1.0  0.10469  0.58597  0.33166  1.0000
  C   C9        1.0  0.10471  0.60658  0.33260  1.0000
  C   C10       1.0  0.07414  0.54417  0.32890  1.0000
  C   C11       1.0  0.05066  0.52631  0.32881  1.0000
  N   N3        1.0  0.03124  0.52784  0.33015  1.0000
  C   C12       1.0  0.01178  0.50690  0.33017  1.0000
  C   C13       1.0  0.01930  0.49084  0.32858  1.0000
  C   C14       1.0  0.04310  0.50272  0.32760  1.0000
  C   C15       1.0  0.98833  0.50133  0.33149  1.0000
  N   N4        1.0  0.99379  0.54092  0.32996  1.0000
  C   C16       1.0  0.98077  0.55114  0.33021  1.0000
  C   C17       1.0  0.95786  0.53328  0.33183  1.0000
  C   C18       1.0  0.95784  0.51267  0.33276  1.0000
  C   C19       1.0  0.98840  0.57510  0.32912  1.0000
  C   C20       1.0  0.97114  0.58158  0.32796  1.0000
  C   C21       1.0  0.96167  0.58351  0.24624  1.0000
  C   C22       1.0  0.94371  0.58864  0.24531  1.0000
  C   C23       1.0  0.93475  0.59204  0.32577  1.0000
  C   C24       1.0  0.91575  0.59612  0.32498  1.0000
  C   C25       1.0  0.87700  0.58595  0.27256  1.0000
  C   C26       1.0  0.89617  0.58269  0.27092  1.0000
  C   C27       1.0  0.97104  0.47759  0.33357  1.0000
  C   C28       1.0  0.96092  0.46557  0.25375  1.0000
  C   C29       1.0  0.94311  0.44241  0.25642  1.0000
  C   C30       1.0  0.93486  0.43065  0.33871  1.0000
  C   C31       1.0  0.91603  0.40748  0.34148  1.0000
  C   C32       1.0  0.91463  0.39050  0.28165  1.0000
  C   C33       1.0  0.89569  0.36789  0.28304  1.0000
  C   C34       1.0  0.87746  0.36138  0.34455  1.0000
  C   C35       1.0  0.09140  0.53767  0.32774  1.0000
  C   C36       1.0  0.12748  0.52677  0.32559  1.0000
  C   C37       1.0  0.11864  0.53053  0.24515  1.0000
  C   C38       1.0  0.10082  0.53587  0.24606  1.0000
  C   C39       1.0  0.14625  0.52235  0.32481  1.0000
  C   C40       1.0  0.16590  0.53571  0.27119  1.0000
  C   C41       1.0  0.18482  0.53205  0.27271  1.0000
  C   C42       1.0  0.18485  0.51485  0.32780  1.0000
  C   C43       1.0  0.09152  0.64167  0.33340  1.0000
  C   C44       1.0  0.10172  0.65369  0.25361  1.0000
  C   C45       1.0  0.11968  0.67679  0.25627  1.0000
  C   C46       1.0  0.12802  0.68847  0.33855  1.0000
  C   C47       1.0  0.14707  0.71152  0.34138  1.0000
  C   C48       1.0  0.18614  0.75733  0.34431  1.0000
  C   C49       1.0  0.16796  0.75111  0.28246  1.0000
  C   C50       1.0  0.14877  0.72864  0.28113  1.0000
  H   H1        1.0  0.16841  0.76299  0.23815  1.0000
  H   H2        1.0  0.13589  0.72496  0.23595  1.0000
  H   H3        1.0  0.12718  0.68472  0.19734  1.0000
  H   H4        1.0  0.09646  0.64557  0.19320  1.0000
  H   H5        1.0  0.05322  0.64600  0.32806  1.0000
  H   H6        1.0  0.00951  0.62418  0.32671  1.0000
  H   H7        1.0  0.03129  0.57710  0.33192  1.0000
  H   H8        1.0  0.03126  0.54217  0.33189  1.0000
  H   H9        1.0  0.11923  0.62248  0.33401  1.0000
  H   H10       1.0  0.11918  0.58454  0.33246  1.0000
  H   H11       1.0  0.09497  0.53871  0.18681  1.0000
  H   H12       1.0  0.12508  0.52936  0.18477  1.0000
  H   H13       1.0  0.05303  0.49509  0.32647  1.0000
  H   H14       1.0  0.00933  0.47327  0.32804  1.0000
  H   H15       1.0  0.94333  0.49677  0.33410  1.0000
  H   H16       1.0  0.96615  0.47373  0.19331  1.0000
  H   H17       1.0  0.93569  0.43445  0.19743  1.0000
  H   H18       1.0  0.89546  0.35612  0.23906  1.0000
  H   H19       1.0  0.92756  0.39439  0.23675  1.0000
  H   H20       1.0  0.89530  0.56974  0.23199  1.0000
  H   H21       1.0  0.86292  0.57525  0.23475  1.0000
  H   H22       1.0  0.93720  0.58987  0.18492  1.0000
  H   H23       1.0  0.96755  0.58086  0.18699  1.0000
  H   H24       1.0  0.16698  0.54885  0.23254  1.0000
  H   H25       1.0  0.19897  0.54270  0.23521  1.0000
  C   C51       1.0  0.52123  0.59851  0.33284  1.0000
  C   C52       1.0  0.50338  0.60358  0.33440  1.0000
  C   C53       1.0  0.48277  0.58299  0.33537  1.0000
  C   C54       1.0  0.50583  0.46315  0.24907  1.0000
  C   C55       1.0  0.50069  0.44006  0.24809  1.0000
  C   C56       1.0  0.50336  0.37599  0.27514  1.0000
  C   C57       1.0  0.50664  0.39843  0.27362  1.0000
  C   C58       1.0  0.62375  0.58036  0.25631  1.0000
  C   C59       1.0  0.64691  0.58571  0.25877  1.0000
  C   C60       1.0  0.69883  0.60912  0.28368  1.0000
  C   C61       1.0  0.72144  0.61280  0.28479  1.0000
  C   C62       1.0  0.72799  0.60095  0.34597  1.0000
  C   C63       1.0  0.55882  0.67309  0.24794  1.0000
  C   C64       1.0  0.55348  0.64993  0.24889  1.0000
  C   C65       1.0  0.55362  0.71512  0.27396  1.0000
  C   C66       1.0  0.55728  0.73770  0.27547  1.0000
  C   C67       1.0  0.43568  0.53297  0.25618  1.0000
  C   C68       1.0  0.41258  0.52783  0.25867  1.0000
  C   C69       1.0  0.33199  0.51361  0.34578  1.0000
  C   C70       1.0  0.33824  0.50170  0.28425  1.0000
  C   C71       1.0  0.36071  0.50499  0.28322  1.0000
  H   H26       1.0  0.32639  0.49031  0.23992  1.0000
  H   H27       1.0  0.36442  0.49584  0.23822  1.0000
  H   H28       1.0  0.40465  0.52742  0.19964  1.0000
  H   H29       1.0  0.44382  0.53589  0.19583  1.0000
  H   H30       1.0  0.46686  0.58160  0.33675  1.0000
  H   H31       1.0  0.55062  0.64132  0.18965  1.0000
  H   H32       1.0  0.55999  0.68079  0.18756  1.0000
  H   H33       1.0  0.59427  0.64280  0.32948  1.0000
  H   H34       1.0  0.61557  0.57757  0.19593  1.0000
  H   H35       1.0  0.65486  0.58639  0.19969  1.0000
  H   H36       1.0  0.73319  0.62444  0.24081  1.0000
  H   H37       1.0  0.69491  0.61826  0.23902  1.0000
  H   H38       1.0  0.51959  0.41057  0.23470  1.0000
  H   H39       1.0  0.51409  0.37268  0.23742  1.0000
  H   H40       1.0  0.49947  0.43243  0.18768  1.0000
  H   H41       1.0  0.50850  0.47179  0.18984  1.0000
  H   H42       1.0  0.54049  0.70312  0.23529  1.0000
  H   H43       1.0  0.54663  0.74126  0.23793  1.0000
  C   C72       1.0  0.62608  0.12759  0.25033  1.0000
  C   C73       1.0  0.64917  0.14555  0.24888  1.0000
  C   C74       1.0  0.71326  0.21227  0.27456  1.0000
  C   C75       1.0  0.69082  0.19311  0.27349  1.0000
  C   C76       1.0  0.50897  0.12836  0.25885  1.0000
  C   C77       1.0  0.50360  0.14615  0.26135  1.0000
  C   C78       1.0  0.48020  0.17462  0.28635  1.0000
  C   C79       1.0  0.47653  0.19357  0.28746  1.0000
  C   C80       1.0  0.41637  0.97079  0.24871  1.0000
  C   C81       1.0  0.43953  0.98860  0.25015  1.0000
  C   C82       1.0  0.37429  0.92352  0.27368  1.0000
  C   C83       1.0  0.35170  0.90460  0.27469  1.0000
  C   C84       1.0  0.55638  0.98768  0.25862  1.0000
  C   C85       1.0  0.56154  0.96973  0.26114  1.0000
  C   C86       1.0  0.58764  0.92146  0.28684  1.0000
  C   C87       1.0  0.58436  0.94065  0.28577  1.0000
  H   H44       1.0  0.59902  0.92106  0.24252  1.0000
  H   H45       1.0  0.59351  0.95357  0.24076  1.0000
  H   H46       1.0  0.56192  0.96228  0.20214  1.0000
  H   H47       1.0  0.55346  0.99298  0.19825  1.0000
  H   H48       1.0  0.44822  0.99450  0.19110  1.0000
  H   H49       1.0  0.40875  0.96441  0.18814  1.0000
  H   H50       1.0  0.51176  0.12307  0.19845  1.0000
  H   H51       1.0  0.50294  0.15353  0.20230  1.0000
  H   H52       1.0  0.46490  0.19375  0.24346  1.0000
  H   H53       1.0  0.47107  0.16165  0.24166  1.0000
  H   H54       1.0  0.67863  0.19395  0.23479  1.0000
  H   H55       1.0  0.71653  0.22633  0.23668  1.0000
  H   H56       1.0  0.65672  0.15199  0.18831  1.0000
  H   H57       1.0  0.61736  0.12166  0.19127  1.0000
  H   H58       1.0  0.38634  0.92245  0.23537  1.0000
  H   H59       1.0  0.34820  0.89047  0.23717  1.0000
  C   C88       1.0  0.29885  0.51184  0.26466  1.0000
  N   N5        1.0  0.27826  0.51114  0.26569  1.0000
  C   C89       1.0  0.21695  0.51276  0.25461  1.0000
  H   H60       1.0  0.30684  0.51395  0.20455  1.0000
  N   N6        1.0  0.23653  0.51156  0.26055  1.0000
  H   H61       1.0  0.21148  0.51437  0.19264  1.0000
  C   C90       1.0  0.57747  0.87195  0.26729  1.0000
  N   N7        1.0  0.57818  0.85206  0.26833  1.0000
  C   C91       1.0  0.57655  0.78915  0.25731  1.0000
  H   H62       1.0  0.57538  0.87793  0.20717  1.0000
  N   N8        1.0  0.57775  0.80992  0.26323  1.0000
  H   H63       1.0  0.57495  0.78216  0.19533  1.0000
  C   C92       1.0  0.20605  0.77982  0.34417  1.0000
  C   C93       1.0  0.21749  0.79054  0.26381  1.0000
  N   N9        1.0  0.23737  0.81114  0.26525  1.0000
  C   C94       1.0  0.24729  0.82290  0.34158  1.0000
  C   C95       1.0  0.26846  0.84390  0.33945  1.0000
  C   C96       1.0  0.30028  0.87246  0.25552  1.0000
  C   C97       1.0  0.31187  0.88476  0.33341  1.0000
  H   H64       1.0  0.21159  0.78258  0.20358  1.0000
  N   N10       1.0  0.27951  0.85288  0.26100  1.0000
  H   H65       1.0  0.30736  0.87798  0.19369  1.0000
  C   C98       1.0  0.76143  0.60361  0.26498  1.0000
  N   N11       1.0  0.78221  0.60474  0.26604  1.0000
  C   C99       1.0  0.84419  0.60447  0.25498  1.0000
  H   H66       1.0  0.75339  0.60154  0.20478  1.0000
  N   N12       1.0  0.82439  0.60523  0.26093  1.0000
  H   H67       1.0  0.84975  0.60318  0.19295  1.0000
  C   C100      1.0  0.48574  0.24278  0.26761  1.0000
  N   N13       1.0  0.48461  0.26243  0.26868  1.0000
  C   C101      1.0  0.48486  0.32469  0.25760  1.0000
  H   H68       1.0  0.48781  0.23690  0.20744  1.0000
  N   N14       1.0  0.48411  0.30412  0.26356  1.0000
  H   H69       1.0  0.48616  0.33164  0.19557  1.0000
  C   C102      1.0  0.85779  0.33872  0.34451  1.0000
  C   C103      1.0  0.84645  0.32787  0.26415  1.0000
  N   N15       1.0  0.82681  0.30708  0.26562  1.0000
  C   C104      1.0  0.81704  0.29523  0.34202  1.0000
  C   C105      1.0  0.79609  0.27401  0.33989  1.0000
  C   C106      1.0  0.76454  0.24508  0.25588  1.0000
  C   C107      1.0  0.75309  0.23267  0.33380  1.0000
  H   H70       1.0  0.85225  0.33587  0.20384  1.0000
  N   N16       1.0  0.78512  0.26489  0.26140  1.0000
  H   H71       1.0  0.75751  0.23947  0.19401  1.0000
  C   C108      1.0  0.98074  0.51769  0.33144  1.0000
  C   C109      1.0  0.94464  0.59041  0.40730  1.0000
  C   C110      1.0  0.96252  0.58517  0.40853  1.0000
  C   C111      1.0  0.91552  0.61314  0.37999  1.0000
  C   C112      1.0  0.89635  0.61644  0.38149  1.0000
  C   C113      1.0  0.87666  0.60283  0.32813  1.0000
  C   C114      1.0  0.94535  0.44284  0.41829  1.0000
  C   C115      1.0  0.96319  0.46597  0.41591  1.0000
  C   C116      1.0  0.87890  0.37831  0.40464  1.0000
  C   C117      1.0  0.89780  0.40090  0.40310  1.0000
  C   C118      1.0  0.09992  0.53377  0.40831  1.0000
  C   C119      1.0  0.11766  0.52832  0.40709  1.0000
  C   C120      1.0  0.16509  0.50132  0.38077  1.0000
  C   C121      1.0  0.14617  0.50501  0.37934  1.0000
  C   C122      1.0  0.09943  0.65323  0.41571  1.0000
  C   C123      1.0  0.11742  0.67630  0.41809  1.0000
  C   C124      1.0  0.16525  0.71780  0.40333  1.0000
  C   C125      1.0  0.18439  0.74026  0.40485  1.0000
  H   H72       1.0  0.19744  0.74378  0.44897  1.0000
  H   H73       1.0  0.16512  0.70585  0.44646  1.0000
  H   H74       1.0  0.12273  0.68414  0.47894  1.0000
  H   H75       1.0  0.09238  0.64483  0.47448  1.0000
  H   H76       1.0  0.09353  0.53525  0.46838  1.0000
  H   H77       1.0  0.12390  0.52626  0.46681  1.0000
  H   H78       1.0  0.94337  0.53472  0.33262  1.0000
  H   H79       1.0  0.97022  0.47436  0.47469  1.0000
  H   H80       1.0  0.94011  0.43494  0.47915  1.0000
  H   H81       1.0  0.89772  0.41274  0.44592  1.0000
  H   H82       1.0  0.86580  0.37456  0.44854  1.0000
  H   H83       1.0  0.96892  0.58356  0.46862  1.0000
  H   H84       1.0  0.93831  0.59219  0.46702  1.0000
  H   H85       1.0  0.89698  0.62903  0.42189  1.0000
  H   H86       1.0  0.92943  0.62345  0.41932  1.0000
  H   H87       1.0  0.13219  0.49474  0.41833  1.0000
  H   H88       1.0  0.16423  0.48850  0.42081  1.0000
  C   C126      1.0  0.46091  0.49968  0.33157  1.0000
  C   C127      1.0  0.47279  0.48776  0.33071  1.0000
  C   C128      1.0  0.49638  0.50378  0.33190  1.0000
  N   N17       1.0  0.49791  0.52473  0.33316  1.0000
  C   C129      1.0  0.47697  0.52325  0.33307  1.0000
  C   C130      1.0  0.47140  0.54115  0.33422  1.0000
  C   C131      1.0  0.48777  0.56509  0.33410  1.0000
  N   N18       1.0  0.51100  0.57527  0.33264  1.0000
  C   C132      1.0  0.54518  0.61484  0.33177  1.0000
  C   C133      1.0  0.56304  0.60922  0.33175  1.0000
  N   N19       1.0  0.56151  0.58826  0.33308  1.0000
  C   C134      1.0  0.58245  0.58974  0.33308  1.0000
  C   C135      1.0  0.59851  0.61332  0.33157  1.0000
  C   C136      1.0  0.58663  0.62524  0.33061  1.0000
  C   C137      1.0  0.58802  0.57185  0.33433  1.0000
  C   C138      1.0  0.57166  0.54790  0.33429  1.0000
  N   N20       1.0  0.54842  0.53772  0.33288  1.0000
  C   C139      1.0  0.53820  0.51448  0.33310  1.0000
  C   C140      1.0  0.55605  0.50942  0.33463  1.0000
  C   C141      1.0  0.57667  0.53001  0.33553  1.0000
  C   C142      1.0  0.51424  0.49816  0.33203  1.0000
  C   C143      1.0  0.50776  0.47441  0.33081  1.0000
  C   C144      1.0  0.49728  0.42756  0.32851  1.0000
  C   C145      1.0  0.49893  0.43895  0.41008  1.0000
  C   C146      1.0  0.50415  0.46207  0.41136  1.0000
  C   C147      1.0  0.49320  0.40449  0.32767  1.0000
  C   C148      1.0  0.47618  0.38714  0.38264  1.0000
  C   C149      1.0  0.47288  0.36467  0.38413  1.0000
  C   C150      1.0  0.48649  0.35868  0.33073  1.0000
  C   C151      1.0  0.61176  0.57830  0.33625  1.0000
  C   C152      1.0  0.65870  0.58906  0.34098  1.0000
  C   C153      1.0  0.64654  0.58719  0.42067  1.0000
  C   C154      1.0  0.62340  0.58190  0.41850  1.0000
  C   C155      1.0  0.68188  0.59341  0.34352  1.0000
  C   C156      1.0  0.71109  0.58533  0.40607  1.0000
  C   C157      1.0  0.68848  0.58162  0.40480  1.0000
  C   C158      1.0  0.55168  0.63859  0.33058  1.0000
  C   C159      1.0  0.55560  0.65090  0.41113  1.0000
  C   C160      1.0  0.56104  0.67409  0.40988  1.0000
  C   C161      1.0  0.56259  0.68557  0.32836  1.0000
  C   C162      1.0  0.56700  0.70876  0.32757  1.0000
  C   C163      1.0  0.57448  0.75485  0.33053  1.0000
  C   C164      1.0  0.58801  0.74855  0.38350  1.0000
  C   C165      1.0  0.58434  0.72594  0.38208  1.0000
  C   C166      1.0  0.44767  0.53471  0.33609  1.0000
  C   C167      1.0  0.43609  0.53097  0.41832  1.0000
  C   C168      1.0  0.40087  0.52438  0.34085  1.0000
  C   C169      1.0  0.41302  0.52589  0.42051  1.0000
  C   C170      1.0  0.37780  0.52036  0.34345  1.0000
  C   C171      1.0  0.37149  0.53219  0.40512  1.0000
  C   C172      1.0  0.34903  0.52887  0.40633  1.0000
  H   H89       1.0  0.34548  0.53835  0.45026  1.0000
  H   H90       1.0  0.38342  0.54397  0.44824  1.0000
  H   H91       1.0  0.40516  0.52329  0.48130  1.0000
  H   H92       1.0  0.44448  0.53227  0.47716  1.0000
  H   H93       1.0  0.44334  0.49208  0.33094  1.0000
  H   H94       1.0  0.46516  0.47019  0.32962  1.0000
  H   H95       1.0  0.51225  0.53905  0.33484  1.0000
  H   H96       1.0  0.54717  0.57394  0.33465  1.0000
  H   H97       1.0  0.50482  0.61950  0.33523  1.0000
  H   H98       1.0  0.55410  0.64294  0.47121  1.0000
  H   H99       1.0  0.56309  0.68229  0.46958  1.0000
  H   H100      1.0  0.61607  0.62091  0.33103  1.0000
  H   H101      1.0  0.55462  0.49350  0.33535  1.0000
  H   H102      1.0  0.59257  0.53140  0.33679  1.0000
  H   H103      1.0  0.61503  0.58040  0.47736  1.0000
  H   H104      1.0  0.65446  0.58973  0.48148  1.0000
  H   H105      1.0  0.67668  0.56964  0.44769  1.0000
  H   H106      1.0  0.71486  0.57590  0.44980  1.0000
  H   H107      1.0  0.50578  0.46998  0.47147  1.0000
  H   H108      1.0  0.49713  0.43074  0.46977  1.0000
  H   H109      1.0  0.46029  0.35265  0.42454  1.0000
  H   H110      1.0  0.46588  0.39068  0.42200  1.0000
  H   H111      1.0  0.59461  0.72218  0.42105  1.0000
  H   H112      1.0  0.60084  0.76045  0.42349  1.0000
  C   C173      1.0  0.58967  0.04610  0.33378  1.0000
  C   C174      1.0  0.60158  0.06990  0.33276  1.0000
  C   C175      1.0  0.58556  0.07746  0.33397  1.0000
  N   N21       1.0  0.56461  0.05803  0.33541  1.0000
  C   C176      1.0  0.56609  0.03858  0.33537  1.0000
  C   C177      1.0  0.54820  0.01511  0.33658  1.0000
  C   C178      1.0  0.52425  0.00753  0.33642  1.0000
  N   N22       1.0  0.51407  0.02058  0.33489  1.0000
  C   C179      1.0  0.49083  0.00757  0.33496  1.0000
  C   C180      1.0  0.48577  0.98465  0.33651  1.0000
  C   C181      1.0  0.50636  0.98463  0.33763  1.0000
  C   C182      1.0  0.47451  0.01520  0.33376  1.0000
  C   C183      1.0  0.48013  0.03868  0.33385  1.0000
  N   N23       1.0  0.50108  0.05810  0.33541  1.0000
  C   C184      1.0  0.49960  0.07756  0.33545  1.0000
  C   C185      1.0  0.47602  0.07004  0.33376  1.0000
  C   C186      1.0  0.46410  0.04625  0.33260  1.0000
  C   C187      1.0  0.51749  0.10102  0.33680  1.0000
  C   C188      1.0  0.54144  0.10861  0.33667  1.0000
  N   N24       1.0  0.55161  0.09555  0.33515  1.0000
  C   C189      1.0  0.57485  0.10857  0.33519  1.0000
  C   C190      1.0  0.57991  0.13148  0.33674  1.0000
  C   C191      1.0  0.55933  0.13151  0.33782  1.0000
  C   C192      1.0  0.59118  0.10094  0.33396  1.0000
  C   C193      1.0  0.61492  0.11821  0.33230  1.0000
  C   C194      1.0  0.66176  0.15458  0.32905  1.0000
  C   C195      1.0  0.65048  0.14479  0.41085  1.0000
  C   C196      1.0  0.62736  0.12689  0.41261  1.0000
  C   C197      1.0  0.68484  0.17358  0.32771  1.0000
  C   C198      1.0  0.70226  0.17386  0.38237  1.0000
  C   C199      1.0  0.72473  0.19303  0.38333  1.0000
  C   C200      1.0  0.73065  0.21267  0.32977  1.0000
  C   C201      1.0  0.51103  0.11830  0.33877  1.0000
  C   C202      1.0  0.50027  0.15447  0.34357  1.0000
  C   C203      1.0  0.50214  0.14405  0.42326  1.0000
  C   C204      1.0  0.50744  0.12621  0.42104  1.0000
  C   C205      1.0  0.49591  0.17329  0.34616  1.0000
  C   C206      1.0  0.48839  0.21187  0.34864  1.0000
  C   C207      1.0  0.50399  0.21048  0.40879  1.0000
  C   C208      1.0  0.50769  0.19158  0.40751  1.0000
  C   C209      1.0  0.45076  0.99795  0.33210  1.0000
  C   C210      1.0  0.43834  0.98936  0.41237  1.0000
  C   C211      1.0  0.41515  0.97161  0.41062  1.0000
  C   C212      1.0  0.40378  0.96188  0.32885  1.0000
  C   C213      1.0  0.38058  0.94312  0.32752  1.0000
  C   C214      1.0  0.33448  0.90452  0.32944  1.0000
  C   C215      1.0  0.34071  0.92423  0.38260  1.0000
  C   C216      1.0  0.36333  0.94316  0.38169  1.0000
  C   C217      1.0  0.55464  0.99782  0.33850  1.0000
  C   C218      1.0  0.55838  0.98985  0.42075  1.0000
  C   C219      1.0  0.56497  0.96134  0.34335  1.0000
  C   C220      1.0  0.56347  0.97187  0.42298  1.0000
  C   C221      1.0  0.56899  0.94229  0.34599  1.0000
  C   C222      1.0  0.55716  0.92405  0.40771  1.0000
  C   C223      1.0  0.56046  0.90491  0.40890  1.0000
  C   C224      1.0  0.57573  0.90322  0.34838  1.0000
  H   H113      1.0  0.55099  0.89182  0.45289  1.0000
  H   H114      1.0  0.54538  0.92415  0.45080  1.0000
  H   H115      1.0  0.56606  0.96651  0.48379  1.0000
  H   H116      1.0  0.55708  0.99686  0.47958  1.0000
  H   H117      1.0  0.59727  0.03613  0.33314  1.0000
  H   H118      1.0  0.61915  0.07984  0.33155  1.0000
  H   H119      1.0  0.55029  0.05805  0.33705  1.0000
  H   H120      1.0  0.51540  0.05808  0.33720  1.0000
  H   H121      1.0  0.50775  0.97011  0.33900  1.0000
  H   H122      1.0  0.46985  0.97016  0.33725  1.0000
  H   H123      1.0  0.44622  0.99568  0.47264  1.0000
  H   H124      1.0  0.40686  0.96533  0.47015  1.0000
  H   H125      1.0  0.44654  0.03631  0.33128  1.0000
  H   H126      1.0  0.46842  0.08001  0.33312  1.0000
  H   H127      1.0  0.59584  0.14598  0.33733  1.0000
  H   H128      1.0  0.55793  0.14602  0.33911  1.0000
  H   H129      1.0  0.50893  0.11923  0.47989  1.0000
  H   H130      1.0  0.49961  0.14933  0.48407  1.0000
  H   H131      1.0  0.51970  0.19171  0.45030  1.0000
  H   H132      1.0  0.51345  0.22363  0.45243  1.0000
  H   H133      1.0  0.61953  0.12055  0.47288  1.0000
  H   H134      1.0  0.65877  0.15115  0.47039  1.0000
  H   H135      1.0  0.73681  0.19243  0.42350  1.0000
  H   H136      1.0  0.69877  0.15998  0.42181  1.0000
  H   H137      1.0  0.36704  0.95710  0.42080  1.0000
  H   H138      1.0  0.32876  0.92506  0.42238  1.0000
  C   C225      1.0  0.30951  0.51104  0.34525  1.0000
  C   C226      1.0  0.26645  0.50924  0.34181  1.0000
  C   C227      1.0  0.27590  0.50783  0.42505  1.0000
  C   C228      1.0  0.29742  0.50874  0.42554  1.0000
  H   H139      1.0  0.30445  0.50788  0.48527  1.0000
  C   C229      1.0  0.24546  0.50943  0.33923  1.0000
  C   C230      1.0  0.20460  0.51200  0.33226  1.0000
  C   C231      1.0  0.21332  0.50937  0.41508  1.0000
  C   C232      1.0  0.23375  0.50815  0.41981  1.0000
  C   C233      1.0  0.24303  0.50629  0.50211  1.0000
  C   C234      1.0  0.26392  0.50610  0.50470  1.0000
  H   H140      1.0  0.23487  0.50543  0.56084  1.0000
  H   H141      1.0  0.27053  0.50516  0.56527  1.0000
  H   H142      1.0  0.20525  0.50930  0.47314  1.0000
  C   C235      1.0  0.57828  0.88329  0.34787  1.0000
  C   C236      1.0  0.58008  0.84203  0.34446  1.0000
  C   C237      1.0  0.58150  0.85278  0.42770  1.0000
  C   C238      1.0  0.58059  0.87339  0.42817  1.0000
  H   H143      1.0  0.58146  0.88119  0.48789  1.0000
  C   C239      1.0  0.57988  0.82085  0.34190  1.0000
  C   C240      1.0  0.57733  0.77745  0.33495  1.0000
  C   C241      1.0  0.57994  0.78866  0.41778  1.0000
  C   C242      1.0  0.58117  0.81031  0.42249  1.0000
  C   C243      1.0  0.58304  0.82133  0.50478  1.0000
  C   C244      1.0  0.58322  0.84240  0.50735  1.0000
  H   H144      1.0  0.58391  0.81394  0.56351  1.0000
  H   H145      1.0  0.58418  0.84987  0.56792  1.0000
  H   H146      1.0  0.58004  0.78059  0.47583  1.0000
  C   C245      1.0  0.23644  0.81339  0.42460  1.0000
  C   C246      1.0  0.21584  0.79185  0.42466  1.0000
  H   H147      1.0  0.20796  0.78479  0.48423  1.0000
  C   C247      1.0  0.30054  0.87599  0.41599  1.0000
  C   C248      1.0  0.27890  0.85555  0.42025  1.0000
  C   C249      1.0  0.26776  0.84621  0.50231  1.0000
  C   C250      1.0  0.24669  0.82531  0.50446  1.0000
  H   H148      1.0  0.27507  0.85433  0.56120  1.0000
  H   H149      1.0  0.23915  0.81865  0.56487  1.0000
  H   H150      1.0  0.30855  0.88401  0.47422  1.0000
  C   C251      1.0  0.75065  0.60394  0.34557  1.0000
  C   C252      1.0  0.79412  0.60665  0.34223  1.0000
  C   C253      1.0  0.78454  0.60760  0.42549  1.0000
  C   C254      1.0  0.76281  0.60624  0.42593  1.0000
  H   H151      1.0  0.75570  0.60677  0.48567  1.0000
  C   C255      1.0  0.81533  0.60691  0.33966  1.0000
  C   C256      1.0  0.85666  0.60526  0.33264  1.0000
  C   C257      1.0  0.84780  0.60742  0.41554  1.0000
  C   C258      1.0  0.82714  0.60819  0.42029  1.0000
  C   C259      1.0  0.81772  0.60960  0.50262  1.0000
  C   C260      1.0  0.79661  0.60932  0.50520  1.0000
  H   H152      1.0  0.82596  0.61045  0.56138  1.0000
  H   H153      1.0  0.78992  0.60995  0.56579  1.0000
  H   H154      1.0  0.85597  0.60750  0.47359  1.0000
  C   C261      1.0  0.48541  0.23154  0.34821  1.0000
  C   C262      1.0  0.48270  0.27231  0.34487  1.0000
  C   C263      1.0  0.48174  0.26165  0.42814  1.0000
  C   C264      1.0  0.48311  0.24128  0.42858  1.0000
  H   H155      1.0  0.48257  0.23354  0.48833  1.0000
  C   C265      1.0  0.48242  0.29326  0.34229  1.0000
  C   C266      1.0  0.48408  0.33625  0.33527  1.0000
  C   C267      1.0  0.48190  0.32510  0.41816  1.0000
  C   C268      1.0  0.48114  0.30366  0.42292  1.0000
  C   C269      1.0  0.47974  0.29272  0.50525  1.0000
  C   C270      1.0  0.48001  0.27187  0.50784  1.0000
  H   H156      1.0  0.47888  0.30001  0.56401  1.0000
  H   H157      1.0  0.47940  0.26447  0.56843  1.0000
  H   H158      1.0  0.48184  0.33310  0.47622  1.0000
  C   C271      1.0  0.82781  0.30486  0.42507  1.0000
  C   C272      1.0  0.84817  0.32660  0.42508  1.0000
  H   H159      1.0  0.85599  0.33376  0.48467  1.0000
  C   C273      1.0  0.76435  0.24159  0.41646  1.0000
  C   C274      1.0  0.78580  0.26226  0.42075  1.0000
  C   C275      1.0  0.79686  0.27173  0.50285  1.0000
  C   C276      1.0  0.81770  0.29285  0.50499  1.0000
  H   H160      1.0  0.78965  0.26354  0.56176  1.0000
  H   H161      1.0  0.82520  0.29959  0.56542  1.0000
  H   H162      1.0  0.75644  0.23347  0.47469  1.0000
