data_image0
_chemical_formula_structural       C4NC2NHC4NC2NHC4NC2NHC2H2OHC2H2OHC2H2OHC2H2O2HC2H2O2HC2H2O2HCNCNCNC18H12CNCNCNC18H12CNCNCNC18H12CNCNCNC18H12CNCNCNC18H12CNCNCNC18H12C2H2OCO2HC2H2OCO2HC2H2OCO2HC4NC2NOHCOC4NC2NOHCOC4NC2NOHCOC4NC2NHCOC4NC2NHCOC4NC2NHCO
_chemical_formula_sum              "C207 N36 H108 O27"
_cell_length_a       60.333
_cell_length_b       60.333
_cell_length_c       15.0009
_cell_angle_alpha    90
_cell_angle_beta     90
_cell_angle_gamma    120

_space_group_name_H-M_alt    "P 1"
_space_group_IT_number       1

loop_
  _space_group_symop_operation_xyz
  'x, y, z'

loop_
  _atom_site_type_symbol
  _atom_site_label
  _atom_site_symmetry_multiplicity
  _atom_site_fract_x
  _atom_site_fract_y
  _atom_site_fract_z
  _atom_site_occupancy
  C   C1        1.0  0.02720  0.51145  0.31273  1.0000
  C   C2        1.0  0.01337  0.50762  0.23242  1.0000
  C   C3        1.0  0.98612  0.49388  0.23158  1.0000
  C   C4        1.0  0.97274  0.48405  0.31328  1.0000
  N   N1        1.0  0.97415  0.49034  0.15076  1.0000
  C   C5        1.0  0.98709  0.49938  0.07267  1.0000
  C   C6        1.0  0.01409  0.51306  0.07347  1.0000
  N   N2        1.0  0.02583  0.51634  0.15349  1.0000
  H   H1        1.0  0.95557  0.48062  0.14722  1.0000
  C   C7        1.0  0.48851  0.51571  0.31239  1.0000
  C   C8        1.0  0.49234  0.50569  0.23215  1.0000
  C   C9        1.0  0.50607  0.49217  0.23146  1.0000
  C   C10       1.0  0.51589  0.48864  0.31323  1.0000
  N   N3        1.0  0.50962  0.48371  0.15071  1.0000
  C   C11       1.0  0.50059  0.48760  0.07255  1.0000
  C   C12       1.0  0.48692  0.50092  0.07322  1.0000
  N   N4        1.0  0.48363  0.50940  0.15317  1.0000
  H   H2        1.0  0.51934  0.47485  0.14725  1.0000
  C   C13       1.0  0.48427  0.97284  0.31244  1.0000
  C   C14       1.0  0.49428  0.98669  0.23217  1.0000
  C   C15       1.0  0.50779  0.01394  0.23140  1.0000
  C   C16       1.0  0.51133  0.02730  0.31313  1.0000
  N   N5        1.0  0.51622  0.02592  0.15061  1.0000
  C   C17       1.0  0.51233  0.01299  0.07248  1.0000
  C   C18       1.0  0.49901  0.98600  0.07322  1.0000
  N   N6        1.0  0.49055  0.97424  0.15320  1.0000
  H   H3        1.0  0.52508  0.04451  0.14710  1.0000
  C   C19       1.0  0.24987  0.52099  0.26458  1.0000
  C   C20       1.0  0.27338  0.52143  0.26433  1.0000
  H   H4        1.0  0.28345  0.52569  0.20587  1.0000
  H   H5        1.0  0.24368  0.52478  0.20597  1.0000
  O   O1        1.0  0.27413  0.49517  0.04524  1.0000
  H   H6        1.0  0.25791  0.48278  0.04498  1.0000
  C   C21       1.0  0.47887  0.72876  0.26453  1.0000
  C   C22       1.0  0.47832  0.75177  0.26412  1.0000
  H   H7        1.0  0.47406  0.75752  0.20550  1.0000
  H   H8        1.0  0.47494  0.71869  0.20608  1.0000
  O   O2        1.0  0.50468  0.77895  0.04525  1.0000
  H   H9        1.0  0.51701  0.77502  0.04511  1.0000
  C   C23       1.0  0.27125  0.75031  0.26479  1.0000
  C   C24       1.0  0.24824  0.72676  0.26392  1.0000
  H   H10       1.0  0.24254  0.71684  0.20511  1.0000
  H   H11       1.0  0.28135  0.75664  0.20644  1.0000
  O   O3        1.0  0.22047  0.72504  0.04449  1.0000
  H   H12       1.0  0.22428  0.74125  0.04461  1.0000
  C   C25       1.0  0.75330  0.47900  0.26533  1.0000
  C   C26       1.0  0.72985  0.47856  0.26026  1.0000
  H   H13       1.0  0.72069  0.47465  0.19995  1.0000
  H   H14       1.0  0.76020  0.47520  0.20841  1.0000
  O   O4        1.0  0.76215  0.48612  0.00057  1.0000
  O   O5        1.0  0.72312  0.50359  0.03996  1.0000
  H   H15       1.0  0.73940  0.51579  0.04242  1.0000
  C   C27       1.0  0.52086  0.27422  0.26578  1.0000
  C   C28       1.0  0.52115  0.25113  0.26065  1.0000
  H   H16       1.0  0.52516  0.24592  0.20045  1.0000
  H   H17       1.0  0.52460  0.28489  0.20881  1.0000
  O   O6        1.0  0.51384  0.27612  0.00102  1.0000
  O   O7        1.0  0.49629  0.21941  0.04016  1.0000
  H   H18       1.0  0.48404  0.22342  0.04261  1.0000
  C   C29       1.0  0.72574  0.24669  0.26559  1.0000
  C   C30       1.0  0.74879  0.27013  0.26063  1.0000
  H   H19       1.0  0.75398  0.27933  0.20040  1.0000
  H   H20       1.0  0.71502  0.23988  0.20867  1.0000
  O   O8        1.0  0.72380  0.23767  0.00074  1.0000
  O   O9        1.0  0.78032  0.27660  0.04048  1.0000
  H   H21       1.0  0.77621  0.26031  0.04287  1.0000
  C   C31       1.0  0.17540  0.60625  0.33258  1.0000
  N   N7        1.0  0.14948  0.59264  0.32557  1.0000
  C   C32       1.0  0.13623  0.56655  0.32314  1.0000
  N   N8        1.0  0.14983  0.55410  0.32763  1.0000
  C   C33       1.0  0.17576  0.56677  0.33427  1.0000
  N   N9        1.0  0.18776  0.59269  0.33680  1.0000
  C   C34       1.0  0.10901  0.55273  0.31922  1.0000
  C   C35       1.0  0.09507  0.56488  0.29376  1.0000
  C   C36       1.0  0.06816  0.55128  0.29097  1.0000
  C   C37       1.0  0.05435  0.52516  0.31485  1.0000
  C   C38       1.0  0.06804  0.51292  0.34105  1.0000
  C   C39       1.0  0.09495  0.52645  0.34243  1.0000
  C   C40       1.0  0.18962  0.63346  0.33744  1.0000
  C   C41       1.0  0.17927  0.64891  0.30993  1.0000
  C   C42       1.0  0.19413  0.67587  0.31212  1.0000
  C   C43       1.0  0.21948  0.68802  0.34457  1.0000
  C   C44       1.0  0.22979  0.67274  0.37300  1.0000
  C   C45       1.0  0.21514  0.64598  0.36930  1.0000
  C   C46       1.0  0.19032  0.55412  0.33935  1.0000
  C   C47       1.0  0.21629  0.56781  0.36645  1.0000
  C   C48       1.0  0.23126  0.55604  0.36964  1.0000
  C   C49       1.0  0.22082  0.53010  0.34546  1.0000
  C   C50       1.0  0.19501  0.51616  0.31811  1.0000
  C   C51       1.0  0.17989  0.52798  0.31618  1.0000
  H   H22       1.0  0.18636  0.68656  0.28996  1.0000
  H   H23       1.0  0.16103  0.64069  0.28540  1.0000
  H   H24       1.0  0.24830  0.68098  0.39522  1.0000
  H   H25       1.0  0.22355  0.63580  0.39051  1.0000
  H   H26       1.0  0.22481  0.58668  0.38435  1.0000
  H   H27       1.0  0.25005  0.56676  0.38856  1.0000
  H   H28       1.0  0.16131  0.51742  0.29525  1.0000
  H   H29       1.0  0.18711  0.49740  0.29942  1.0000
  H   H30       1.0  0.10411  0.51688  0.36229  1.0000
  H   H31       1.0  0.05853  0.49397  0.35842  1.0000
  H   H32       1.0  0.05872  0.56070  0.27242  1.0000
  H   H33       1.0  0.10434  0.58379  0.27610  1.0000
  C   C52       1.0  0.39368  0.56903  0.33317  1.0000
  N   N10       1.0  0.40729  0.55675  0.32569  1.0000
  C   C53       1.0  0.43338  0.56961  0.32291  1.0000
  N   N11       1.0  0.44581  0.59566  0.32747  1.0000
  C   C54       1.0  0.43312  0.60889  0.33456  1.0000
  N   N12       1.0  0.40720  0.59495  0.33747  1.0000
  C   C55       1.0  0.44722  0.55624  0.31877  1.0000
  C   C56       1.0  0.43507  0.53014  0.29336  1.0000
  C   C57       1.0  0.44868  0.51684  0.29054  1.0000
  C   C58       1.0  0.47480  0.52916  0.31437  1.0000
  C   C59       1.0  0.48705  0.55510  0.34050  1.0000
  C   C60       1.0  0.47350  0.56847  0.34188  1.0000
  C   C61       1.0  0.36648  0.55600  0.33842  1.0000
  C   C62       1.0  0.35101  0.53038  0.30917  1.0000
  C   C63       1.0  0.32406  0.51828  0.31153  1.0000
  C   C64       1.0  0.31192  0.53129  0.34590  1.0000
  C   C65       1.0  0.32722  0.55671  0.37606  1.0000
  C   C66       1.0  0.35398  0.56883  0.37221  1.0000
  C   C67       1.0  0.44575  0.63610  0.33970  1.0000
  C   C68       1.0  0.43213  0.64834  0.36797  1.0000
  C   C69       1.0  0.44389  0.67509  0.37114  1.0000
  C   C70       1.0  0.46973  0.69061  0.34579  1.0000
  C   C71       1.0  0.48359  0.67876  0.31726  1.0000
  C   C72       1.0  0.47180  0.65183  0.31538  1.0000
  H   H34       1.0  0.31336  0.49999  0.28795  1.0000
  H   H35       1.0  0.35923  0.52051  0.28324  1.0000
  H   H36       1.0  0.31900  0.56687  0.39951  1.0000
  H   H37       1.0  0.36418  0.58729  0.39464  1.0000
  H   H38       1.0  0.41334  0.63797  0.38672  1.0000
  H   H39       1.0  0.43322  0.68313  0.39087  1.0000
  H   H40       1.0  0.48229  0.64383  0.29356  1.0000
  H   H41       1.0  0.50226  0.68964  0.29765  1.0000
  H   H42       1.0  0.48308  0.58720  0.36171  1.0000
  H   H43       1.0  0.50600  0.56455  0.35782  1.0000
  H   H44       1.0  0.43926  0.49798  0.27206  1.0000
  H   H45       1.0  0.41615  0.52049  0.27576  1.0000
  C   C73       1.0  0.43084  0.82466  0.33309  1.0000
  N   N13       1.0  0.44315  0.85057  0.32567  1.0000
  C   C74       1.0  0.43031  0.86382  0.32309  1.0000
  N   N14       1.0  0.40426  0.85022  0.32782  1.0000
  C   C75       1.0  0.39101  0.82430  0.33489  1.0000
  N   N15       1.0  0.40492  0.81229  0.33757  1.0000
  C   C76       1.0  0.44370  0.89103  0.31894  1.0000
  C   C77       1.0  0.46980  0.90496  0.29345  1.0000
  C   C78       1.0  0.48311  0.93187  0.29061  1.0000
  C   C79       1.0  0.47081  0.94569  0.31448  1.0000
  C   C80       1.0  0.44488  0.93201  0.34068  1.0000
  C   C81       1.0  0.43150  0.90510  0.34209  1.0000
  C   C82       1.0  0.44384  0.81045  0.33811  1.0000
  C   C83       1.0  0.46951  0.82065  0.30933  1.0000
  C   C84       1.0  0.48159  0.80578  0.31149  1.0000
  C   C85       1.0  0.46851  0.78056  0.34526  1.0000
  C   C86       1.0  0.44305  0.77041  0.37504  1.0000
  C   C87       1.0  0.43095  0.78507  0.37132  1.0000
  C   C88       1.0  0.36381  0.80976  0.34023  1.0000
  C   C89       1.0  0.35156  0.78393  0.36889  1.0000
  C   C90       1.0  0.32482  0.76896  0.37216  1.0000
  C   C91       1.0  0.30929  0.77925  0.34648  1.0000
  C   C92       1.0  0.32115  0.80493  0.31759  1.0000
  C   C93       1.0  0.34809  0.82007  0.31566  1.0000
  H   H46       1.0  0.49992  0.81341  0.28828  1.0000
  H   H47       1.0  0.47942  0.83878  0.28376  1.0000
  H   H48       1.0  0.43286  0.75199  0.39816  1.0000
  H   H49       1.0  0.41246  0.77678  0.39347  1.0000
  H   H50       1.0  0.36193  0.77552  0.38782  1.0000
  H   H51       1.0  0.31676  0.75026  0.39206  1.0000
  H   H52       1.0  0.35609  0.83853  0.29350  1.0000
  H   H53       1.0  0.31028  0.81271  0.29768  1.0000
  H   H54       1.0  0.41277  0.89595  0.36199  1.0000
  H   H55       1.0  0.43544  0.94153  0.35805  1.0000
  H   H56       1.0  0.50197  0.94130  0.27208  1.0000
  H   H57       1.0  0.47944  0.89568  0.27584  1.0000
  C   C94       1.0  0.82400  0.39143  0.33621  1.0000
  N   N16       1.0  0.84999  0.40462  0.33161  1.0000
  C   C95       1.0  0.86385  0.43071  0.33132  1.0000
  N   N17       1.0  0.85074  0.44366  0.33601  1.0000
  C   C96       1.0  0.82482  0.43149  0.34159  1.0000
  N   N18       1.0  0.81223  0.40555  0.34133  1.0000
  C   C97       1.0  0.89110  0.44404  0.32699  1.0000
  C   C98       1.0  0.90501  0.43096  0.33692  1.0000
  C   C99       1.0  0.93190  0.44412  0.33320  1.0000
  C   C100      1.0  0.94568  0.47077  0.31836  1.0000
  C   C101      1.0  0.93212  0.48406  0.30857  1.0000
  C   C102      1.0  0.90524  0.47087  0.31310  1.0000
  C   C103      1.0  0.80916  0.36415  0.33562  1.0000
  C   C104      1.0  0.82054  0.34849  0.33525  1.0000
  C   C105      1.0  0.80545  0.32154  0.33551  1.0000
  C   C106      1.0  0.77851  0.30958  0.33509  1.0000
  C   C107      1.0  0.76699  0.32497  0.33549  1.0000
  C   C108      1.0  0.78205  0.35173  0.33565  1.0000
  C   C109      1.0  0.81080  0.44466  0.34741  1.0000
  C   C110      1.0  0.78522  0.43171  0.37866  1.0000
  C   C111      1.0  0.77061  0.44388  0.38146  1.0000
  C   C112      1.0  0.78105  0.46948  0.35287  1.0000
  C   C113      1.0  0.80652  0.48265  0.32151  1.0000
  C   C114      1.0  0.82132  0.47050  0.32021  1.0000
  H   H58       1.0  0.81420  0.31074  0.33624  1.0000
  H   H59       1.0  0.84002  0.35655  0.33565  1.0000
  H   H60       1.0  0.74747  0.31682  0.33640  1.0000
  H   H61       1.0  0.77270  0.36195  0.33604  1.0000
  H   H62       1.0  0.77670  0.41307  0.39937  1.0000
  H   H63       1.0  0.75198  0.43358  0.40246  1.0000
  H   H64       1.0  0.83959  0.48044  0.29587  1.0000
  H   H65       1.0  0.81433  0.50104  0.29874  1.0000
  H   H66       1.0  0.89616  0.48121  0.30518  1.0000
  H   H67       1.0  0.94171  0.50342  0.29808  1.0000
  H   H68       1.0  0.94133  0.43406  0.34042  1.0000
  H   H69       1.0  0.89574  0.41163  0.34771  1.0000
  C   C115      1.0  0.60847  0.43248  0.33615  1.0000
  N   N19       1.0  0.59529  0.44529  0.33170  1.0000
  C   C116      1.0  0.56920  0.43307  0.33153  1.0000
  N   N20       1.0  0.55625  0.40701  0.33619  1.0000
  C   C117      1.0  0.56841  0.39324  0.34163  1.0000
  N   N21       1.0  0.59436  0.40659  0.34125  1.0000
  C   C118      1.0  0.55588  0.44699  0.32723  1.0000
  C   C119      1.0  0.56896  0.47397  0.33711  1.0000
  C   C120      1.0  0.55581  0.48772  0.33331  1.0000
  C   C121      1.0  0.52916  0.47485  0.31845  1.0000
  C   C122      1.0  0.51586  0.44800  0.30875  1.0000
  C   C123      1.0  0.52905  0.43430  0.31335  1.0000
  C   C124      1.0  0.63575  0.44491  0.33540  1.0000
  C   C125      1.0  0.65142  0.47195  0.33560  1.0000
  C   C126      1.0  0.67837  0.48380  0.33581  1.0000
  C   C127      1.0  0.69032  0.46880  0.33472  1.0000
  C   C128      1.0  0.67492  0.44190  0.33441  1.0000
  C   C129      1.0  0.64817  0.43021  0.33470  1.0000
  C   C130      1.0  0.55524  0.36605  0.34740  1.0000
  C   C131      1.0  0.56823  0.35340  0.37796  1.0000
  C   C132      1.0  0.55604  0.32662  0.38084  1.0000
  C   C133      1.0  0.53036  0.31148  0.35293  1.0000
  C   C134      1.0  0.51714  0.32379  0.32225  1.0000
  C   C135      1.0  0.52933  0.35075  0.32091  1.0000
  H   H70       1.0  0.68918  0.50334  0.33701  1.0000
  H   H71       1.0  0.64337  0.48337  0.33658  1.0000
  H   H72       1.0  0.68306  0.43052  0.33479  1.0000
  H   H73       1.0  0.63793  0.41064  0.33459  1.0000
  H   H74       1.0  0.58692  0.36350  0.39818  1.0000
  H   H75       1.0  0.56635  0.31826  0.40139  1.0000
  H   H76       1.0  0.51934  0.35909  0.29710  1.0000
  H   H77       1.0  0.49868  0.31322  0.30010  1.0000
  H   H78       1.0  0.51870  0.41487  0.30546  1.0000
  H   H79       1.0  0.49650  0.43822  0.29823  1.0000
  H   H80       1.0  0.56588  0.50721  0.34045  1.0000
  H   H81       1.0  0.58829  0.48404  0.34787  1.0000
  C   C136      1.0  0.56740  0.17603  0.33613  1.0000
  N   N22       1.0  0.55461  0.15004  0.33159  1.0000
  C   C137      1.0  0.56684  0.13619  0.33129  1.0000
  N   N23       1.0  0.59290  0.14931  0.33589  1.0000
  C   C138      1.0  0.60666  0.17523  0.34140  1.0000
  N   N24       1.0  0.59329  0.18781  0.34117  1.0000
  C   C139      1.0  0.55293  0.10894  0.32697  1.0000
  C   C140      1.0  0.52595  0.09502  0.33688  1.0000
  C   C141      1.0  0.51222  0.06813  0.33313  1.0000
  C   C142      1.0  0.52510  0.05436  0.31827  1.0000
  C   C143      1.0  0.55195  0.06793  0.30851  1.0000
  C   C144      1.0  0.56563  0.09480  0.31307  1.0000
  C   C145      1.0  0.55495  0.19086  0.33556  1.0000
  C   C146      1.0  0.52791  0.17946  0.33533  1.0000
  C   C147      1.0  0.51603  0.19453  0.33564  1.0000
  C   C148      1.0  0.53100  0.22148  0.33515  1.0000
  C   C149      1.0  0.55791  0.23301  0.33535  1.0000
  C   C150      1.0  0.56962  0.21797  0.33548  1.0000
  C   C151      1.0  0.63384  0.18925  0.34715  1.0000
  C   C152      1.0  0.64649  0.21487  0.37798  1.0000
  C   C153      1.0  0.67327  0.22946  0.38084  1.0000
  C   C154      1.0  0.68841  0.21896  0.35266  1.0000
  C   C155      1.0  0.67611  0.19345  0.32173  1.0000
  C   C156      1.0  0.64914  0.17867  0.32037  1.0000
  H   H82       1.0  0.49648  0.18577  0.33648  1.0000
  H   H83       1.0  0.51650  0.15998  0.33581  1.0000
  H   H84       1.0  0.56926  0.25254  0.33618  1.0000
  H   H85       1.0  0.58919  0.22733  0.33575  1.0000
  H   H86       1.0  0.63639  0.22343  0.39842  1.0000
  H   H87       1.0  0.68162  0.24811  0.40164  1.0000
  H   H88       1.0  0.64081  0.16036  0.29639  1.0000
  H   H89       1.0  0.68668  0.18558  0.29938  1.0000
  H   H90       1.0  0.58506  0.10390  0.30516  1.0000
  H   H91       1.0  0.56173  0.05835  0.29800  1.0000
  H   H92       1.0  0.49273  0.05870  0.34032  1.0000
  H   H93       1.0  0.51588  0.10428  0.34768  1.0000
  C   C157      1.0  0.98665  0.48768  0.39291  1.0000
  C   C158      1.0  0.01350  0.50113  0.39260  1.0000
  H   H94       1.0  0.02297  0.50368  0.45169  1.0000
  H   H95       1.0  0.97732  0.48081  0.45235  1.0000
  O   O10       1.0  0.97381  0.49449  0.66204  1.0000
  C   C159      1.0  0.02865  0.52250  0.66323  1.0000
  O   O11       1.0  0.04894  0.52263  0.65843  1.0000
  O   O12       1.0  0.02717  0.53829  0.61468  1.0000
  H   H96       1.0  0.01486  0.54221  0.61682  1.0000
  C   C160      1.0  0.51226  0.49894  0.39278  1.0000
  C   C161      1.0  0.49882  0.51235  0.39232  1.0000
  H   H97       1.0  0.49627  0.51931  0.45136  1.0000
  H   H98       1.0  0.51913  0.49651  0.45225  1.0000
  O   O13       1.0  0.50550  0.47919  0.66199  1.0000
  C   C162      1.0  0.47750  0.50603  0.66289  1.0000
  O   O14       1.0  0.47738  0.52619  0.65800  1.0000
  O   O15       1.0  0.46173  0.48876  0.61434  1.0000
  H   H99       1.0  0.45779  0.47252  0.61652  1.0000
  C   C163      1.0  0.50104  0.01338  0.39272  1.0000
  C   C164      1.0  0.48765  0.98653  0.39234  1.0000
  H   H100      1.0  0.48069  0.97704  0.45140  1.0000
  H   H101      1.0  0.50347  0.02269  0.45217  1.0000
  O   O16       1.0  0.52072  0.02629  0.66187  1.0000
  C   C165      1.0  0.49389  0.97145  0.66293  1.0000
  O   O17       1.0  0.47373  0.95116  0.65811  1.0000
  O   O18       1.0  0.51115  0.97295  0.61433  1.0000
  H   H102      1.0  0.52739  0.98525  0.61647  1.0000
  C   C166      1.0  0.28497  0.52074  0.34521  1.0000
  C   C167      1.0  0.27157  0.51753  0.42607  1.0000
  C   C168      1.0  0.24767  0.51687  0.42721  1.0000
  C   C169      1.0  0.23730  0.51966  0.34561  1.0000
  N   N25       1.0  0.23658  0.51528  0.50852  1.0000
  C   C170      1.0  0.24728  0.51409  0.58698  1.0000
  C   C171      1.0  0.27108  0.51496  0.58594  1.0000
  N   N26       1.0  0.28211  0.51682  0.50535  1.0000
  O   O19       1.0  0.23521  0.51276  0.66469  1.0000
  H   H103      1.0  0.22016  0.51467  0.51162  1.0000
  C   C172      1.0  0.28335  0.51426  0.66324  1.0000
  O   O20       1.0  0.30667  0.52738  0.66579  1.0000
  C   C173      1.0  0.47907  0.76419  0.34475  1.0000
  C   C174      1.0  0.48234  0.75405  0.42566  1.0000
  C   C175      1.0  0.48297  0.73081  0.42708  1.0000
  C   C176      1.0  0.48010  0.71751  0.34571  1.0000
  N   N27       1.0  0.48460  0.72138  0.50851  1.0000
  C   C177      1.0  0.48584  0.73336  0.58683  1.0000
  C   C178      1.0  0.48501  0.75631  0.58550  1.0000
  N   N28       1.0  0.48310  0.76540  0.50481  1.0000
  O   O21       1.0  0.48716  0.72266  0.66467  1.0000
  H   H104      1.0  0.48517  0.70555  0.51182  1.0000
  C   C179      1.0  0.48572  0.76937  0.66253  1.0000
  O   O22       1.0  0.47281  0.77979  0.66539  1.0000
  C   C180      1.0  0.23579  0.71496  0.34434  1.0000
  C   C181      1.0  0.24585  0.72823  0.42553  1.0000
  C   C182      1.0  0.26905  0.75214  0.42739  1.0000
  C   C183      1.0  0.28238  0.76271  0.34619  1.0000
  N   N29       1.0  0.27841  0.76309  0.50900  1.0000
  C   C184      1.0  0.26641  0.75221  0.58713  1.0000
  C   C185      1.0  0.24350  0.72838  0.58540  1.0000
  N   N30       1.0  0.23448  0.71751  0.50450  1.0000
  O   O23       1.0  0.27701  0.76414  0.66518  1.0000
  H   H105      1.0  0.29420  0.77952  0.51258  1.0000
  C   C186      1.0  0.23044  0.71595  0.66233  1.0000
  O   O24       1.0  0.22026  0.69261  0.66430  1.0000
  C   C187      1.0  0.71721  0.47942  0.33825  1.0000
  C   C188      1.0  0.72937  0.48232  0.42163  1.0000
  C   C189      1.0  0.75310  0.48271  0.42781  1.0000
  C   C190      1.0  0.76455  0.47990  0.34885  1.0000
  N   N31       1.0  0.76300  0.48404  0.51122  1.0000
  C   C191      1.0  0.75126  0.48513  0.58722  1.0000
  C   C192      1.0  0.72757  0.48443  0.58125  1.0000
  N   N32       1.0  0.71773  0.48284  0.49858  1.0000
  H   H106      1.0  0.77929  0.48451  0.51776  1.0000
  C   C193      1.0  0.71423  0.48496  0.65576  1.0000
  O   O25       1.0  0.69086  0.47229  0.65461  1.0000
  C   C194      1.0  0.52033  0.23771  0.33883  1.0000
  C   C195      1.0  0.51751  0.24701  0.42223  1.0000
  C   C196      1.0  0.51712  0.27035  0.42830  1.0000
  C   C197      1.0  0.51985  0.28455  0.34926  1.0000
  N   N33       1.0  0.51583  0.27896  0.51166  1.0000
  C   C198      1.0  0.51481  0.26618  0.58772  1.0000
  C   C199      1.0  0.51554  0.24321  0.58187  1.0000
  N   N34       1.0  0.51705  0.23489  0.49922  1.0000
  H   H107      1.0  0.51536  0.29479  0.51809  1.0000
  C   C200      1.0  0.51503  0.22940  0.65657  1.0000
  O   O26       1.0  0.52786  0.21888  0.65496  1.0000
  C   C201      1.0  0.76226  0.28269  0.33876  1.0000
  C   C202      1.0  0.75296  0.27051  0.42205  1.0000
  C   C203      1.0  0.72959  0.24681  0.42804  1.0000
  C   C204      1.0  0.71533  0.23538  0.34904  1.0000
  N   N35       1.0  0.72097  0.23688  0.51138  1.0000
  C   C205      1.0  0.73377  0.24859  0.58747  1.0000
  C   C206      1.0  0.75678  0.27225  0.58167  1.0000
  N   N36       1.0  0.76510  0.28212  0.49907  1.0000
  H   H108      1.0  0.70511  0.22062  0.51778  1.0000
  C   C207      1.0  0.77063  0.28554  0.65629  1.0000
  O   O27       1.0  0.78137  0.30891  0.65526  1.0000
