data_image0
_chemical_formula_structural       C4N2O4C4N2O4C2H2C2H2C4N2O4C4N2O4C2H2C2H2C2H2C2H2C4N2O4C4N2O4C2H2C2H2C4N2O4C4N2O4C4N2O4C4N2O4C2H2C2H2C4N2O4C4N2O4C2H2C2H2C2H2C2H2C2H2C2H2C2H2C2H2C6H3C6H3C6H3C6H3C6H3C6H3C6H3C6H3C6H3C6H3C6H3C6H3C6H3C6H3C6H3C6H3C6H3C6H3C6H3C6H3C2H2C2H2C4N2O4C4N2O4C2H2C2H2C4N2O4C4N2O4C4N2O4C4N2O4C2H2C2H2C4N2O4C4N2O4C2H2C2H2C2H2C2H2C4N2O4C4N2O4C2H2C2H2C4N2O4C4N2O4C4N2O4C4N2O4C4N2O4C4N2O4C4N2O4C4N2O4
_chemical_formula_sum              "C300 N60 O120 H120"
_cell_length_a       55.0828
_cell_length_b       37.8979
_cell_length_c       14.9179
_cell_angle_alpha    90
_cell_angle_beta     90
_cell_angle_gamma    90

_space_group_name_H-M_alt    "P 1"
_space_group_IT_number       1

loop_
  _space_group_symop_operation_xyz
  'x, y, z'

loop_
  _atom_site_type_symbol
  _atom_site_label
  _atom_site_symmetry_multiplicity
  _atom_site_fract_x
  _atom_site_fract_y
  _atom_site_fract_z
  _atom_site_occupancy
  C   C1        1.0  0.18651  0.16336  0.32907  1.0000
  C   C2        1.0  0.15522  0.22317  0.32801  1.0000
  C   C3        1.0  0.16318  0.20802  0.24556  1.0000
  C   C4        1.0  0.17866  0.17798  0.24600  1.0000
  N   N1        1.0  0.15731  0.22266  0.16064  1.0000
  N   N2        1.0  0.18665  0.16512  0.16162  1.0000
  O   O1        1.0  0.16669  0.25244  0.14761  1.0000
  O   O2        1.0  0.18094  0.13339  0.14958  1.0000
  O   O3        1.0  0.13479  0.22445  0.14849  1.0000
  O   O4        1.0  0.20910  0.16886  0.15005  1.0000
  C   C5        1.0  0.81902  0.84212  0.32919  1.0000
  C   C6        1.0  0.85027  0.78223  0.32830  1.0000
  C   C7        1.0  0.84232  0.79740  0.24580  1.0000
  C   C8        1.0  0.82688  0.82746  0.24617  1.0000
  N   N3        1.0  0.84820  0.78276  0.16088  1.0000
  N   N4        1.0  0.81888  0.84030  0.16176  1.0000
  O   O5        1.0  0.83881  0.75300  0.14775  1.0000
  O   O6        1.0  0.82459  0.87202  0.14963  1.0000
  O   O7        1.0  0.87073  0.78094  0.14877  1.0000
  O   O8        1.0  0.79643  0.83655  0.15021  1.0000
  C   C9        1.0  0.82763  0.17772  0.26644  1.0000
  C   C10       1.0  0.84291  0.20732  0.26593  1.0000
  H   H1        1.0  0.84688  0.21884  0.20552  1.0000
  H   H2        1.0  0.82142  0.16817  0.20642  1.0000
  C   C11       1.0  0.17787  0.82774  0.26651  1.0000
  C   C12       1.0  0.16257  0.79814  0.26602  1.0000
  H   H3        1.0  0.15858  0.78664  0.20564  1.0000
  H   H4        1.0  0.18409  0.83728  0.20650  1.0000
  C   C13       1.0  0.68650  0.66340  0.32911  1.0000
  C   C14       1.0  0.65523  0.72319  0.32811  1.0000
  C   C15       1.0  0.66320  0.70810  0.24560  1.0000
  C   C16       1.0  0.67867  0.67806  0.24605  1.0000
  N   N5        1.0  0.65734  0.72277  0.16070  1.0000
  N   N6        1.0  0.68668  0.66521  0.16166  1.0000
  O   O9        1.0  0.66673  0.75254  0.14772  1.0000
  O   O10       1.0  0.68096  0.63349  0.14956  1.0000
  O   O11       1.0  0.63482  0.72457  0.14852  1.0000
  O   O12       1.0  0.70912  0.66895  0.15015  1.0000
  C   C17       1.0  0.31899  0.34212  0.32925  1.0000
  C   C18       1.0  0.35025  0.28227  0.32836  1.0000
  C   C19       1.0  0.34230  0.29742  0.24585  1.0000
  C   C20       1.0  0.32685  0.32748  0.24621  1.0000
  N   N7        1.0  0.34818  0.28278  0.16094  1.0000
  N   N8        1.0  0.31884  0.34030  0.16180  1.0000
  O   O13       1.0  0.33879  0.25301  0.14785  1.0000
  O   O14       1.0  0.32454  0.37203  0.14966  1.0000
  O   O15       1.0  0.37070  0.28097  0.14881  1.0000
  O   O16       1.0  0.29640  0.33654  0.15027  1.0000
  C   C21       1.0  0.32759  0.67776  0.26652  1.0000
  C   C22       1.0  0.34289  0.70736  0.26607  1.0000
  H   H5        1.0  0.34686  0.71888  0.20568  1.0000
  H   H6        1.0  0.32138  0.66823  0.20648  1.0000
  C   C23       1.0  0.67785  0.32779  0.26652  1.0000
  C   C24       1.0  0.66256  0.29818  0.26603  1.0000
  H   H7        1.0  0.65858  0.28667  0.20564  1.0000
  H   H8        1.0  0.68407  0.33732  0.20650  1.0000
  C   C25       1.0  0.21940  0.36423  0.26908  1.0000
  C   C26       1.0  0.19564  0.35099  0.26886  1.0000
  H   H9        1.0  0.18766  0.34536  0.20847  1.0000
  H   H10       1.0  0.22784  0.36870  0.20894  1.0000
  C   C27       1.0  0.78608  0.64118  0.26897  1.0000
  C   C28       1.0  0.80986  0.65440  0.26870  1.0000
  H   H11       1.0  0.81782  0.66005  0.20832  1.0000
  H   H12       1.0  0.77763  0.63672  0.20884  1.0000
  C   C29       1.0  0.77339  0.36948  0.32660  1.0000
  C   C30       1.0  0.82168  0.34321  0.32531  1.0000
  C   C31       1.0  0.80921  0.34897  0.24285  1.0000
  C   C32       1.0  0.78515  0.36252  0.24342  1.0000
  N   N9        1.0  0.81949  0.34096  0.15795  1.0000
  N   N10       1.0  0.77363  0.36725  0.15915  1.0000
  O   O17       1.0  0.82274  0.30849  0.14618  1.0000
  O   O18       1.0  0.76760  0.39877  0.14569  1.0000
  O   O19       1.0  0.83904  0.35719  0.14469  1.0000
  O   O20       1.0  0.75548  0.34756  0.14929  1.0000
  C   C33       1.0  0.23209  0.63603  0.32655  1.0000
  C   C34       1.0  0.18380  0.66227  0.32525  1.0000
  C   C35       1.0  0.19627  0.65654  0.24277  1.0000
  C   C36       1.0  0.22034  0.64300  0.24336  1.0000
  N   N11       1.0  0.18599  0.66457  0.15790  1.0000
  N   N12       1.0  0.23185  0.63827  0.15909  1.0000
  O   O21       1.0  0.18273  0.69704  0.14617  1.0000
  O   O22       1.0  0.23788  0.60675  0.14562  1.0000
  O   O23       1.0  0.16643  0.64833  0.14462  1.0000
  O   O24       1.0  0.25000  0.65795  0.14923  1.0000
  C   C37       1.0  0.71942  0.86419  0.26914  1.0000
  C   C38       1.0  0.69564  0.85097  0.26894  1.0000
  H   H13       1.0  0.68766  0.84534  0.20857  1.0000
  H   H14       1.0  0.72786  0.86864  0.20899  1.0000
  C   C39       1.0  0.28610  0.14119  0.26900  1.0000
  C   C40       1.0  0.30987  0.15441  0.26876  1.0000
  H   H15       1.0  0.31785  0.16007  0.20839  1.0000
  H   H16       1.0  0.27766  0.13670  0.20887  1.0000
  C   C41       1.0  0.27341  0.86947  0.32661  1.0000
  C   C42       1.0  0.32171  0.84326  0.32537  1.0000
  C   C43       1.0  0.30924  0.84898  0.24289  1.0000
  C   C44       1.0  0.28518  0.86251  0.24344  1.0000
  N   N13       1.0  0.31954  0.84096  0.15802  1.0000
  N   N14       1.0  0.27367  0.86723  0.15916  1.0000
  O   O25       1.0  0.32281  0.80849  0.14627  1.0000
  O   O26       1.0  0.26763  0.89874  0.14568  1.0000
  O   O27       1.0  0.33909  0.85721  0.14478  1.0000
  O   O28       1.0  0.25553  0.84753  0.14929  1.0000
  C   C45       1.0  0.73212  0.13605  0.32658  1.0000
  C   C46       1.0  0.68380  0.16229  0.32537  1.0000
  C   C47       1.0  0.69628  0.15655  0.24291  1.0000
  C   C48       1.0  0.72035  0.14302  0.24343  1.0000
  N   N15       1.0  0.68599  0.16457  0.15804  1.0000
  N   N16       1.0  0.73185  0.13829  0.15913  1.0000
  O   O29       1.0  0.68272  0.19704  0.14630  1.0000
  O   O30       1.0  0.73788  0.10677  0.14566  1.0000
  O   O31       1.0  0.66644  0.14832  0.14477  1.0000
  O   O32       1.0  0.75000  0.15798  0.14925  1.0000
  C   C49       1.0  0.04779  0.35309  0.33009  1.0000
  C   C50       1.0  0.09505  0.32172  0.33033  1.0000
  C   C51       1.0  0.08307  0.32914  0.24767  1.0000
  C   C52       1.0  0.05955  0.34478  0.24756  1.0000
  N   N17       1.0  0.09381  0.32234  0.16290  1.0000
  N   N18       1.0  0.04897  0.35196  0.16273  1.0000
  O   O33       1.0  0.11299  0.33960  0.15064  1.0000
  O   O34       1.0  0.02936  0.33566  0.15119  1.0000
  O   O35       1.0  0.09785  0.29011  0.15051  1.0000
  O   O36       1.0  0.04571  0.38435  0.14964  1.0000
  C   C53       1.0  0.95771  0.65233  0.33013  1.0000
  C   C54       1.0  0.91045  0.68368  0.33036  1.0000
  C   C55       1.0  0.92242  0.67627  0.24769  1.0000
  C   C56       1.0  0.94595  0.66064  0.24759  1.0000
  N   N19       1.0  0.91168  0.68306  0.16292  1.0000
  N   N20       1.0  0.95653  0.65346  0.16276  1.0000
  O   O37       1.0  0.89250  0.66579  0.15064  1.0000
  O   O38       1.0  0.97613  0.66976  0.15121  1.0000
  O   O39       1.0  0.90764  0.71529  0.15055  1.0000
  O   O40       1.0  0.95979  0.62106  0.14970  1.0000
  C   C57       1.0  0.94640  0.34269  0.26302  1.0000
  C   C58       1.0  0.92310  0.32753  0.26327  1.0000
  H   H17       1.0  0.91525  0.32113  0.20318  1.0000
  H   H18       1.0  0.95482  0.34700  0.20280  1.0000
  C   C59       1.0  0.05910  0.66279  0.26307  1.0000
  C   C60       1.0  0.08240  0.67795  0.26333  1.0000
  H   H19       1.0  0.09025  0.68434  0.20323  1.0000
  H   H20       1.0  0.05069  0.65845  0.20284  1.0000
  C   C61       1.0  0.54781  0.85314  0.33008  1.0000
  C   C62       1.0  0.59506  0.82176  0.33035  1.0000
  C   C63       1.0  0.58309  0.82918  0.24767  1.0000
  C   C64       1.0  0.55957  0.84482  0.24755  1.0000
  N   N21       1.0  0.59383  0.82238  0.16292  1.0000
  N   N22       1.0  0.54899  0.85199  0.16272  1.0000
  O   O41       1.0  0.61302  0.83964  0.15066  1.0000
  O   O42       1.0  0.52939  0.83570  0.15117  1.0000
  O   O43       1.0  0.59787  0.79015  0.15053  1.0000
  O   O44       1.0  0.54573  0.88439  0.14963  1.0000
  C   C65       1.0  0.45770  0.15237  0.33011  1.0000
  C   C66       1.0  0.41044  0.18372  0.33037  1.0000
  C   C67       1.0  0.42241  0.17630  0.24770  1.0000
  C   C68       1.0  0.44593  0.16067  0.24759  1.0000
  N   N23       1.0  0.41167  0.18309  0.16294  1.0000
  N   N24       1.0  0.45651  0.15349  0.16274  1.0000
  O   O45       1.0  0.39248  0.16583  0.15068  1.0000
  O   O46       1.0  0.47611  0.16979  0.15117  1.0000
  O   O47       1.0  0.40762  0.21533  0.15056  1.0000
  O   O48       1.0  0.45977  0.12110  0.14968  1.0000
  C   C69       1.0  0.44640  0.84273  0.26297  1.0000
  C   C70       1.0  0.42310  0.82756  0.26326  1.0000
  H   H21       1.0  0.41524  0.82120  0.20317  1.0000
  H   H22       1.0  0.45481  0.84708  0.20274  1.0000
  C   C71       1.0  0.55909  0.16281  0.26305  1.0000
  C   C72       1.0  0.58240  0.17796  0.26333  1.0000
  H   H23       1.0  0.59024  0.18435  0.20324  1.0000
  H   H24       1.0  0.55068  0.15847  0.20282  1.0000
  C   C73       1.0  0.00278  0.48420  0.26305  1.0000
  C   C74       1.0  0.00271  0.52126  0.26305  1.0000
  H   H25       1.0  0.00269  0.53426  0.20287  1.0000
  H   H26       1.0  0.00278  0.47120  0.20286  1.0000
  C   C75       1.0  0.50274  0.98423  0.26298  1.0000
  C   C76       1.0  0.50267  0.02128  0.26299  1.0000
  H   H27       1.0  0.50263  0.03429  0.20282  1.0000
  H   H28       1.0  0.50272  0.97122  0.20279  1.0000
  C   C77       1.0  0.21217  0.98422  0.26908  1.0000
  C   C78       1.0  0.21207  0.02121  0.26898  1.0000
  H   H29       1.0  0.21147  0.03420  0.20879  1.0000
  H   H30       1.0  0.21157  0.97122  0.20891  1.0000
  C   C79       1.0  0.79336  0.02122  0.26904  1.0000
  C   C80       1.0  0.79346  0.98424  0.26897  1.0000
  H   H31       1.0  0.79408  0.97124  0.20879  1.0000
  H   H32       1.0  0.79397  0.03423  0.20888  1.0000
  C   C81       1.0  0.71211  0.48426  0.26921  1.0000
  C   C82       1.0  0.71201  0.52125  0.26912  1.0000
  H   H33       1.0  0.71145  0.53423  0.20892  1.0000
  H   H34       1.0  0.71158  0.47127  0.20901  1.0000
  C   C83       1.0  0.29338  0.52125  0.26913  1.0000
  C   C84       1.0  0.29349  0.48426  0.26903  1.0000
  H   H35       1.0  0.29403  0.47127  0.20884  1.0000
  H   H36       1.0  0.29393  0.53424  0.20894  1.0000
  C   C85       1.0  0.16315  0.32037  0.34462  1.0000
  C   C86       1.0  0.16759  0.28386  0.33947  1.0000
  C   C87       1.0  0.14845  0.25932  0.33257  1.0000
  C   C88       1.0  0.12427  0.27188  0.33045  1.0000
  C   C89       1.0  0.11931  0.30861  0.33437  1.0000
  C   C90       1.0  0.13896  0.33263  0.34180  1.0000
  H   H37       1.0  0.11028  0.25423  0.32520  1.0000
  H   H38       1.0  0.13568  0.35922  0.34440  1.0000
  H   H39       1.0  0.18520  0.27493  0.34068  1.0000
  C   C91       1.0  0.84234  0.68505  0.34455  1.0000
  C   C92       1.0  0.83791  0.72156  0.33948  1.0000
  C   C93       1.0  0.85704  0.74610  0.33263  1.0000
  C   C94       1.0  0.88123  0.73353  0.33058  1.0000
  C   C95       1.0  0.88618  0.69680  0.33437  1.0000
  C   C96       1.0  0.86653  0.67278  0.34170  1.0000
  H   H40       1.0  0.89522  0.75118  0.32539  1.0000
  H   H41       1.0  0.86980  0.64619  0.34423  1.0000
  H   H42       1.0  0.82029  0.73049  0.34072  1.0000
  C   C97       1.0  0.84225  0.32077  0.32971  1.0000
  C   C98       1.0  0.83782  0.28426  0.33484  1.0000
  C   C99       1.0  0.85695  0.25972  0.34182  1.0000
  C   C100      1.0  0.88113  0.27227  0.34393  1.0000
  C   C101      1.0  0.88609  0.30899  0.34004  1.0000
  C   C102      1.0  0.86645  0.33302  0.33262  1.0000
  H   H43       1.0  0.89512  0.25462  0.34950  1.0000
  H   H44       1.0  0.86973  0.35961  0.33014  1.0000
  H   H45       1.0  0.82020  0.27535  0.33386  1.0000
  C   C103      1.0  0.16324  0.68473  0.32972  1.0000
  C   C104      1.0  0.16767  0.72124  0.33488  1.0000
  C   C105      1.0  0.14855  0.74579  0.34190  1.0000
  C   C106      1.0  0.12436  0.73324  0.34404  1.0000
  C   C107      1.0  0.11940  0.69651  0.34009  1.0000
  C   C108      1.0  0.13904  0.67249  0.33263  1.0000
  H   H46       1.0  0.11037  0.75088  0.34963  1.0000
  H   H47       1.0  0.13576  0.64590  0.33009  1.0000
  H   H48       1.0  0.18529  0.73015  0.33389  1.0000
  C   C109      1.0  0.66317  0.82040  0.34473  1.0000
  C   C110      1.0  0.66760  0.78389  0.33958  1.0000
  C   C111      1.0  0.64847  0.75935  0.33262  1.0000
  C   C112      1.0  0.62429  0.77192  0.33049  1.0000
  C   C113      1.0  0.61933  0.80864  0.33439  1.0000
  C   C114      1.0  0.63897  0.83266  0.34184  1.0000
  H   H49       1.0  0.61029  0.75427  0.32522  1.0000
  H   H50       1.0  0.63570  0.85925  0.34444  1.0000
  H   H51       1.0  0.68522  0.77497  0.34083  1.0000
  C   C115      1.0  0.34233  0.18509  0.34473  1.0000
  C   C116      1.0  0.33790  0.22160  0.33962  1.0000
  C   C117      1.0  0.35704  0.24614  0.33271  1.0000
  C   C118      1.0  0.38122  0.23357  0.33061  1.0000
  C   C119      1.0  0.38617  0.19684  0.33441  1.0000
  C   C120      1.0  0.36653  0.17282  0.34177  1.0000
  H   H52       1.0  0.39522  0.25122  0.32542  1.0000
  H   H53       1.0  0.36979  0.14623  0.34428  1.0000
  H   H54       1.0  0.32029  0.23053  0.34086  1.0000
  C   C121      1.0  0.34227  0.82080  0.32988  1.0000
  C   C122      1.0  0.33783  0.78428  0.33500  1.0000
  C   C123      1.0  0.35695  0.75973  0.34193  1.0000
  C   C124      1.0  0.38114  0.77227  0.34403  1.0000
  C   C125      1.0  0.38611  0.80899  0.34007  1.0000
  C   C126      1.0  0.36648  0.83303  0.33267  1.0000
  H   H55       1.0  0.39513  0.75461  0.34955  1.0000
  H   H56       1.0  0.36976  0.85961  0.33013  1.0000
  H   H57       1.0  0.32021  0.77538  0.33403  1.0000
  C   C127      1.0  0.66323  0.18473  0.32990  1.0000
  C   C128      1.0  0.66767  0.22124  0.33499  1.0000
  C   C129      1.0  0.64854  0.24579  0.34196  1.0000
  C   C130      1.0  0.62435  0.23323  0.34408  1.0000
  C   C131      1.0  0.61939  0.19651  0.34013  1.0000
  C   C132      1.0  0.63903  0.17248  0.33273  1.0000
  H   H58       1.0  0.61036  0.25088  0.34959  1.0000
  H   H59       1.0  0.63575  0.14590  0.33017  1.0000
  H   H60       1.0  0.68529  0.23016  0.33399  1.0000
  C   C133      1.0  0.00276  0.42757  0.34054  1.0000
  C   C134      1.0  0.98067  0.40861  0.34257  1.0000
  C   C135      1.0  0.98037  0.37129  0.33987  1.0000
  C   C136      1.0  0.00274  0.35293  0.33568  1.0000
  C   C137      1.0  0.02513  0.37132  0.33387  1.0000
  C   C138      1.0  0.02485  0.40865  0.33685  1.0000
  H   H61       1.0  0.00273  0.32591  0.33436  1.0000
  H   H62       1.0  0.04093  0.42224  0.33602  1.0000
  H   H63       1.0  0.96460  0.42218  0.34617  1.0000
  C   C139      1.0  0.00276  0.57788  0.34056  1.0000
  C   C140      1.0  0.02484  0.59685  0.34262  1.0000
  C   C141      1.0  0.02514  0.63417  0.33993  1.0000
  C   C142      1.0  0.00276  0.65253  0.33572  1.0000
  C   C143      1.0  0.98037  0.63412  0.33391  1.0000
  C   C144      1.0  0.98066  0.59680  0.33688  1.0000
  H   H64       1.0  0.00277  0.67955  0.33442  1.0000
  H   H65       1.0  0.96458  0.58319  0.33605  1.0000
  H   H66       1.0  0.04091  0.58329  0.34623  1.0000
  C   C145      1.0  0.50276  0.92759  0.34046  1.0000
  C   C146      1.0  0.48067  0.90863  0.34248  1.0000
  C   C147      1.0  0.48038  0.87131  0.33980  1.0000
  C   C148      1.0  0.50275  0.85295  0.33564  1.0000
  C   C149      1.0  0.52514  0.87136  0.33385  1.0000
  C   C150      1.0  0.52485  0.90868  0.33681  1.0000
  H   H67       1.0  0.50275  0.82593  0.33435  1.0000
  H   H68       1.0  0.54094  0.92228  0.33600  1.0000
  H   H69       1.0  0.46460  0.92219  0.34608  1.0000
  C   C151      1.0  0.50274  0.07791  0.34052  1.0000
  C   C152      1.0  0.52483  0.09687  0.34257  1.0000
  C   C153      1.0  0.52512  0.13419  0.33988  1.0000
  C   C154      1.0  0.50275  0.15255  0.33569  1.0000
  C   C155      1.0  0.48037  0.13415  0.33387  1.0000
  C   C156      1.0  0.48065  0.09682  0.33683  1.0000
  H   H70       1.0  0.50276  0.17957  0.33439  1.0000
  H   H71       1.0  0.46456  0.08322  0.33600  1.0000
  H   H72       1.0  0.54090  0.08330  0.34618  1.0000
  C   C157      1.0  0.24904  0.12486  0.34621  1.0000
  C   C158      1.0  0.22986  0.14943  0.33888  1.0000
  C   C159      1.0  0.20542  0.13800  0.33421  1.0000
  C   C160      1.0  0.20027  0.10152  0.33769  1.0000
  C   C161      1.0  0.21932  0.07673  0.34483  1.0000
  C   C162      1.0  0.24361  0.08856  0.34847  1.0000
  H   H73       1.0  0.18263  0.09299  0.33560  1.0000
  H   H74       1.0  0.25747  0.07060  0.35365  1.0000
  H   H75       1.0  0.23372  0.17588  0.33720  1.0000
  C   C163      1.0  0.75647  0.88057  0.34629  1.0000
  C   C164      1.0  0.77567  0.85602  0.33899  1.0000
  C   C165      1.0  0.80010  0.86746  0.33429  1.0000
  C   C166      1.0  0.80523  0.90395  0.33774  1.0000
  C   C167      1.0  0.78618  0.92872  0.34486  1.0000
  C   C168      1.0  0.76189  0.91688  0.34852  1.0000
  H   H76       1.0  0.82287  0.91249  0.33562  1.0000
  H   H77       1.0  0.74803  0.93483  0.35369  1.0000
  H   H78       1.0  0.77181  0.82957  0.33734  1.0000
  C   C169      1.0  0.75661  0.12476  0.33171  1.0000
  C   C170      1.0  0.77581  0.14941  0.33607  1.0000
  C   C171      1.0  0.80020  0.13809  0.34389  1.0000
  C   C172      1.0  0.80528  0.10158  0.34735  1.0000
  C   C173      1.0  0.78620  0.07672  0.34440  1.0000
  C   C174      1.0  0.76198  0.08847  0.33600  1.0000
  H   H79       1.0  0.82287  0.09309  0.35329  1.0000
  H   H80       1.0  0.74809  0.07045  0.33396  1.0000
  H   H81       1.0  0.77196  0.17587  0.33400  1.0000
  C   C175      1.0  0.24891  0.88073  0.33175  1.0000
  C   C176      1.0  0.22973  0.85606  0.33612  1.0000
  C   C177      1.0  0.20533  0.86735  0.34396  1.0000
  C   C178      1.0  0.20023  0.90386  0.34741  1.0000
  C   C179      1.0  0.21929  0.92874  0.34444  1.0000
  C   C180      1.0  0.24352  0.91702  0.33606  1.0000
  H   H82       1.0  0.18264  0.91232  0.35335  1.0000
  H   H83       1.0  0.25740  0.93505  0.33400  1.0000
  H   H84       1.0  0.23359  0.82961  0.33404  1.0000
  C   C181      1.0  0.74903  0.62486  0.34621  1.0000
  C   C182      1.0  0.72985  0.64944  0.33889  1.0000
  C   C183      1.0  0.70541  0.63803  0.33425  1.0000
  C   C184      1.0  0.70025  0.60155  0.33777  1.0000
  C   C185      1.0  0.71929  0.57676  0.34491  1.0000
  C   C186      1.0  0.74358  0.58856  0.34851  1.0000
  H   H85       1.0  0.68261  0.59304  0.33570  1.0000
  H   H86       1.0  0.75744  0.57059  0.35371  1.0000
  H   H87       1.0  0.73372  0.67589  0.33718  1.0000
  C   C187      1.0  0.25645  0.38061  0.34627  1.0000
  C   C188      1.0  0.27564  0.35605  0.33899  1.0000
  C   C189      1.0  0.30007  0.36748  0.33432  1.0000
  C   C190      1.0  0.30522  0.40397  0.33776  1.0000
  C   C191      1.0  0.28616  0.42874  0.34487  1.0000
  C   C192      1.0  0.26188  0.41691  0.34849  1.0000
  H   H88       1.0  0.32286  0.41250  0.33570  1.0000
  H   H89       1.0  0.24801  0.43487  0.35367  1.0000
  H   H90       1.0  0.27178  0.32959  0.33734  1.0000
  C   C193      1.0  0.25659  0.62474  0.33171  1.0000
  C   C194      1.0  0.27578  0.64941  0.33607  1.0000
  C   C195      1.0  0.30017  0.63810  0.34392  1.0000
  C   C196      1.0  0.30527  0.60160  0.34736  1.0000
  C   C197      1.0  0.28619  0.57672  0.34444  1.0000
  C   C198      1.0  0.26197  0.58845  0.33602  1.0000
  H   H91       1.0  0.32285  0.59312  0.35339  1.0000
  H   H92       1.0  0.24809  0.57043  0.33400  1.0000
  H   H93       1.0  0.27192  0.67586  0.33400  1.0000
  C   C199      1.0  0.74889  0.38076  0.33177  1.0000
  C   C200      1.0  0.72971  0.35609  0.33612  1.0000
  C   C201      1.0  0.70531  0.36739  0.34397  1.0000
  C   C202      1.0  0.70021  0.40389  0.34743  1.0000
  C   C203      1.0  0.71928  0.42877  0.34450  1.0000
  C   C204      1.0  0.74350  0.41704  0.33609  1.0000
  H   H94       1.0  0.68262  0.41236  0.35341  1.0000
  H   H95       1.0  0.75738  0.43507  0.33406  1.0000
  H   H96       1.0  0.73356  0.32964  0.33404  1.0000
  C   C205      1.0  0.17765  0.17763  0.41002  1.0000
  C   C206      1.0  0.16229  0.20716  0.40947  1.0000
  H   H97       1.0  0.15822  0.21886  0.46955  1.0000
  H   H98       1.0  0.18381  0.16837  0.47041  1.0000
  C   C207      1.0  0.82790  0.82789  0.41016  1.0000
  C   C208      1.0  0.84326  0.79836  0.40967  1.0000
  H   H99       1.0  0.84731  0.78664  0.46974  1.0000
  H   H100      1.0  0.82174  0.83716  0.47053  1.0000
  C   C209      1.0  0.81909  0.16352  0.34795  1.0000
  C   C210      1.0  0.85015  0.22359  0.34680  1.0000
  C   C211      1.0  0.84245  0.20864  0.42984  1.0000
  C   C212      1.0  0.82708  0.17848  0.43047  1.0000
  N   N25       1.0  0.84849  0.22354  0.51433  1.0000
  N   N26       1.0  0.81926  0.16594  0.51539  1.0000
  O   O49       1.0  0.83905  0.25328  0.52723  1.0000
  O   O50       1.0  0.82547  0.13451  0.52880  1.0000
  O   O51       1.0  0.87104  0.22550  0.52574  1.0000
  O   O52       1.0  0.79677  0.16907  0.52697  1.0000
  C   C213      1.0  0.18646  0.84189  0.34799  1.0000
  C   C214      1.0  0.15534  0.78192  0.34696  1.0000
  C   C215      1.0  0.16306  0.79684  0.43000  1.0000
  C   C216      1.0  0.17847  0.82696  0.43056  1.0000
  N   N27       1.0  0.15704  0.78193  0.51447  1.0000
  N   N28       1.0  0.18630  0.83950  0.51546  1.0000
  O   O53       1.0  0.16647  0.75218  0.52730  1.0000
  O   O54       1.0  0.18010  0.87094  0.52886  1.0000
  O   O55       1.0  0.13449  0.77999  0.52596  1.0000
  O   O56       1.0  0.20879  0.83636  0.52702  1.0000
  C   C217      1.0  0.67763  0.67764  0.41007  1.0000
  C   C218      1.0  0.66227  0.70718  0.40957  1.0000
  H   H101      1.0  0.65818  0.71886  0.46966  1.0000
  H   H102      1.0  0.68377  0.66836  0.47045  1.0000
  C   C219      1.0  0.32789  0.32793  0.41022  1.0000
  C   C220      1.0  0.34326  0.29841  0.40973  1.0000
  H   H103      1.0  0.34733  0.28670  0.46980  1.0000
  H   H104      1.0  0.32174  0.33722  0.47059  1.0000
  C   C221      1.0  0.31906  0.66355  0.34800  1.0000
  C   C222      1.0  0.35015  0.72362  0.34696  1.0000
  C   C223      1.0  0.34243  0.70861  0.42994  1.0000
  C   C224      1.0  0.32706  0.67846  0.43054  1.0000
  N   N29       1.0  0.34848  0.72349  0.51444  1.0000
  N   N30       1.0  0.31924  0.66591  0.51545  1.0000
  O   O57       1.0  0.33905  0.75324  0.52738  1.0000
  O   O58       1.0  0.32545  0.63448  0.52881  1.0000
  O   O59       1.0  0.37103  0.72544  0.52586  1.0000
  O   O60       1.0  0.29675  0.66904  0.52704  1.0000
  C   C225      1.0  0.68643  0.34193  0.34800  1.0000
  C   C226      1.0  0.65533  0.28191  0.34692  1.0000
  C   C227      1.0  0.66304  0.29687  0.42996  1.0000
  C   C228      1.0  0.67844  0.32700  0.43056  1.0000
  N   N31       1.0  0.65701  0.28197  0.51445  1.0000
  N   N32       1.0  0.68626  0.33954  0.51547  1.0000
  O   O61       1.0  0.66645  0.25223  0.52734  1.0000
  O   O62       1.0  0.68006  0.37097  0.52885  1.0000
  O   O63       1.0  0.63447  0.28001  0.52590  1.0000
  O   O64       1.0  0.70875  0.33641  0.52704  1.0000
  C   C229      1.0  0.23197  0.36922  0.35044  1.0000
  C   C230      1.0  0.18369  0.34281  0.34997  1.0000
  C   C231      1.0  0.19597  0.34851  0.43285  1.0000
  C   C232      1.0  0.22002  0.36210  0.43318  1.0000
  N   N33       1.0  0.18549  0.34037  0.51734  1.0000
  N   N34       1.0  0.23135  0.36652  0.51791  1.0000
  O   O65       1.0  0.18222  0.30789  0.52877  1.0000
  O   O66       1.0  0.23705  0.39805  0.53284  1.0000
  O   O67       1.0  0.16590  0.35657  0.53013  1.0000
  O   O68       1.0  0.24965  0.34712  0.52755  1.0000
  C   C233      1.0  0.77352  0.63622  0.35035  1.0000
  C   C234      1.0  0.82179  0.66263  0.34979  1.0000
  C   C235      1.0  0.80953  0.65692  0.43271  1.0000
  C   C236      1.0  0.78548  0.64332  0.43307  1.0000
  N   N35       1.0  0.82002  0.66503  0.51720  1.0000
  N   N36       1.0  0.77415  0.63892  0.51782  1.0000
  O   O69       1.0  0.82329  0.69751  0.52869  1.0000
  O   O70       1.0  0.76844  0.60741  0.53278  1.0000
  O   O71       1.0  0.83961  0.64882  0.52994  1.0000
  O   O72       1.0  0.75586  0.65835  0.52746  1.0000
  C   C237      1.0  0.78619  0.36458  0.40750  1.0000
  C   C238      1.0  0.80998  0.35141  0.40686  1.0000
  H   H105      1.0  0.81815  0.34585  0.46693  1.0000
  H   H106      1.0  0.77793  0.36909  0.46796  1.0000
  C   C239      1.0  0.21928  0.64092  0.40745  1.0000
  C   C240      1.0  0.19550  0.65411  0.40682  1.0000
  H   H107      1.0  0.18733  0.65966  0.46689  1.0000
  H   H108      1.0  0.22755  0.63643  0.46790  1.0000
  C   C241      1.0  0.73199  0.86919  0.35050  1.0000
  C   C242      1.0  0.68371  0.84285  0.35010  1.0000
  C   C243      1.0  0.69599  0.84852  0.43297  1.0000
  C   C244      1.0  0.72004  0.86209  0.43325  1.0000
  N   N37       1.0  0.68550  0.84041  0.51746  1.0000
  N   N38       1.0  0.73138  0.86651  0.51797  1.0000
  O   O73       1.0  0.68222  0.80792  0.52890  1.0000
  O   O74       1.0  0.73709  0.89803  0.53287  1.0000
  O   O75       1.0  0.66592  0.85663  0.53025  1.0000
  O   O76       1.0  0.74968  0.84709  0.52760  1.0000
  C   C245      1.0  0.27353  0.13623  0.35038  1.0000
  C   C246      1.0  0.32178  0.16267  0.34987  1.0000
  C   C247      1.0  0.30952  0.15696  0.43279  1.0000
  C   C248      1.0  0.28548  0.14334  0.43312  1.0000
  N   N39       1.0  0.32001  0.16508  0.51730  1.0000
  N   N40       1.0  0.27415  0.13895  0.51785  1.0000
  O   O77       1.0  0.32326  0.19756  0.52879  1.0000
  O   O78       1.0  0.26844  0.10743  0.53281  1.0000
  O   O79       1.0  0.33960  0.14888  0.53005  1.0000
  O   O80       1.0  0.25585  0.15836  0.52746  1.0000
  C   C249      1.0  0.28621  0.86456  0.40754  1.0000
  C   C250      1.0  0.31000  0.85141  0.40693  1.0000
  H   H109      1.0  0.31817  0.84585  0.46701  1.0000
  H   H110      1.0  0.27794  0.86906  0.46798  1.0000
  C   C251      1.0  0.71932  0.14094  0.40750  1.0000
  C   C252      1.0  0.69553  0.15411  0.40688  1.0000
  H   H111      1.0  0.68737  0.15966  0.46697  1.0000
  H   H112      1.0  0.72759  0.13645  0.46793  1.0000
  C   C253      1.0  0.05991  0.34555  0.41124  1.0000
  C   C254      1.0  0.08314  0.33017  0.41136  1.0000
  H   H113      1.0  0.09153  0.32576  0.47160  1.0000
  H   H114      1.0  0.05210  0.35193  0.47139  1.0000
  C   C255      1.0  0.94559  0.65990  0.41128  1.0000
  C   C256      1.0  0.92236  0.67529  0.41139  1.0000
  H   H115      1.0  0.91398  0.67971  0.47163  1.0000
  H   H116      1.0  0.95341  0.65355  0.47144  1.0000
  C   C257      1.0  0.95771  0.35303  0.34375  1.0000
  C   C258      1.0  0.91036  0.32207  0.34426  1.0000
  C   C259      1.0  0.92163  0.33202  0.42657  1.0000
  C   C260      1.0  0.94525  0.34760  0.42603  1.0000
  N   N41       1.0  0.91027  0.32745  0.51111  1.0000
  N   N42       1.0  0.95719  0.35853  0.50563  1.0000
  O   O81       1.0  0.89115  0.34524  0.51895  1.0000
  O   O82       1.0  0.94568  0.38231  0.54611  1.0000
  O   O83       1.0  0.90588  0.29562  0.52804  1.0000
  O   O84       1.0  0.96108  0.33320  0.55803  1.0000
  C   C261      1.0  0.04779  0.65244  0.34379  1.0000
  C   C262      1.0  0.09513  0.68344  0.34431  1.0000
  C   C263      1.0  0.08386  0.67349  0.42662  1.0000
  C   C264      1.0  0.06024  0.65790  0.42608  1.0000
  N   N43       1.0  0.09522  0.67807  0.51116  1.0000
  N   N44       1.0  0.04831  0.64697  0.50569  1.0000
  O   O85       1.0  0.11434  0.66030  0.51901  1.0000
  O   O86       1.0  0.05982  0.62320  0.54618  1.0000
  O   O87       1.0  0.09959  0.70991  0.52808  1.0000
  O   O88       1.0  0.04440  0.67230  0.55806  1.0000
  C   C265      1.0  0.55992  0.84558  0.41124  1.0000
  C   C266      1.0  0.58315  0.83020  0.41136  1.0000
  H   H117      1.0  0.59153  0.82578  0.47161  1.0000
  H   H118      1.0  0.55210  0.85196  0.47139  1.0000
  C   C267      1.0  0.44559  0.15993  0.41126  1.0000
  C   C268      1.0  0.42235  0.17531  0.41139  1.0000
  H   H119      1.0  0.41397  0.17973  0.47164  1.0000
  H   H120      1.0  0.45341  0.15356  0.47142  1.0000
  C   C269      1.0  0.45773  0.85303  0.34370  1.0000
  C   C270      1.0  0.41039  0.82205  0.34426  1.0000
  C   C271      1.0  0.42167  0.83199  0.42657  1.0000
  C   C272      1.0  0.44528  0.84757  0.42600  1.0000
  N   N45       1.0  0.41032  0.82739  0.51112  1.0000
  N   N46       1.0  0.45723  0.85848  0.50560  1.0000
  O   O89       1.0  0.39120  0.84517  0.51903  1.0000
  O   O90       1.0  0.44573  0.88224  0.54615  1.0000
  O   O91       1.0  0.40594  0.79555  0.52802  1.0000
  O   O92       1.0  0.46114  0.83314  0.55793  1.0000
  C   C273      1.0  0.54778  0.15246  0.34377  1.0000
  C   C274      1.0  0.59512  0.18343  0.34432  1.0000
  C   C275      1.0  0.58385  0.17349  0.42663  1.0000
  C   C276      1.0  0.56023  0.15790  0.42606  1.0000
  N   N47       1.0  0.59520  0.17807  0.51118  1.0000
  N   N48       1.0  0.54829  0.14697  0.50566  1.0000
  O   O93       1.0  0.61432  0.16028  0.51904  1.0000
  O   O94       1.0  0.55980  0.12320  0.54616  1.0000
  O   O95       1.0  0.59958  0.20990  0.52810  1.0000
  O   O96       1.0  0.54438  0.17231  0.55803  1.0000
  C   C277      1.0  0.00278  0.46516  0.34429  1.0000
  C   C278      1.0  0.00274  0.54030  0.34431  1.0000
  C   C279      1.0  0.00280  0.52164  0.42702  1.0000
  C   C280      1.0  0.00275  0.48381  0.42701  1.0000
  N   N49       1.0  0.00289  0.54252  0.50590  1.0000
  N   N50       1.0  0.00268  0.46292  0.50589  1.0000
  O   O97       1.0  0.98425  0.53877  0.55328  1.0000
  O   O98       1.0  0.98386  0.46651  0.55233  1.0000
  O   O99       1.0  0.02172  0.53893  0.55227  1.0000
  O   O100      1.0  0.02133  0.46667  0.55320  1.0000
  C   C281      1.0  0.50277  0.96518  0.34422  1.0000
  C   C282      1.0  0.50272  0.04032  0.34426  1.0000
  C   C283      1.0  0.50281  0.02166  0.42696  1.0000
  C   C284      1.0  0.50277  0.98383  0.42694  1.0000
  N   N51       1.0  0.50292  0.04254  0.50585  1.0000
  N   N52       1.0  0.50272  0.96294  0.50582  1.0000
  O   O101      1.0  0.48429  0.03878  0.55330  1.0000
  O   O102      1.0  0.48391  0.96652  0.55233  1.0000
  O   O103      1.0  0.52176  0.03895  0.55215  1.0000
  O   O104      1.0  0.52138  0.96669  0.55307  1.0000
  C   C285      1.0  0.21482  0.96539  0.35005  1.0000
  C   C286      1.0  0.21473  0.04007  0.34983  1.0000
  C   C287      1.0  0.21689  0.02159  0.43225  1.0000
  C   C288      1.0  0.21688  0.98402  0.43263  1.0000
  N   N53       1.0  0.21977  0.04187  0.51159  1.0000
  N   N54       1.0  0.21959  0.96699  0.51675  1.0000
  O   O105      1.0  0.20279  0.03679  0.56627  1.0000
  O   O106      1.0  0.20198  0.94717  0.53458  1.0000
  O   O107      1.0  0.23975  0.03609  0.54947  1.0000
  O   O108      1.0  0.23908  0.94999  0.52336  1.0000
  C   C289      1.0  0.79065  0.04006  0.34997  1.0000
  C   C290      1.0  0.79076  0.96539  0.34982  1.0000
  C   C291      1.0  0.78858  0.98387  0.43222  1.0000
  C   C292      1.0  0.78858  0.02144  0.43257  1.0000
  N   N55       1.0  0.78570  0.96360  0.51157  1.0000
  N   N56       1.0  0.78586  0.03848  0.51667  1.0000
  O   O109      1.0  0.80267  0.96869  0.56628  1.0000
  O   O110      1.0  0.80346  0.05830  0.53453  1.0000
  O   O111      1.0  0.76571  0.96939  0.54944  1.0000
  O   O112      1.0  0.76637  0.05548  0.52326  1.0000
  C   C293      1.0  0.71480  0.46542  0.35013  1.0000
  C   C294      1.0  0.71468  0.54009  0.34999  1.0000
  C   C295      1.0  0.71687  0.52162  0.43238  1.0000
  C   C296      1.0  0.71687  0.48405  0.43273  1.0000
  N   N57       1.0  0.71976  0.54189  0.51171  1.0000
  N   N58       1.0  0.71960  0.46702  0.51682  1.0000
  O   O113      1.0  0.70278  0.53680  0.56644  1.0000
  O   O114      1.0  0.70200  0.44718  0.53468  1.0000
  O   O115      1.0  0.73975  0.53612  0.54955  1.0000
  O   O116      1.0  0.73909  0.45002  0.52339  1.0000
  C   C297      1.0  0.29067  0.54007  0.35007  1.0000
  C   C298      1.0  0.29075  0.46541  0.34987  1.0000
  C   C299      1.0  0.28858  0.48388  0.43229  1.0000
  C   C300      1.0  0.28858  0.52145  0.43266  1.0000
  N   N59       1.0  0.28567  0.46360  0.51161  1.0000
  N   N60       1.0  0.28584  0.53848  0.51675  1.0000
  O   O117      1.0  0.30263  0.46868  0.56637  1.0000
  O   O118      1.0  0.30344  0.55831  0.53465  1.0000
  O   O119      1.0  0.26567  0.46939  0.54941  1.0000
  O   O120      1.0  0.26635  0.55548  0.52329  1.0000
