data_image0
_chemical_formula_structural       C4NC2NCHCHC4NC2NCHCHC4NC2NCHCHC2H4CH2C2H4CH2C2H4CH2C2H4CH2C2H4CH2C2H4CH2CNCNCNC18H12CNCNCNC18H12CNCNCNC18H12CNCNCNC18H12CNCNCNC18H12CNCNCNC18H12C2H6C2H6C2H6C4NC2NCH2C4NC2NCH2C4NC2NCH2C4NC2NCH2C4NC2NCH2C4NC2NCH2
_chemical_formula_sum              "C216 N36 H144"
_cell_length_a       60.3447
_cell_length_b       60.3447
_cell_length_c       15.014
_cell_angle_alpha    90
_cell_angle_beta     90
_cell_angle_gamma    120

_space_group_name_H-M_alt    "P 1"
_space_group_IT_number       1

loop_
  _space_group_symop_operation_xyz
  'x, y, z'

loop_
  _atom_site_type_symbol
  _atom_site_label
  _atom_site_symmetry_multiplicity
  _atom_site_fract_x
  _atom_site_fract_y
  _atom_site_fract_z
  _atom_site_occupancy
  C   C1        1.0  0.97203  0.48317  0.32160  1.0000
  C   C2        1.0  0.98683  0.49398  0.24390  1.0000
  C   C3        1.0  0.01391  0.50785  0.24917  1.0000
  C   C4        1.0  0.02638  0.51111  0.33203  1.0000
  N   N1        1.0  0.02722  0.51714  0.17212  1.0000
  C   C5        1.0  0.01639  0.51418  0.09043  1.0000
  C   C6        1.0  0.98928  0.50040  0.08520  1.0000
  N   N2        1.0  0.97595  0.49100  0.16221  1.0000
  C   C7        1.0  0.03363  0.52501  0.01293  1.0000
  H   H1        1.0  0.05370  0.53484  0.03320  1.0000
  C   C8        1.0  0.97405  0.49504  0.00270  1.0000
  H   H2        1.0  0.96117  0.50275  0.00887  1.0000
  C   C9        1.0  0.51535  0.48841  0.32149  1.0000
  C   C10       1.0  0.50504  0.49304  0.24378  1.0000
  C   C11       1.0  0.49118  0.50625  0.24965  1.0000
  C   C12       1.0  0.48746  0.51481  0.33310  1.0000
  N   N3        1.0  0.48233  0.51087  0.17270  1.0000
  C   C13       1.0  0.48569  0.50356  0.09056  1.0000
  C   C14       1.0  0.49939  0.49015  0.08478  1.0000
  N   N4        1.0  0.50838  0.48566  0.16169  1.0000
  C   C15       1.0  0.47537  0.51063  0.01323  1.0000
  H   H3        1.0  0.46554  0.52083  0.03394  1.0000
  C   C16       1.0  0.50503  0.48072  0.00183  1.0000
  H   H4        1.0  0.49737  0.46011  0.00679  1.0000
  C   C17       1.0  0.51012  0.02665  0.32172  1.0000
  C   C18       1.0  0.50626  0.01190  0.24398  1.0000
  C   C19       1.0  0.49307  0.98482  0.24904  1.0000
  C   C20       1.0  0.48374  0.97229  0.33174  1.0000
  N   N5        1.0  0.48918  0.97156  0.17193  1.0000
  C   C21       1.0  0.49716  0.98244  0.09038  1.0000
  C   C22       1.0  0.51047  0.00956  0.08534  1.0000
  N   N6        1.0  0.51427  0.02283  0.16241  1.0000
  C   C23       1.0  0.49089  0.96526  0.01279  1.0000
  H   H5        1.0  0.48065  0.94517  0.03289  1.0000
  C   C24       1.0  0.52043  0.02484  0.00299  1.0000
  H   H6        1.0  0.54101  0.03772  0.00944  1.0000
  C   C25       1.0  0.26769  0.51785  0.25560  1.0000
  C   C26       1.0  0.24481  0.51844  0.26538  1.0000
  H   H7        1.0  0.23576  0.51951  0.20926  1.0000
  H   H8        1.0  0.27444  0.51840  0.19267  1.0000
  H   H9        1.0  0.28709  0.51308  0.02964  1.0000
  H   H10       1.0  0.30434  0.54696  0.01714  1.0000
  C   C27       1.0  0.24706  0.53067  0.00205  1.0000
  H   H11       1.0  0.25934  0.53334  0.05883  1.0000
  H   H12       1.0  0.22837  0.51387  0.01443  1.0000
  C   C28       1.0  0.48063  0.74939  0.25517  1.0000
  C   C29       1.0  0.48012  0.72596  0.26494  1.0000
  H   H13       1.0  0.47882  0.71576  0.20876  1.0000
  H   H14       1.0  0.47982  0.75547  0.19229  1.0000
  H   H15       1.0  0.48661  0.77405  0.02905  1.0000
  H   H16       1.0  0.45270  0.75742  0.01764  1.0000
  C   C30       1.0  0.46897  0.71642  0.00177  1.0000
  H   H17       1.0  0.46637  0.72606  0.05859  1.0000
  H   H18       1.0  0.48584  0.71461  0.01371  1.0000
  C   C31       1.0  0.24911  0.73105  0.25567  1.0000
  C   C32       1.0  0.27257  0.75394  0.26546  1.0000
  H   H19       1.0  0.28269  0.76300  0.20934  1.0000
  H   H20       1.0  0.24293  0.72429  0.19273  1.0000
  H   H21       1.0  0.22489  0.71164  0.02965  1.0000
  H   H22       1.0  0.24156  0.69442  0.01720  1.0000
  C   C33       1.0  0.28249  0.75172  0.00214  1.0000
  H   H23       1.0  0.27288  0.73943  0.05890  1.0000
  H   H24       1.0  0.28435  0.77040  0.01451  1.0000
  C   C34       1.0  0.73188  0.48118  0.25353  1.0000
  C   C35       1.0  0.75484  0.48075  0.26351  1.0000
  H   H25       1.0  0.76379  0.47957  0.20728  1.0000
  H   H26       1.0  0.72505  0.48042  0.19057  1.0000
  H   H27       1.0  0.71229  0.48613  0.02723  1.0000
  H   H28       1.0  0.69516  0.45224  0.01484  1.0000
  C   C36       1.0  0.75252  0.46880  0.00024  1.0000
  H   H29       1.0  0.74016  0.46605  0.05687  1.0000
  H   H30       1.0  0.77115  0.48567  0.01275  1.0000
  C   C37       1.0  0.51746  0.25042  0.25383  1.0000
  C   C38       1.0  0.51796  0.27384  0.26382  1.0000
  H   H31       1.0  0.51896  0.28392  0.20766  1.0000
  H   H32       1.0  0.51803  0.24425  0.19085  1.0000
  H   H33       1.0  0.51323  0.22616  0.02765  1.0000
  H   H34       1.0  0.54709  0.24291  0.01461  1.0000
  C   C39       1.0  0.53053  0.28371  0.00050  1.0000
  H   H35       1.0  0.53331  0.27411  0.05710  1.0000
  H   H36       1.0  0.51370  0.28552  0.01325  1.0000
  C   C40       1.0  0.74821  0.26687  0.25344  1.0000
  C   C41       1.0  0.72482  0.24391  0.26340  1.0000
  H   H37       1.0  0.71467  0.23498  0.20718  1.0000
  H   H38       1.0  0.75428  0.27372  0.19051  1.0000
  H   H39       1.0  0.77280  0.28631  0.02720  1.0000
  H   H40       1.0  0.75606  0.30346  0.01496  1.0000
  C   C42       1.0  0.71523  0.24612  0.00020  1.0000
  H   H41       1.0  0.72484  0.25846  0.05685  1.0000
  H   H42       1.0  0.71347  0.22749  0.01263  1.0000
  C   C43       1.0  0.17431  0.60757  0.32767  1.0000
  N   N7        1.0  0.14836  0.59388  0.33189  1.0000
  C   C44       1.0  0.13523  0.56791  0.34018  1.0000
  N   N8        1.0  0.14908  0.55573  0.34484  1.0000
  C   C45       1.0  0.17506  0.56854  0.34209  1.0000
  N   N9        1.0  0.18702  0.59437  0.33328  1.0000
  C   C46       1.0  0.10798  0.55389  0.34215  1.0000
  C   C47       1.0  0.09351  0.56595  0.32318  1.0000
  C   C48       1.0  0.06663  0.55193  0.32095  1.0000
  C   C49       1.0  0.05338  0.52542  0.33891  1.0000
  C   C50       1.0  0.06751  0.51328  0.36002  1.0000
  C   C51       1.0  0.09440  0.52730  0.36108  1.0000
  C   C52       1.0  0.18820  0.63466  0.31947  1.0000
  C   C53       1.0  0.17828  0.65010  0.35093  1.0000
  C   C54       1.0  0.19348  0.67702  0.35145  1.0000
  C   C55       1.0  0.21869  0.68921  0.31754  1.0000
  C   C56       1.0  0.22823  0.67386  0.28263  1.0000
  C   C57       1.0  0.21328  0.64708  0.28385  1.0000
  C   C58       1.0  0.18958  0.55592  0.34817  1.0000
  C   C59       1.0  0.21568  0.56981  0.37323  1.0000
  C   C60       1.0  0.23062  0.55800  0.37669  1.0000
  C   C61       1.0  0.22005  0.53187  0.35481  1.0000
  C   C62       1.0  0.19407  0.51782  0.32927  1.0000
  C   C63       1.0  0.17894  0.52960  0.32761  1.0000
  H   H43       1.0  0.18636  0.68762  0.37960  1.0000
  H   H44       1.0  0.16048  0.64189  0.37919  1.0000
  H   H45       1.0  0.24673  0.68198  0.26047  1.0000
  H   H46       1.0  0.22130  0.63676  0.26036  1.0000
  H   H47       1.0  0.22429  0.58884  0.38893  1.0000
  H   H48       1.0  0.24960  0.56895  0.39282  1.0000
  H   H49       1.0  0.16028  0.51897  0.30764  1.0000
  H   H50       1.0  0.18609  0.49901  0.31122  1.0000
  H   H51       1.0  0.10393  0.51768  0.37523  1.0000
  H   H52       1.0  0.05835  0.49401  0.37225  1.0000
  H   H53       1.0  0.05681  0.56119  0.30545  1.0000
  H   H54       1.0  0.10234  0.58505  0.30854  1.0000
  C   C64       1.0  0.39115  0.56642  0.32807  1.0000
  N   N10       1.0  0.40482  0.55414  0.33252  1.0000
  C   C65       1.0  0.43079  0.56697  0.34079  1.0000
  N   N11       1.0  0.44299  0.59299  0.34520  1.0000
  C   C66       1.0  0.43020  0.60618  0.34227  1.0000
  N   N12       1.0  0.40438  0.59235  0.33349  1.0000
  C   C67       1.0  0.44480  0.55371  0.34306  1.0000
  C   C68       1.0  0.43260  0.52704  0.32643  1.0000
  C   C69       1.0  0.44659  0.51415  0.32439  1.0000
  C   C70       1.0  0.47319  0.52751  0.34039  1.0000
  C   C71       1.0  0.48550  0.55393  0.35912  1.0000
  C   C72       1.0  0.47150  0.56683  0.35995  1.0000
  C   C73       1.0  0.36406  0.55324  0.31984  1.0000
  C   C74       1.0  0.34859  0.52789  0.35129  1.0000
  C   C75       1.0  0.32167  0.51618  0.35159  1.0000
  C   C76       1.0  0.30951  0.52921  0.31759  1.0000
  C   C77       1.0  0.32489  0.55412  0.28289  1.0000
  C   C78       1.0  0.35167  0.56593  0.28419  1.0000
  C   C79       1.0  0.44284  0.63332  0.34818  1.0000
  C   C80       1.0  0.42902  0.64556  0.37375  1.0000
  C   C81       1.0  0.44084  0.67231  0.37704  1.0000
  C   C82       1.0  0.46692  0.68785  0.35445  1.0000
  C   C83       1.0  0.48091  0.67590  0.32848  1.0000
  C   C84       1.0  0.46912  0.64897  0.32696  1.0000
  H   H55       1.0  0.31104  0.49843  0.37954  1.0000
  H   H56       1.0  0.35677  0.51825  0.37934  1.0000
  H   H57       1.0  0.31679  0.56452  0.26072  1.0000
  H   H58       1.0  0.36200  0.58428  0.26081  1.0000
  H   H59       1.0  0.41003  0.63515  0.38997  1.0000
  H   H60       1.0  0.42994  0.68036  0.39362  1.0000
  H   H61       1.0  0.47971  0.64093  0.30665  1.0000
  H   H62       1.0  0.49969  0.68671  0.30995  1.0000
  H   H63       1.0  0.48124  0.58608  0.37226  1.0000
  H   H64       1.0  0.50485  0.56411  0.36967  1.0000
  H   H65       1.0  0.43724  0.49497  0.31034  1.0000
  H   H66       1.0  0.41341  0.51669  0.31322  1.0000
  C   C85       1.0  0.43215  0.82431  0.32753  1.0000
  N   N13       1.0  0.44444  0.85026  0.33163  1.0000
  C   C86       1.0  0.43162  0.86342  0.33991  1.0000
  N   N14       1.0  0.40560  0.84960  0.34470  1.0000
  C   C87       1.0  0.39241  0.82362  0.34208  1.0000
  N   N15       1.0  0.40624  0.81163  0.33327  1.0000
  C   C88       1.0  0.44487  0.89067  0.34179  1.0000
  C   C89       1.0  0.47137  0.90513  0.32226  1.0000
  C   C90       1.0  0.48424  0.93200  0.32000  1.0000
  C   C91       1.0  0.47103  0.94528  0.33846  1.0000
  C   C92       1.0  0.44479  0.93116  0.36013  1.0000
  C   C93       1.0  0.43191  0.90426  0.36122  1.0000
  C   C94       1.0  0.44532  0.81038  0.31935  1.0000
  C   C95       1.0  0.47073  0.82032  0.35036  1.0000
  C   C96       1.0  0.48242  0.80511  0.35084  1.0000
  C   C97       1.0  0.46933  0.77985  0.31736  1.0000
  C   C98       1.0  0.44439  0.77028  0.28290  1.0000
  C   C99       1.0  0.43259  0.78526  0.28415  1.0000
  C   C100      1.0  0.36527  0.80913  0.34823  1.0000
  C   C101      1.0  0.35304  0.78304  0.37338  1.0000
  C   C102      1.0  0.32628  0.76811  0.37687  1.0000
  C   C103      1.0  0.31074  0.77871  0.35493  1.0000
  C   C104      1.0  0.32269  0.80467  0.32932  1.0000
  C   C105      1.0  0.34961  0.81979  0.32763  1.0000
  H   H67       1.0  0.50020  0.81225  0.37860  1.0000
  H   H68       1.0  0.48038  0.83816  0.37829  1.0000
  H   H69       1.0  0.43397  0.75176  0.26102  1.0000
  H   H70       1.0  0.41421  0.77722  0.26095  1.0000
  H   H71       1.0  0.36344  0.77442  0.38911  1.0000
  H   H72       1.0  0.31824  0.74914  0.39304  1.0000
  H   H73       1.0  0.35765  0.83845  0.30759  1.0000
  H   H74       1.0  0.31188  0.81267  0.31122  1.0000
  H   H75       1.0  0.41279  0.89475  0.37583  1.0000
  H   H76       1.0  0.43471  0.94032  0.37278  1.0000
  H   H77       1.0  0.50329  0.94181  0.30414  1.0000
  H   H78       1.0  0.48160  0.89628  0.30723  1.0000
  C   C106      1.0  0.82350  0.39032  0.31771  1.0000
  N   N16       1.0  0.84947  0.40361  0.31630  1.0000
  C   C107      1.0  0.86315  0.42965  0.32060  1.0000
  N   N17       1.0  0.84986  0.44236  0.32770  1.0000
  C   C108      1.0  0.82388  0.42995  0.33091  1.0000
  N   N18       1.0  0.81136  0.40403  0.32550  1.0000
  C   C109      1.0  0.89041  0.44301  0.31911  1.0000
  C   C110      1.0  0.90419  0.42978  0.32784  1.0000
  C   C111      1.0  0.93109  0.44296  0.32861  1.0000
  C   C112      1.0  0.94499  0.46979  0.31909  1.0000
  C   C113      1.0  0.93158  0.48321  0.30918  1.0000
  C   C114      1.0  0.90467  0.46999  0.30978  1.0000
  C   C115      1.0  0.80911  0.36317  0.31307  1.0000
  C   C116      1.0  0.81943  0.34771  0.34052  1.0000
  C   C117      1.0  0.80412  0.32082  0.34300  1.0000
  C   C118      1.0  0.77835  0.30868  0.31501  1.0000
  C   C119      1.0  0.76821  0.32400  0.28506  1.0000
  C   C120      1.0  0.78332  0.35076  0.28431  1.0000
  C   C121      1.0  0.80982  0.44297  0.34051  1.0000
  C   C122      1.0  0.78442  0.42974  0.37331  1.0000
  C   C123      1.0  0.76971  0.44177  0.37930  1.0000
  C   C124      1.0  0.77982  0.46750  0.35260  1.0000
  C   C125      1.0  0.80517  0.48092  0.32003  1.0000
  C   C126      1.0  0.82010  0.46894  0.31560  1.0000
  H   H79       1.0  0.81170  0.31019  0.36740  1.0000
  H   H80       1.0  0.83783  0.35592  0.36351  1.0000
  H   H81       1.0  0.74935  0.31586  0.26720  1.0000
  H   H82       1.0  0.77498  0.36107  0.26393  1.0000
  H   H83       1.0  0.77608  0.41097  0.39231  1.0000
  H   H84       1.0  0.75111  0.43114  0.40019  1.0000
  H   H85       1.0  0.83822  0.47907  0.29007  1.0000
  H   H86       1.0  0.81276  0.49935  0.29801  1.0000
  H   H87       1.0  0.89565  0.48044  0.30298  1.0000
  H   H88       1.0  0.94128  0.50272  0.30294  1.0000
  H   H89       1.0  0.94044  0.43282  0.33593  1.0000
  H   H90       1.0  0.89484  0.41033  0.33544  1.0000
  C   C127      1.0  0.60839  0.43297  0.31704  1.0000
  N   N19       1.0  0.59506  0.44561  0.31539  1.0000
  C   C128      1.0  0.56902  0.43323  0.31981  1.0000
  N   N20       1.0  0.55637  0.40723  0.32729  1.0000
  C   C129      1.0  0.56881  0.39370  0.33069  1.0000
  N   N21       1.0  0.59472  0.40712  0.32515  1.0000
  C   C130      1.0  0.55559  0.44707  0.31815  1.0000
  C   C131      1.0  0.56887  0.47419  0.32158  1.0000
  C   C132      1.0  0.55566  0.48788  0.32226  1.0000
  C   C133      1.0  0.52872  0.47478  0.31836  1.0000
  C   C134      1.0  0.51521  0.44783  0.31385  1.0000
  C   C135      1.0  0.52849  0.43420  0.31410  1.0000
  C   C136      1.0  0.63554  0.44575  0.31244  1.0000
  C   C137      1.0  0.65098  0.47151  0.34006  1.0000
  C   C138      1.0  0.67788  0.48308  0.34288  1.0000
  C   C139      1.0  0.69002  0.46943  0.31500  1.0000
  C   C140      1.0  0.67472  0.44403  0.28459  1.0000
  C   C141      1.0  0.64796  0.43238  0.28363  1.0000
  C   C142      1.0  0.55582  0.36662  0.34051  1.0000
  C   C143      1.0  0.56910  0.35447  0.37292  1.0000
  C   C144      1.0  0.55710  0.32775  0.37912  1.0000
  C   C145      1.0  0.53131  0.31209  0.35297  1.0000
  C   C146      1.0  0.51785  0.32400  0.32068  1.0000
  C   C147      1.0  0.52980  0.35092  0.31614  1.0000
  H   H91       1.0  0.68848  0.50125  0.36756  1.0000
  H   H92       1.0  0.64276  0.48166  0.36329  1.0000
  H   H93       1.0  0.68287  0.43332  0.26665  1.0000
  H   H94       1.0  0.63766  0.41375  0.26299  1.0000
  H   H95       1.0  0.58791  0.36492  0.39152  1.0000
  H   H96       1.0  0.56777  0.31979  0.39964  1.0000
  H   H97       1.0  0.51963  0.35887  0.29082  1.0000
  H   H98       1.0  0.49937  0.31314  0.29903  1.0000
  H   H99       1.0  0.51798  0.41466  0.31141  1.0000
  H   H100      1.0  0.49563  0.43792  0.31166  1.0000
  H   H101      1.0  0.56584  0.50745  0.32577  1.0000
  H   H102      1.0  0.58842  0.48442  0.32505  1.0000
  C   C148      1.0  0.56573  0.17517  0.31800  1.0000
  N   N22       1.0  0.55305  0.14920  0.31670  1.0000
  C   C149      1.0  0.56542  0.13553  0.32098  1.0000
  N   N23       1.0  0.59143  0.14884  0.32795  1.0000
  C   C150      1.0  0.60499  0.17482  0.33106  1.0000
  N   N24       1.0  0.59158  0.18733  0.32567  1.0000
  C   C151      1.0  0.55154  0.10828  0.31955  1.0000
  C   C152      1.0  0.52456  0.09448  0.32936  1.0000
  C   C153      1.0  0.51086  0.06759  0.33010  1.0000
  C   C154      1.0  0.52376  0.05369  0.31941  1.0000
  C   C155      1.0  0.55057  0.06713  0.30843  1.0000
  C   C156      1.0  0.56425  0.09404  0.30911  1.0000
  C   C157      1.0  0.55295  0.18954  0.31334  1.0000
  C   C158      1.0  0.52721  0.17925  0.34115  1.0000
  C   C159      1.0  0.51563  0.19456  0.34363  1.0000
  C   C160      1.0  0.52923  0.22031  0.31531  1.0000
  C   C161      1.0  0.55464  0.23040  0.28489  1.0000
  C   C162      1.0  0.56630  0.21529  0.28416  1.0000
  C   C163      1.0  0.63207  0.18889  0.34056  1.0000
  C   C164      1.0  0.64425  0.21429  0.37335  1.0000
  C   C165      1.0  0.67098  0.22900  0.37930  1.0000
  C   C166      1.0  0.68660  0.21890  0.35253  1.0000
  C   C167      1.0  0.67467  0.19355  0.31994  1.0000
  C   C168      1.0  0.64775  0.17861  0.31557  1.0000
  H   H103      1.0  0.49746  0.18701  0.36832  1.0000
  H   H104      1.0  0.51706  0.16089  0.36442  1.0000
  H   H105      1.0  0.56534  0.24924  0.26673  1.0000
  H   H106      1.0  0.58492  0.22361  0.26347  1.0000
  H   H107      1.0  0.63382  0.22262  0.39242  1.0000
  H   H108      1.0  0.67895  0.24760  0.40021  1.0000
  H   H109      1.0  0.63977  0.16050  0.29005  1.0000
  H   H110      1.0  0.68552  0.18596  0.29789  1.0000
  H   H111      1.0  0.58369  0.10307  0.30146  1.0000
  H   H112      1.0  0.56037  0.05744  0.30133  1.0000
  H   H113      1.0  0.49141  0.05824  0.33818  1.0000
  H   H114      1.0  0.51449  0.10383  0.33782  1.0000
  C   C169      1.0  0.01144  0.49967  0.40874  1.0000
  C   C170      1.0  0.98459  0.48588  0.40361  1.0000
  H   H115      1.0  0.97426  0.47809  0.46056  1.0000
  H   H116      1.0  0.02000  0.50165  0.46931  1.0000
  H   H117      1.0  0.02993  0.53876  0.64520  1.0000
  H   H118      1.0  0.03051  0.50967  0.63384  1.0000
  H   H119      1.0  0.98587  0.50347  0.61051  1.0000
  H   H120      1.0  0.96265  0.47440  0.65937  1.0000
  C   C171      1.0  0.49836  0.51064  0.40994  1.0000
  C   C172      1.0  0.51214  0.49757  0.40419  1.0000
  H   H121      1.0  0.51964  0.49460  0.46105  1.0000
  H   H122      1.0  0.49604  0.51677  0.47090  1.0000
  H   H123      1.0  0.46173  0.49347  0.64385  1.0000
  H   H124      1.0  0.49098  0.52309  0.63547  1.0000
  H   H125      1.0  0.49670  0.48434  0.60989  1.0000
  H   H126      1.0  0.52570  0.49008  0.65908  1.0000
  C   C173      1.0  0.48710  0.98718  0.40848  1.0000
  C   C174      1.0  0.50014  0.01403  0.40355  1.0000
  H   H127      1.0  0.50259  0.02432  0.46055  1.0000
  H   H128      1.0  0.48043  0.97859  0.46895  1.0000
  H   H129      1.0  0.50840  0.96901  0.64538  1.0000
  H   H130      1.0  0.47873  0.96839  0.63345  1.0000
  H   H131      1.0  0.51710  0.01307  0.61071  1.0000
  H   H132      1.0  0.51119  0.03625  0.65957  1.0000
  C   C175      1.0  0.23669  0.52162  0.35023  1.0000
  C   C176      1.0  0.25089  0.52204  0.42595  1.0000
  C   C177      1.0  0.27389  0.52131  0.41618  1.0000
  C   C178      1.0  0.28301  0.52023  0.33024  1.0000
  N   N25       1.0  0.28764  0.52393  0.49115  1.0000
  C   C179      1.0  0.28065  0.52659  0.57476  1.0000
  C   C180      1.0  0.25759  0.52726  0.58431  1.0000
  N   N26       1.0  0.24409  0.52516  0.50932  1.0000
  C   C181      1.0  0.29756  0.52876  0.64948  1.0000
  H   H133      1.0  0.31422  0.52783  0.62612  1.0000
  H   H134      1.0  0.24478  0.54746  0.66384  1.0000
  C   C182      1.0  0.47718  0.71473  0.34982  1.0000
  C   C183      1.0  0.47694  0.72861  0.42550  1.0000
  C   C184      1.0  0.47760  0.75231  0.41580  1.0000
  C   C185      1.0  0.47840  0.76241  0.32991  1.0000
  N   N27       1.0  0.47518  0.76354  0.49088  1.0000
  C   C186      1.0  0.47276  0.75397  0.57453  1.0000
  C   C187      1.0  0.47215  0.73027  0.58401  1.0000
  N   N28       1.0  0.47407  0.71880  0.50892  1.0000
  C   C188      1.0  0.47081  0.76880  0.64940  1.0000
  H   H135      1.0  0.47168  0.78636  0.62610  1.0000
  H   H136      1.0  0.45220  0.69730  0.66396  1.0000
  C   C189      1.0  0.28385  0.76208  0.35032  1.0000
  C   C190      1.0  0.27007  0.74788  0.42603  1.0000
  C   C191      1.0  0.24636  0.72486  0.41622  1.0000
  C   C192      1.0  0.23616  0.71571  0.33028  1.0000
  N   N29       1.0  0.23522  0.71110  0.49118  1.0000
  C   C193      1.0  0.24487  0.71810  0.57480  1.0000
  C   C194      1.0  0.26857  0.74118  0.58439  1.0000
  N   N30       1.0  0.27997  0.75469  0.50941  1.0000
  C   C195      1.0  0.23012  0.70119  0.64951  1.0000
  H   H137      1.0  0.21255  0.68451  0.62613  1.0000
  H   H138      1.0  0.30159  0.75404  0.66396  1.0000
  C   C196      1.0  0.76301  0.47760  0.34838  1.0000
  C   C197      1.0  0.74876  0.47721  0.42396  1.0000
  C   C198      1.0  0.72568  0.47780  0.41402  1.0000
  C   C199      1.0  0.71654  0.47878  0.32810  1.0000
  N   N31       1.0  0.71186  0.47520  0.48879  1.0000
  C   C200      1.0  0.71887  0.47264  0.57252  1.0000
  C   C201      1.0  0.74199  0.47211  0.58234  1.0000
  N   N32       1.0  0.75555  0.47423  0.50748  1.0000
  C   C202      1.0  0.70189  0.47043  0.64709  1.0000
  H   H139      1.0  0.68520  0.47127  0.62356  1.0000
  H   H140      1.0  0.75493  0.45208  0.66219  1.0000
  C   C203      1.0  0.52124  0.28518  0.34868  1.0000
  C   C204      1.0  0.52173  0.27139  0.42432  1.0000
  C   C205      1.0  0.52109  0.24770  0.41433  1.0000
  C   C206      1.0  0.51994  0.23753  0.32834  1.0000
  N   N33       1.0  0.52381  0.23653  0.48903  1.0000
  C   C207      1.0  0.52652  0.24616  0.57272  1.0000
  C   C208      1.0  0.52708  0.26982  0.58261  1.0000
  N   N34       1.0  0.52486  0.28123  0.50782  1.0000
  C   C209      1.0  0.52885  0.23144  0.64720  1.0000
  H   H141      1.0  0.52798  0.21390  0.62362  1.0000
  H   H142      1.0  0.54727  0.30282  0.66223  1.0000
  C   C210      1.0  0.71351  0.23572  0.34828  1.0000
  C   C211      1.0  0.72739  0.24994  0.42390  1.0000
  C   C212      1.0  0.75105  0.27301  0.41401  1.0000
  C   C213      1.0  0.76115  0.28216  0.32810  1.0000
  N   N35       1.0  0.76229  0.28681  0.48881  1.0000
  C   C214      1.0  0.75272  0.27978  0.57252  1.0000
  C   C215      1.0  0.72907  0.25666  0.58231  1.0000
  N   N36       1.0  0.71761  0.24312  0.50742  1.0000
  C   C216      1.0  0.76750  0.29673  0.64713  1.0000
  H   H143      1.0  0.78504  0.31342  0.62362  1.0000
  H   H144      1.0  0.69610  0.24371  0.66219  1.0000
