data_image0
_chemical_formula_structural       CNC2H2NO2CNC2H2NO2CNC2H2NO2C24H15C24H15C4HC3NHNO2C4HC3NHNO2C4HC3NHNO2
_chemical_formula_sum              "C78 N12 H42 O12"
_cell_length_a       37.2389
_cell_length_b       37.2388
_cell_length_c       14.875
_cell_angle_alpha    90
_cell_angle_beta     90
_cell_angle_gamma    120

_space_group_name_H-M_alt    "P 1"
_space_group_IT_number       1

loop_
  _space_group_symop_operation_xyz
  'x, y, z'

loop_
  _atom_site_type_symbol
  _atom_site_label
  _atom_site_symmetry_multiplicity
  _atom_site_fract_x
  _atom_site_fract_y
  _atom_site_fract_z
  _atom_site_occupancy
  C   C1        1.0  0.46556  0.55105  0.27745  1.0000
  N   N1        1.0  0.48756  0.53114  0.28221  1.0000
  C   C2        1.0  0.54722  0.50152  0.27609  1.0000
  C   C3        1.0  0.56793  0.47826  0.27725  1.0000
  H   H1        1.0  0.58437  0.47922  0.22135  1.0000
  H   H2        1.0  0.45781  0.55685  0.21540  1.0000
  N   N2        1.0  0.55182  0.52721  0.20166  1.0000
  O   O1        1.0  0.53870  0.50670  0.13016  1.0000
  O   O2        1.0  0.58897  0.55499  0.19063  1.0000
  C   C4        1.0  0.45834  0.91666  0.26567  1.0000
  N   N3        1.0  0.47836  0.95861  0.26898  1.0000
  C   C5        1.0  0.50813  0.04796  0.26065  1.0000
  C   C6        1.0  0.53182  0.09192  0.26006  1.0000
  H   H3        1.0  0.53032  0.10709  0.20416  1.0000
  H   H4        1.0  0.45206  0.90266  0.20407  1.0000
  N   N4        1.0  0.48128  0.02645  0.18808  1.0000
  O   O3        1.0  0.50072  0.03309  0.11526  1.0000
  O   O4        1.0  0.45366  0.03617  0.17885  1.0000
  C   C7        1.0  0.09283  0.53842  0.26953  1.0000
  N   N5        1.0  0.05082  0.51680  0.27282  1.0000
  C   C8        1.0  0.96238  0.44899  0.29766  1.0000
  C   C9        1.0  0.91843  0.42802  0.29804  1.0000
  H   H5        1.0  0.90235  0.39987  0.26664  1.0000
  H   H6        1.0  0.10675  0.54144  0.20865  1.0000
  N   N6        1.0  0.98429  0.43143  0.25645  1.0000
  O   O5        1.0  0.97681  0.42624  0.17362  1.0000
  O   O6        1.0  0.97521  0.39715  0.29117  1.0000
  C   C10       1.0  0.29485  0.64831  0.34478  1.0000
  C   C11       1.0  0.31794  0.62752  0.34726  1.0000
  C   C12       1.0  0.36184  0.64918  0.34740  1.0000
  C   C13       1.0  0.38272  0.69304  0.34573  1.0000
  C   C14       1.0  0.36107  0.71527  0.34367  1.0000
  C   C15       1.0  0.31719  0.69223  0.34280  1.0000
  C   C16       1.0  0.38448  0.62743  0.34952  1.0000
  C   C17       1.0  0.37354  0.59405  0.40963  1.0000
  C   C18       1.0  0.39599  0.57286  0.41210  1.0000
  C   C19       1.0  0.43010  0.58394  0.35405  1.0000
  C   C20       1.0  0.44088  0.61718  0.29358  1.0000
  C   C21       1.0  0.41864  0.63858  0.29163  1.0000
  C   C22       1.0  0.25034  0.62566  0.34497  1.0000
  C   C23       1.0  0.22768  0.58939  0.29252  1.0000
  C   C24       1.0  0.18401  0.56708  0.29321  1.0000
  C   C25       1.0  0.16095  0.58000  0.34633  1.0000
  C   C26       1.0  0.18367  0.61639  0.39848  1.0000
  C   C27       1.0  0.22731  0.63865  0.39795  1.0000
  C   C28       1.0  0.38288  0.75969  0.34346  1.0000
  C   C29       1.0  0.37138  0.78217  0.28480  1.0000
  C   C30       1.0  0.39270  0.82584  0.28512  1.0000
  C   C31       1.0  0.42621  0.84885  0.34461  1.0000
  C   C32       1.0  0.43767  0.82635  0.40332  1.0000
  C   C33       1.0  0.41655  0.78270  0.40254  1.0000
  H   H7        1.0  0.16923  0.54066  0.25535  1.0000
  H   H8        1.0  0.24280  0.57899  0.25206  1.0000
  H   H9        1.0  0.16862  0.62754  0.43697  1.0000
  H   H10       1.0  0.24215  0.66429  0.43816  1.0000
  H   H11       1.0  0.34753  0.76691  0.24018  1.0000
  H   H12       1.0  0.38288  0.84068  0.24231  1.0000
  H   H13       1.0  0.42561  0.76783  0.44713  1.0000
  H   H14       1.0  0.46202  0.84159  0.44676  1.0000
  H   H15       1.0  0.42737  0.66218  0.24625  1.0000
  H   H16       1.0  0.46564  0.62670  0.25117  1.0000
  H   H17       1.0  0.38671  0.54872  0.45620  1.0000
  H   H18       1.0  0.34941  0.58521  0.45356  1.0000
  H   H19       1.0  0.30244  0.59579  0.34908  1.0000
  H   H20       1.0  0.30111  0.70789  0.34107  1.0000
  H   H21       1.0  0.41447  0.70920  0.34625  1.0000
  C   C34       1.0  0.71864  0.35981  0.34328  1.0000
  C   C35       1.0  0.69660  0.38146  0.35326  1.0000
  C   C36       1.0  0.65272  0.36140  0.35159  1.0000
  C   C37       1.0  0.63075  0.31756  0.34476  1.0000
  C   C38       1.0  0.65094  0.29400  0.33711  1.0000
  C   C39       1.0  0.69487  0.31613  0.33411  1.0000
  C   C40       1.0  0.63150  0.38480  0.35450  1.0000
  C   C41       1.0  0.64763  0.42334  0.30939  1.0000
  C   C42       1.0  0.62664  0.44597  0.30958  1.0000
  C   C43       1.0  0.58795  0.43095  0.35343  1.0000
  C   C44       1.0  0.57181  0.39241  0.39856  1.0000
  C   C45       1.0  0.59313  0.37005  0.39953  1.0000
  C   C46       1.0  0.76332  0.38132  0.34232  1.0000
  C   C47       1.0  0.78685  0.42119  0.30295  1.0000
  C   C48       1.0  0.83052  0.44249  0.30296  1.0000
  C   C49       1.0  0.85243  0.42422  0.34038  1.0000
  C   C50       1.0  0.82942  0.38435  0.37887  1.0000
  C   C51       1.0  0.78579  0.36360  0.38073  1.0000
  C   C52       1.0  0.62793  0.24936  0.33384  1.0000
  C   C53       1.0  0.64267  0.22535  0.37731  1.0000
  C   C54       1.0  0.62001  0.18172  0.37612  1.0000
  C   C55       1.0  0.58100  0.15964  0.33270  1.0000
  C   C56       1.0  0.56619  0.18366  0.28954  1.0000
  C   C57       1.0  0.58915  0.22731  0.28956  1.0000
  H   H22       1.0  0.84620  0.47108  0.27321  1.0000
  H   H23       1.0  0.77243  0.43510  0.27210  1.0000
  H   H24       1.0  0.84433  0.37048  0.40794  1.0000
  H   H25       1.0  0.77061  0.33542  0.41216  1.0000
  H   H26       1.0  0.67000  0.23941  0.41220  1.0000
  H   H27       1.0  0.63278  0.16625  0.40721  1.0000
  H   H28       1.0  0.57711  0.24284  0.25589  1.0000
  H   H29       1.0  0.53786  0.16966  0.25868  1.0000
  H   H30       1.0  0.58018  0.34271  0.43435  1.0000
  H   H31       1.0  0.54369  0.37954  0.43019  1.0000
  H   H32       1.0  0.64041  0.47398  0.27737  1.0000
  H   H33       1.0  0.67476  0.43524  0.27396  1.0000
  H   H34       1.0  0.71298  0.41278  0.36381  1.0000
  H   H35       1.0  0.70997  0.29996  0.32288  1.0000
  H   H36       1.0  0.59908  0.30236  0.34521  1.0000
  C   C58       1.0  0.45303  0.56252  0.35676  1.0000
  C   C59       1.0  0.49989  0.52084  0.35942  1.0000
  C   C60       1.0  0.48783  0.53126  0.44186  1.0000
  C   C61       1.0  0.46455  0.55194  0.43887  1.0000
  H   H37       1.0  0.45683  0.56025  0.49825  1.0000
  C   C62       1.0  0.52315  0.49967  0.35220  1.0000
  C   C63       1.0  0.56615  0.45379  0.35189  1.0000
  C   C64       1.0  0.54186  0.45348  0.42523  1.0000
  N   N7        1.0  0.52199  0.47555  0.42209  1.0000
  H   H38       1.0  0.53938  0.43747  0.48283  1.0000
  N   N8        1.0  0.49958  0.52220  0.52564  1.0000
  O   O7        1.0  0.46845  0.49821  0.57192  1.0000
  O   O8        1.0  0.52188  0.55446  0.57044  1.0000
  C   C65       1.0  0.44755  0.89324  0.34578  1.0000
  C   C66       1.0  0.48935  0.98180  0.34544  1.0000
  C   C67       1.0  0.47959  0.95993  0.42863  1.0000
  C   C68       1.0  0.45882  0.91596  0.42711  1.0000
  H   H39       1.0  0.45101  0.90038  0.48706  1.0000
  C   C69       1.0  0.51072  0.02616  0.33674  1.0000
  C   C70       1.0  0.55752  0.11500  0.33293  1.0000
  C   C71       1.0  0.55839  0.09141  0.40650  1.0000
  N   N9        1.0  0.53588  0.04947  0.40504  1.0000
  H   H40       1.0  0.57520  0.10521  0.46308  1.0000
  N   N10       1.0  0.48944  0.98137  0.51169  1.0000
  O   O9        1.0  0.51380  0.97451  0.55732  1.0000
  O   O10       1.0  0.45761  0.97181  0.55774  1.0000
  C   C72       1.0  0.11644  0.55710  0.34780  1.0000
  C   C73       1.0  0.02825  0.51114  0.34871  1.0000
  C   C74       1.0  0.04980  0.52918  0.42986  1.0000
  C   C75       1.0  0.09373  0.55176  0.42791  1.0000
  H   H41       1.0  0.10919  0.56360  0.48708  1.0000
  C   C76       1.0  0.98426  0.48775  0.34254  1.0000
  C   C77       1.0  0.89651  0.44542  0.33953  1.0000
  C   C78       1.0  0.92006  0.48448  0.38098  1.0000
  N   N11       1.0  0.96203  0.50350  0.38162  1.0000
  H   H42       1.0  0.90600  0.49848  0.41301  1.0000
  N   N12       1.0  0.02759  0.52316  0.51097  1.0000
  O   O11       1.0  0.03476  0.55715  0.54414  1.0000
  O   O12       1.0  0.03661  0.50412  0.56821  1.0000
