data_image0
_chemical_formula_structural       CNC2NC4NC18H14C2NC16H12C3NC2NC5NC4NC18H14CNC16H12C11H11CNCNC4NC16H13NCHNCHNCHNCHNCHNCHNCHNCHNCHNCHNCHNCHC7NC12H12C2NC3NC3NC18H14C12H12C3NC3NC3NC18H14C3NC3NC2NC5NC20H15C8NC14H13C2NCNO2C2NCNO2C2NCNO2C2NCNO2C2NCNO2C2NCNO2C2NCNO2C2NCNO2C2NCNO2C2NCNO2C2NCNO2C2NCNO2
_chemical_formula_sum              "C312 N60 H168 O24"
_cell_length_a       56.914
_cell_length_b       56.9142
_cell_length_c       14.988
_cell_angle_alpha    90.0018
_cell_angle_beta     89.9654
_cell_angle_gamma    120

_space_group_name_H-M_alt    "P 1"
_space_group_IT_number       1

loop_
  _space_group_symop_operation_xyz
  'x, y, z'

loop_
  _atom_site_type_symbol
  _atom_site_label
  _atom_site_symmetry_multiplicity
  _atom_site_fract_x
  _atom_site_fract_y
  _atom_site_fract_z
  _atom_site_occupancy
  C   C1        1.0  0.28684  0.53050  0.34215  1.0000
  N   N1        1.0  0.27804  0.48846  0.33174  1.0000
  C   C2        1.0  0.30546  0.50373  0.33585  1.0000
  C   C3        1.0  0.32538  0.49557  0.33473  1.0000
  N   N2        1.0  0.29485  0.44547  0.33198  1.0000
  C   C4        1.0  0.29679  0.42276  0.33210  1.0000
  C   C5        1.0  0.32454  0.43157  0.33441  1.0000
  C   C6        1.0  0.33852  0.45956  0.33416  1.0000
  C   C7        1.0  0.27534  0.39534  0.33030  1.0000
  N   N3        1.0  0.23503  0.40225  0.33148  1.0000
  C   C8        1.0  0.20759  0.38700  0.32869  1.0000
  C   C9        1.0  0.22610  0.36014  0.32362  1.0000
  C   C10       1.0  0.21625  0.46804  0.33207  1.0000
  C   C11       1.0  0.23769  0.49537  0.33385  1.0000
  C   C12       1.0  0.23058  0.51606  0.33499  1.0000
  C   C13       1.0  0.22891  0.52800  0.25453  1.0000
  C   C14       1.0  0.22452  0.55023  0.25584  1.0000
  C   C15       1.0  0.22185  0.56132  0.33740  1.0000
  C   C16       1.0  0.14532  0.36576  0.24946  1.0000
  C   C17       1.0  0.11718  0.34754  0.25047  1.0000
  C   C18       1.0  0.28277  0.37483  0.33086  1.0000
  C   C19       1.0  0.30357  0.33848  0.33846  1.0000
  C   C20       1.0  0.30420  0.35183  0.25797  1.0000
  C   C21       1.0  0.29394  0.36975  0.25409  1.0000
  C   C22       1.0  0.35320  0.51640  0.33649  1.0000
  C   C23       1.0  0.36548  0.53233  0.25988  1.0000
  C   C24       1.0  0.39194  0.55473  0.26406  1.0000
  C   C25       1.0  0.40689  0.56190  0.34474  1.0000
  H   H1        1.0  0.39969  0.56654  0.20829  1.0000
  H   H2        1.0  0.35483  0.52838  0.20147  1.0000
  H   H3        1.0  0.28524  0.54756  0.34704  1.0000
  H   H4        1.0  0.26839  0.46909  0.32489  1.0000
  H   H5        1.0  0.24471  0.42166  0.33701  1.0000
  H   H6        1.0  0.35918  0.47135  0.33559  1.0000
  H   H7        1.0  0.33352  0.41990  0.33577  1.0000
  H   H8        1.0  0.29576  0.37996  0.19594  1.0000
  H   H9        1.0  0.31336  0.34970  0.20222  1.0000
  H   H10       1.0  0.22770  0.34306  0.31971  1.0000
  H   H11       1.0  0.15490  0.37316  0.18964  1.0000
  H   H12       1.0  0.10718  0.34259  0.19075  1.0000
  H   H13       1.0  0.22481  0.55910  0.19623  1.0000
  H   H14       1.0  0.23181  0.52120  0.19458  1.0000
  C   C26       1.0  0.53781  0.75658  0.34306  1.0000
  C   C27       1.0  0.56458  0.80196  0.33627  1.0000
  N   N4        1.0  0.62283  0.84960  0.33238  1.0000
  C   C28       1.0  0.64555  0.87426  0.33238  1.0000
  C   C29       1.0  0.63674  0.89319  0.33439  1.0000
  C   C30       1.0  0.60875  0.87918  0.33412  1.0000
  C   C31       1.0  0.67297  0.88023  0.33076  1.0000
  C   C32       1.0  0.68130  0.82080  0.32937  1.0000
  C   C33       1.0  0.70818  0.86619  0.32464  1.0000
  C   C34       1.0  0.60026  0.74844  0.33238  1.0000
  C   C35       1.0  0.54028  0.70116  0.25490  1.0000
  C   C36       1.0  0.51805  0.67454  0.25620  1.0000
  C   C37       1.0  0.70258  0.77980  0.24991  1.0000
  C   C38       1.0  0.72080  0.76988  0.25091  1.0000
  C   C39       1.0  0.69349  0.90817  0.33128  1.0000
  C   C40       1.0  0.71655  0.95256  0.25819  1.0000
  C   C41       1.0  0.69862  0.92438  0.25441  1.0000
  C   C42       1.0  0.53595  0.83328  0.26010  1.0000
  C   C43       1.0  0.51356  0.83737  0.26420  1.0000
  H   H15       1.0  0.50177  0.83328  0.20843  1.0000
  H   H16       1.0  0.53992  0.82657  0.20174  1.0000
  H   H17       1.0  0.52077  0.73793  0.34855  1.0000
  H   H18       1.0  0.59696  0.88805  0.33526  1.0000
  H   H19       1.0  0.64841  0.91386  0.33559  1.0000
  H   H20       1.0  0.68841  0.91597  0.19628  1.0000
  H   H21       1.0  0.71868  0.96384  0.20243  1.0000
  H   H22       1.0  0.72526  0.88485  0.32076  1.0000
  H   H23       1.0  0.69522  0.78201  0.19009  1.0000
  H   H24       1.0  0.72579  0.76486  0.19117  1.0000
  H   H25       1.0  0.50917  0.66597  0.19661  1.0000
  H   H26       1.0  0.54706  0.71088  0.19496  1.0000
  C   C44       1.0  0.28754  0.75722  0.34293  1.0000
  C   C45       1.0  0.31174  0.78146  0.34217  1.0000
  C   C46       1.0  0.30594  0.80253  0.33531  1.0000
  N   N5        1.0  0.27851  0.79027  0.33136  1.0000
  C   C47       1.0  0.26635  0.76284  0.33555  1.0000
  C   C48       1.0  0.23827  0.74292  0.33426  1.0000
  N   N6        1.0  0.21871  0.77345  0.33156  1.0000
  C   C49       1.0  0.19405  0.77151  0.33151  1.0000
  C   C50       1.0  0.17512  0.74376  0.33353  1.0000
  C   C51       1.0  0.18913  0.72978  0.33335  1.0000
  C   C52       1.0  0.18808  0.79296  0.32986  1.0000
  C   C53       1.0  0.20786  0.82106  0.32875  1.0000
  N   N7        1.0  0.23531  0.83328  0.33125  1.0000
  C   C54       1.0  0.24750  0.86072  0.32863  1.0000
  C   C55       1.0  0.22637  0.86648  0.32422  1.0000
  C   C56       1.0  0.20212  0.84221  0.32393  1.0000
  C   C57       1.0  0.27558  0.88051  0.32964  1.0000
  N   N8        1.0  0.29520  0.85005  0.33134  1.0000
  C   C58       1.0  0.31987  0.85205  0.33181  1.0000
  C   C59       1.0  0.32576  0.83061  0.33362  1.0000
  C   C60       1.0  0.35356  0.83771  0.33487  1.0000
  C   C61       1.0  0.36721  0.83937  0.25445  1.0000
  C   C62       1.0  0.39383  0.84376  0.25586  1.0000
  C   C63       1.0  0.40755  0.84644  0.33747  1.0000
  C   C64       1.0  0.28294  0.90838  0.32994  1.0000
  C   C65       1.0  0.28856  0.92302  0.24931  1.0000
  C   C66       1.0  0.29843  0.95116  0.25037  1.0000
  C   C67       1.0  0.30318  0.96553  0.33182  1.0000
  C   C68       1.0  0.16014  0.78553  0.33044  1.0000
  C   C69       1.0  0.10299  0.76469  0.33800  1.0000
  C   C70       1.0  0.11576  0.76418  0.25744  1.0000
  C   C71       1.0  0.14393  0.77444  0.25360  1.0000
  C   C72       1.0  0.23129  0.71510  0.33606  1.0000
  C   C73       1.0  0.23501  0.70286  0.25951  1.0000
  C   C74       1.0  0.23097  0.67640  0.26376  1.0000
  C   C75       1.0  0.22306  0.66140  0.34439  1.0000
  H   H27       1.0  0.23504  0.66866  0.20801  1.0000
  H   H28       1.0  0.24178  0.71354  0.20115  1.0000
  H   H29       1.0  0.33039  0.78307  0.34755  1.0000
  H   H30       1.0  0.26880  0.79992  0.32404  1.0000
  H   H31       1.0  0.24503  0.82358  0.33600  1.0000
  H   H32       1.0  0.18026  0.70912  0.33451  1.0000
  H   H33       1.0  0.15445  0.73477  0.33471  1.0000
  H   H34       1.0  0.15235  0.77267  0.19542  1.0000
  H   H35       1.0  0.10448  0.75501  0.20170  1.0000
  H   H36       1.0  0.18345  0.84062  0.32014  1.0000
  H   H37       1.0  0.28641  0.91348  0.18947  1.0000
  H   H38       1.0  0.30356  0.96119  0.19068  1.0000
  H   H39       1.0  0.40243  0.84348  0.19628  1.0000
  H   H40       1.0  0.35753  0.83646  0.19447  1.0000
  C   C76       1.0  0.78544  0.54196  0.33649  1.0000
  N   N9        1.0  0.79606  0.60022  0.33267  1.0000
  C   C77       1.0  0.79413  0.62294  0.33264  1.0000
  C   C78       1.0  0.76639  0.61413  0.33481  1.0000
  C   C79       1.0  0.75240  0.58614  0.33472  1.0000
  C   C80       1.0  0.81559  0.65036  0.33086  1.0000
  C   C81       1.0  0.88334  0.65868  0.32934  1.0000
  C   C82       1.0  0.86484  0.68556  0.32456  1.0000
  C   C83       1.0  0.87465  0.57762  0.33266  1.0000
  C   C84       1.0  0.86201  0.51767  0.25513  1.0000
  C   C85       1.0  0.86637  0.49542  0.25646  1.0000
  C   C86       1.0  0.94560  0.67993  0.24975  1.0000
  C   C87       1.0  0.97374  0.69815  0.25064  1.0000
  C   C88       1.0  0.80816  0.67087  0.33133  1.0000
  C   C89       1.0  0.78680  0.69388  0.25827  1.0000
  C   C90       1.0  0.79709  0.67599  0.25445  1.0000
  C   C91       1.0  0.72545  0.51336  0.26062  1.0000
  C   C92       1.0  0.69898  0.49097  0.26482  1.0000
  H   H41       1.0  0.69125  0.47916  0.20907  1.0000
  H   H42       1.0  0.73612  0.51731  0.20222  1.0000
  H   H43       1.0  0.80564  0.49812  0.34795  1.0000
  H   H44       1.0  0.73174  0.57435  0.33584  1.0000
  H   H45       1.0  0.75740  0.62581  0.33595  1.0000
  H   H46       1.0  0.79525  0.66574  0.19638  1.0000
  H   H47       1.0  0.77764  0.69600  0.20251  1.0000
  H   H48       1.0  0.86325  0.70264  0.32069  1.0000
  H   H49       1.0  0.93603  0.67250  0.18997  1.0000
  H   H50       1.0  0.98374  0.70306  0.19088  1.0000
  H   H51       1.0  0.86615  0.48660  0.19684  1.0000
  H   H52       1.0  0.85911  0.52448  0.19519  1.0000
  C   C93       1.0  0.44538  0.17143  0.33290  1.0000
  C   C94       1.0  0.45420  0.15250  0.33519  1.0000
  C   C95       1.0  0.48219  0.16651  0.33500  1.0000
  C   C96       1.0  0.55062  0.34458  0.25560  1.0000
  C   C97       1.0  0.57285  0.37120  0.25692  1.0000
  C   C98       1.0  0.38841  0.26592  0.25013  1.0000
  C   C99       1.0  0.37019  0.27584  0.25103  1.0000
  C   C100      1.0  0.37450  0.09315  0.25827  1.0000
  C   C101      1.0  0.39241  0.12132  0.25456  1.0000
  C   C102      1.0  0.55495  0.21234  0.26070  1.0000
  C   C103      1.0  0.57735  0.20828  0.26480  1.0000
  H   H53       1.0  0.58916  0.21235  0.20900  1.0000
  H   H54       1.0  0.55099  0.21905  0.20233  1.0000
  H   H55       1.0  0.57018  0.30778  0.34808  1.0000
  H   H56       1.0  0.49397  0.15764  0.33642  1.0000
  H   H57       1.0  0.40266  0.12976  0.19647  1.0000
  H   H58       1.0  0.37239  0.08189  0.20247  1.0000
  H   H59       1.0  0.36569  0.16083  0.32027  1.0000
  H   H60       1.0  0.39585  0.26376  0.19036  1.0000
  H   H61       1.0  0.36527  0.28090  0.19127  1.0000
  H   H62       1.0  0.58172  0.37980  0.19732  1.0000
  H   H63       1.0  0.54383  0.33490  0.19565  1.0000
  C   C104      1.0  0.77920  0.26422  0.34322  1.0000
  N   N10       1.0  0.81243  0.25542  0.33202  1.0000
  C   C105      1.0  0.82458  0.28284  0.33629  1.0000
  N   N11       1.0  0.87222  0.27223  0.33223  1.0000
  C   C106      1.0  0.89688  0.27417  0.33215  1.0000
  C   C107      1.0  0.91581  0.30192  0.33411  1.0000
  C   C108      1.0  0.90180  0.31590  0.33390  1.0000
  C   C109      1.0  0.90285  0.25272  0.33051  1.0000
  N   N12       1.0  0.85562  0.21240  0.33186  1.0000
  C   C110      1.0  0.84343  0.18496  0.32919  1.0000
  C   C111      1.0  0.88881  0.20347  0.32446  1.0000
  C   C112      1.0  0.77106  0.19364  0.33234  1.0000
  C   C113      1.0  0.76517  0.21508  0.33425  1.0000
  C   C114      1.0  0.72377  0.20636  0.25507  1.0000
  C   C115      1.0  0.69715  0.20197  0.25647  1.0000
  C   C116      1.0  0.68338  0.19925  0.33808  1.0000
  C   C117      1.0  0.80243  0.12269  0.24977  1.0000
  C   C118      1.0  0.79252  0.09455  0.25077  1.0000
  C   C119      1.0  0.93079  0.26015  0.33102  1.0000
  C   C120      1.0  0.98793  0.28095  0.33840  1.0000
  C   C121      1.0  0.97518  0.28148  0.25789  1.0000
  C   C122      1.0  0.94701  0.27123  0.25412  1.0000
  C   C123      1.0  0.85965  0.33058  0.33669  1.0000
  C   C124      1.0  0.85589  0.34282  0.26021  1.0000
  C   C125      1.0  0.85998  0.36930  0.26439  1.0000
  H   H64       1.0  0.85588  0.37702  0.20868  1.0000
  H   H65       1.0  0.84916  0.33215  0.20184  1.0000
  H   H66       1.0  0.76055  0.26261  0.34879  1.0000
  H   H67       1.0  0.82213  0.24578  0.32420  1.0000
  H   H68       1.0  0.91067  0.33656  0.33503  1.0000
  H   H69       1.0  0.93648  0.31091  0.33525  1.0000
  H   H70       1.0  0.93859  0.27302  0.19599  1.0000
  H   H71       1.0  0.98646  0.29064  0.20211  1.0000
  H   H72       1.0  0.90748  0.20506  0.32060  1.0000
  H   H73       1.0  0.80465  0.13227  0.18994  1.0000
  H   H74       1.0  0.78750  0.08455  0.19104  1.0000
  H   H75       1.0  0.68858  0.20230  0.19692  1.0000
  H   H76       1.0  0.73348  0.20932  0.19511  1.0000
  N   N13       1.0  0.21050  0.61846  0.27769  1.0000
  C   C126      1.0  0.20926  0.59411  0.27076  1.0000
  H   H77       1.0  0.20066  0.58263  0.21515  1.0000
  N   N14       1.0  0.44986  0.59227  0.27808  1.0000
  C   C127      1.0  0.47422  0.61538  0.27116  1.0000
  H   H78       1.0  0.48573  0.61824  0.21561  1.0000
  N   N15       1.0  0.47607  0.85782  0.27793  1.0000
  C   C128      1.0  0.45297  0.85907  0.27093  1.0000
  H   H79       1.0  0.45011  0.86768  0.21529  1.0000
  N   N16       1.0  0.88043  0.42723  0.27827  1.0000
  C   C129      1.0  0.88168  0.45158  0.27134  1.0000
  H   H80       1.0  0.89027  0.46306  0.21568  1.0000
  N   N17       1.0  0.64105  0.45345  0.27886  1.0000
  C   C130      1.0  0.61671  0.43034  0.27192  1.0000
  H   H81       1.0  0.60522  0.42748  0.21635  1.0000
  N   N18       1.0  0.61489  0.18789  0.27863  1.0000
  C   C131      1.0  0.63799  0.18664  0.27162  1.0000
  H   H82       1.0  0.64085  0.17800  0.21604  1.0000
  N   N19       1.0  0.03036  0.29134  0.27185  1.0000
  C   C132      1.0  0.05777  0.30410  0.26506  1.0000
  H   H83       1.0  0.06616  0.30087  0.20951  1.0000
  N   N20       1.0  0.77698  0.73923  0.27220  1.0000
  C   C133      1.0  0.76422  0.75390  0.26544  1.0000
  H   H84       1.0  0.76745  0.76550  0.20987  1.0000
  N   N21       1.0  0.32911  0.03798  0.27196  1.0000
  C   C134      1.0  0.31446  0.01057  0.26507  1.0000
  H   H85       1.0  0.30290  0.00222  0.20946  1.0000
  N   N22       1.0  0.06057  0.75430  0.27164  1.0000
  C   C135      1.0  0.03315  0.74155  0.26498  1.0000
  H   H86       1.0  0.02476  0.74480  0.20951  1.0000
  N   N23       1.0  0.31399  0.30646  0.27203  1.0000
  C   C136      1.0  0.32675  0.29180  0.26534  1.0000
  H   H87       1.0  0.32356  0.28021  0.20979  1.0000
  N   N24       1.0  0.76187  0.00773  0.27214  1.0000
  C   C137      1.0  0.77653  0.03514  0.26535  1.0000
  H   H88       1.0  0.78813  0.04352  0.20977  1.0000
  C   C138      1.0  0.31109  0.53055  0.34284  1.0000
  C   C139      1.0  0.26577  0.50363  0.33550  1.0000
  C   C140      1.0  0.31949  0.46822  0.33349  1.0000
  C   C141      1.0  0.24724  0.38702  0.32887  1.0000
  C   C142      1.0  0.20184  0.36012  0.32392  1.0000
  C   C143      1.0  0.18780  0.39529  0.32991  1.0000
  C   C144      1.0  0.19363  0.42264  0.33108  1.0000
  N   N25       1.0  0.21826  0.44537  0.33156  1.0000
  C   C145      1.0  0.18856  0.45934  0.33178  1.0000
  C   C146      1.0  0.17461  0.43135  0.33142  1.0000
  C   C147      1.0  0.22319  0.54883  0.41765  1.0000
  C   C148      1.0  0.22742  0.52651  0.41666  1.0000
  C   C149      1.0  0.15993  0.37478  0.33013  1.0000
  C   C150      1.0  0.10277  0.33789  0.33189  1.0000
  C   C151      1.0  0.11784  0.34678  0.41230  1.0000
  C   C152      1.0  0.14599  0.36490  0.41162  1.0000
  C   C153      1.0  0.28093  0.36067  0.41031  1.0000
  C   C154      1.0  0.29095  0.34255  0.41366  1.0000
  C   C155      1.0  0.36832  0.52274  0.41636  1.0000
  C   C156      1.0  0.39489  0.54500  0.42001  1.0000
  H   H89       1.0  0.40526  0.54892  0.47887  1.0000
  H   H90       1.0  0.35986  0.51156  0.47289  1.0000
  H   H91       1.0  0.32966  0.54766  0.34855  1.0000
  H   H92       1.0  0.27298  0.36402  0.46696  1.0000
  H   H93       1.0  0.28931  0.33269  0.47238  1.0000
  H   H94       1.0  0.18315  0.34304  0.32017  1.0000
  H   H95       1.0  0.17969  0.47114  0.33242  1.0000
  H   H96       1.0  0.15394  0.41955  0.33120  1.0000
  H   H97       1.0  0.15608  0.37150  0.47103  1.0000
  H   H98       1.0  0.10838  0.34051  0.47281  1.0000
  H   H99       1.0  0.22903  0.51847  0.47593  1.0000
  H   H100      1.0  0.22153  0.55616  0.47825  1.0000
  C   C157      1.0  0.53777  0.78078  0.34375  1.0000
  C   C158      1.0  0.56467  0.76237  0.33601  1.0000
  N   N26       1.0  0.57985  0.78981  0.33205  1.0000
  C   C159      1.0  0.57274  0.83004  0.33496  1.0000
  C   C160      1.0  0.60009  0.85150  0.33365  1.0000
  C   C161      1.0  0.68129  0.86044  0.32955  1.0000
  N   N27       1.0  0.66606  0.83300  0.33208  1.0000
  C   C162      1.0  0.70819  0.84193  0.32485  1.0000
  C   C163      1.0  0.67300  0.79272  0.33037  1.0000
  C   C164      1.0  0.64565  0.77121  0.33141  1.0000
  N   N28       1.0  0.62293  0.77311  0.33202  1.0000
  C   C165      1.0  0.60895  0.72944  0.33188  1.0000
  C   C166      1.0  0.63695  0.74348  0.33150  1.0000
  C   C167      1.0  0.57293  0.74255  0.33422  1.0000
  C   C168      1.0  0.55223  0.71475  0.33537  1.0000
  C   C169      1.0  0.50697  0.66077  0.33776  1.0000
  C   C170      1.0  0.51946  0.67457  0.41800  1.0000
  C   C171      1.0  0.54182  0.70111  0.41702  1.0000
  C   C172      1.0  0.69351  0.78536  0.33058  1.0000
  C   C173      1.0  0.73041  0.76510  0.33231  1.0000
  C   C174      1.0  0.72148  0.77126  0.41274  1.0000
  C   C175      1.0  0.70334  0.78127  0.41207  1.0000
  C   C176      1.0  0.70760  0.92051  0.41073  1.0000
  C   C177      1.0  0.72573  0.94865  0.41399  1.0000
  C   C178      1.0  0.72984  0.96531  0.33869  1.0000
  C   C179      1.0  0.55191  0.83703  0.33666  1.0000
  C   C180      1.0  0.54557  0.84587  0.41643  1.0000
  C   C181      1.0  0.50642  0.84524  0.34478  1.0000
  C   C182      1.0  0.52331  0.85019  0.42003  1.0000
  H   H101      1.0  0.51940  0.85671  0.47881  1.0000
  H   H102      1.0  0.55676  0.84866  0.47295  1.0000
  H   H103      1.0  0.52067  0.78225  0.34997  1.0000
  H   H104      1.0  0.59920  0.79951  0.32434  1.0000
  H   H105      1.0  0.64663  0.82327  0.33710  1.0000
  H   H106      1.0  0.70423  0.90922  0.46742  1.0000
  H   H107      1.0  0.73556  0.95688  0.47270  1.0000
  H   H108      1.0  0.72527  0.84033  0.32125  1.0000
  H   H109      1.0  0.59715  0.70877  0.33230  1.0000
  H   H110      1.0  0.64873  0.73460  0.33113  1.0000
  H   H111      1.0  0.69672  0.78474  0.47149  1.0000
  H   H112      1.0  0.72771  0.76804  0.47324  1.0000
  H   H113      1.0  0.54983  0.71074  0.47629  1.0000
  H   H114      1.0  0.51214  0.66556  0.47859  1.0000
  C   C183      1.0  0.21681  0.74881  0.33288  1.0000
  C   C184      1.0  0.29710  0.87467  0.33072  1.0000
  C   C185      1.0  0.33887  0.87974  0.33138  1.0000
  C   C186      1.0  0.32482  0.89369  0.33091  1.0000
  C   C187      1.0  0.39369  0.84512  0.41765  1.0000
  C   C188      1.0  0.36714  0.84091  0.41658  1.0000
  C   C189      1.0  0.29699  0.95042  0.41220  1.0000
  C   C190      1.0  0.28694  0.92227  0.41147  1.0000
  C   C191      1.0  0.14777  0.78727  0.40995  1.0000
  C   C192      1.0  0.11964  0.77725  0.41326  1.0000
  C   C193      1.0  0.22242  0.69995  0.41588  1.0000
  C   C194      1.0  0.21810  0.67337  0.41957  1.0000
  H   H115      1.0  0.21156  0.66296  0.47838  1.0000
  H   H116      1.0  0.21963  0.70838  0.47236  1.0000
  H   H117      1.0  0.28606  0.73864  0.34890  1.0000
  H   H118      1.0  0.15906  0.79519  0.46661  1.0000
  H   H119      1.0  0.11139  0.77882  0.47202  1.0000
  H   H120      1.0  0.22797  0.88516  0.32070  1.0000
  H   H121      1.0  0.35953  0.88861  0.33182  1.0000
  H   H122      1.0  0.33370  0.91436  0.33056  1.0000
  H   H123      1.0  0.28347  0.91216  0.47086  1.0000
  H   H124      1.0  0.30017  0.95986  0.47273  1.0000
  H   H125      1.0  0.35748  0.83931  0.47581  1.0000
  H   H126      1.0  0.40267  0.84682  0.47829  1.0000
  C   C195      1.0  0.77980  0.51513  0.34357  1.0000
  C   C196      1.0  0.80405  0.51517  0.34282  1.0000
  C   C197      1.0  0.82512  0.54204  0.33613  1.0000
  N   N29       1.0  0.81287  0.55722  0.33233  1.0000
  C   C198      1.0  0.76553  0.55012  0.33540  1.0000
  C   C199      1.0  0.77142  0.57748  0.33412  1.0000
  C   C200      1.0  0.84369  0.65867  0.32958  1.0000
  N   N30       1.0  0.85590  0.64343  0.33212  1.0000
  C   C201      1.0  0.88910  0.68557  0.32477  1.0000
  C   C202      1.0  0.90312  0.65037  0.33034  1.0000
  C   C203      1.0  0.89728  0.62302  0.33152  1.0000
  N   N31       1.0  0.87265  0.60030  0.33216  1.0000
  C   C204      1.0  0.90234  0.58631  0.33221  1.0000
  C   C205      1.0  0.91629  0.61431  0.33171  1.0000
  C   C206      1.0  0.85320  0.55030  0.33445  1.0000
  C   C207      1.0  0.86030  0.52959  0.33560  1.0000
  C   C208      1.0  0.86904  0.48434  0.33802  1.0000
  C   C209      1.0  0.86769  0.49683  0.41826  1.0000
  C   C210      1.0  0.86346  0.51916  0.41727  1.0000
  C   C211      1.0  0.93099  0.67088  0.33048  1.0000
  C   C212      1.0  0.98815  0.70777  0.33200  1.0000
  C   C213      1.0  0.97307  0.69887  0.41248  1.0000
  C   C214      1.0  0.94493  0.68075  0.41191  1.0000
  C   C215      1.0  0.80995  0.68501  0.41075  1.0000
  C   C216      1.0  0.79993  0.70314  0.41400  1.0000
  C   C217      1.0  0.78736  0.70722  0.33872  1.0000
  C   C218      1.0  0.73770  0.52930  0.33720  1.0000
  C   C219      1.0  0.72255  0.52297  0.41704  1.0000
  C   C220      1.0  0.68400  0.48382  0.34550  1.0000
  C   C221      1.0  0.69597  0.50071  0.42074  1.0000
  H   H127      1.0  0.68558  0.49681  0.47958  1.0000
  H   H128      1.0  0.73099  0.53415  0.47357  1.0000
  H   H129      1.0  0.76123  0.49802  0.34948  1.0000
  H   H130      1.0  0.82252  0.57659  0.32542  1.0000
  H   H131      1.0  0.84620  0.62401  0.33705  1.0000
  H   H132      1.0  0.81784  0.68164  0.46747  1.0000
  H   H133      1.0  0.80151  0.71297  0.47271  1.0000
  H   H134      1.0  0.90779  0.70264  0.32111  1.0000
  H   H135      1.0  0.91120  0.57451  0.33264  1.0000
  H   H136      1.0  0.93696  0.62609  0.33130  1.0000
  H   H137      1.0  0.93484  0.67414  0.47136  1.0000
  H   H138      1.0  0.98254  0.70513  0.47295  1.0000
  H   H139      1.0  0.86184  0.52719  0.47653  1.0000
  H   H140      1.0  0.86937  0.48951  0.47886  1.0000
  C   C222      1.0  0.55317  0.26492  0.34383  1.0000
  C   C223      1.0  0.55312  0.28913  0.34317  1.0000
  C   C224      1.0  0.52625  0.28332  0.33653  1.0000
  N   N32       1.0  0.51108  0.25588  0.33276  1.0000
  C   C225      1.0  0.52635  0.24373  0.33683  1.0000
  C   C226      1.0  0.51819  0.21565  0.33565  1.0000
  C   C227      1.0  0.49084  0.19419  0.33437  1.0000
  N   N33       1.0  0.46810  0.19608  0.33285  1.0000
  C   C228      1.0  0.41796  0.16546  0.33102  1.0000
  C   C229      1.0  0.40964  0.18524  0.32961  1.0000
  N   N34       1.0  0.42487  0.21268  0.33231  1.0000
  C   C230      1.0  0.40962  0.22487  0.32948  1.0000
  C   C231      1.0  0.38274  0.20375  0.32460  1.0000
  C   C232      1.0  0.38276  0.17950  0.32426  1.0000
  C   C233      1.0  0.41791  0.25295  0.33074  1.0000
  C   C234      1.0  0.44526  0.27447  0.33200  1.0000
  N   N35       1.0  0.46799  0.27257  0.33252  1.0000
  C   C235      1.0  0.49066  0.29725  0.33309  1.0000
  C   C236      1.0  0.48196  0.31624  0.33279  1.0000
  C   C237      1.0  0.45396  0.30220  0.33238  1.0000
  C   C238      1.0  0.51799  0.30314  0.33489  1.0000
  C   C239      1.0  0.53868  0.33094  0.33606  1.0000
  C   C240      1.0  0.58394  0.38493  0.33850  1.0000
  C   C241      1.0  0.57145  0.37108  0.41873  1.0000
  C   C242      1.0  0.54912  0.34452  0.41773  1.0000
  C   C243      1.0  0.39740  0.26031  0.33085  1.0000
  C   C244      1.0  0.36050  0.28057  0.33239  1.0000
  C   C245      1.0  0.36936  0.27437  0.41286  1.0000
  C   C246      1.0  0.38748  0.26434  0.41229  1.0000
  C   C247      1.0  0.39745  0.13752  0.33142  1.0000
  C   C248      1.0  0.38325  0.12514  0.41078  1.0000
  C   C249      1.0  0.36513  0.09700  0.41396  1.0000
  C   C250      1.0  0.36110  0.08037  0.33866  1.0000
  C   C251      1.0  0.53902  0.20866  0.33736  1.0000
  C   C252      1.0  0.54537  0.19986  0.41718  1.0000
  C   C253      1.0  0.58452  0.20047  0.34544  1.0000
  C   C254      1.0  0.56763  0.19555  0.42075  1.0000
  H   H141      1.0  0.57155  0.18908  0.47958  1.0000
  H   H142      1.0  0.53419  0.19712  0.47374  1.0000
  H   H143      1.0  0.57028  0.26346  0.34952  1.0000
  H   H144      1.0  0.49171  0.24617  0.32591  1.0000
  H   H145      1.0  0.44428  0.22240  0.33793  1.0000
  H   H146      1.0  0.44252  0.13183  0.33650  1.0000
  H   H147      1.0  0.38657  0.13641  0.46749  1.0000
  H   H148      1.0  0.35524  0.08874  0.47261  1.0000
  H   H149      1.0  0.36567  0.20535  0.32080  1.0000
  H   H150      1.0  0.49376  0.33691  0.33347  1.0000
  H   H151      1.0  0.44217  0.31107  0.33213  1.0000
  H   H152      1.0  0.39405  0.26085  0.47174  1.0000
  H   H153      1.0  0.36305  0.27755  0.47333  1.0000
  H   H154      1.0  0.54109  0.33487  0.47700  1.0000
  H   H155      1.0  0.57877  0.38005  0.47935  1.0000
  C   C255      1.0  0.80340  0.28847  0.34389  1.0000
  C   C256      1.0  0.78499  0.24316  0.33606  1.0000
  C   C257      1.0  0.85266  0.30276  0.33492  1.0000
  C   C258      1.0  0.87412  0.29688  0.33351  1.0000
  C   C259      1.0  0.88306  0.22461  0.32934  1.0000
  C   C260      1.0  0.86456  0.17920  0.32470  1.0000
  C   C261      1.0  0.81534  0.16518  0.33020  1.0000
  C   C262      1.0  0.79383  0.17102  0.33127  1.0000
  N   N36       1.0  0.79573  0.19564  0.33194  1.0000
  C   C263      1.0  0.75206  0.16595  0.33181  1.0000
  C   C264      1.0  0.76610  0.15200  0.33136  1.0000
  C   C265      1.0  0.73737  0.20798  0.33549  1.0000
  C   C266      1.0  0.69720  0.20054  0.41827  1.0000
  C   C267      1.0  0.72374  0.20473  0.41719  1.0000
  C   C268      1.0  0.80798  0.13731  0.33043  1.0000
  C   C269      1.0  0.78773  0.08015  0.33219  1.0000
  C   C270      1.0  0.79388  0.09523  0.41260  1.0000
  C   C271      1.0  0.80388  0.12337  0.41193  1.0000
  C   C272      1.0  0.94313  0.25838  0.41047  1.0000
  C   C273      1.0  0.97127  0.26840  0.41372  1.0000
  C   C274      1.0  0.86851  0.34574  0.41648  1.0000
  C   C275      1.0  0.86787  0.38429  0.34499  1.0000
  C   C276      1.0  0.87284  0.37232  0.42016  1.0000
  H   H156      1.0  0.87936  0.38272  0.47896  1.0000
  H   H157      1.0  0.87131  0.33731  0.47294  1.0000
  H   H158      1.0  0.80487  0.30704  0.35017  1.0000
  H   H159      1.0  0.84589  0.22210  0.33683  1.0000
  H   H160      1.0  0.93184  0.25046  0.46718  1.0000
  H   H161      1.0  0.97950  0.26680  0.47243  1.0000
  H   H162      1.0  0.86295  0.16052  0.32112  1.0000
  H   H163      1.0  0.73139  0.15708  0.33225  1.0000
  H   H164      1.0  0.75723  0.13133  0.33097  1.0000
  H   H165      1.0  0.80735  0.13346  0.47134  1.0000
  H   H166      1.0  0.79066  0.08577  0.47312  1.0000
  H   H167      1.0  0.73338  0.20632  0.47643  1.0000
  H   H168      1.0  0.68820  0.19884  0.47889  1.0000
  C   C277      1.0  0.22120  0.63550  0.34873  1.0000
  C   C278      1.0  0.22005  0.58547  0.33990  1.0000
  N   N37       1.0  0.23078  0.60261  0.41053  1.0000
  C   C279      1.0  0.23179  0.62692  0.41925  1.0000
  N   N38       1.0  0.24487  0.64340  0.49388  1.0000
  O   O1        1.0  0.23331  0.63122  0.56453  1.0000
  O   O2        1.0  0.26919  0.64905  0.49739  1.0000
  C   C280      1.0  0.43278  0.58596  0.34903  1.0000
  C   C281      1.0  0.48282  0.63482  0.34026  1.0000
  N   N39       1.0  0.46564  0.62843  0.41083  1.0000
  C   C282      1.0  0.44131  0.60514  0.41951  1.0000
  N   N40       1.0  0.42480  0.60177  0.49408  1.0000
  O   O3        1.0  0.43694  0.60240  0.56480  1.0000
  O   O4        1.0  0.41915  0.62044  0.49746  1.0000
  C   C283      1.0  0.48237  0.84710  0.34901  1.0000
  C   C284      1.0  0.43351  0.84828  0.34007  1.0000
  N   N41       1.0  0.43988  0.83752  0.41072  1.0000
  C   C285      1.0  0.46317  0.83650  0.41951  1.0000
  N   N42       1.0  0.46651  0.82338  0.49416  1.0000
  O   O5        1.0  0.46586  0.83492  0.56481  1.0000
  O   O6        1.0  0.44784  0.79907  0.49760  1.0000
  C   C286      1.0  0.86974  0.41019  0.34934  1.0000
  C   C287      1.0  0.87090  0.46023  0.34055  1.0000
  N   N43       1.0  0.86015  0.44307  0.41119  1.0000
  C   C288      1.0  0.85914  0.41876  0.41991  1.0000
  N   N44       1.0  0.84604  0.40228  0.49457  1.0000
  O   O7        1.0  0.85759  0.41445  0.56520  1.0000
  O   O8        1.0  0.82172  0.39663  0.49811  1.0000
  C   C289      1.0  0.65810  0.45977  0.34985  1.0000
  C   C290      1.0  0.60808  0.41088  0.34101  1.0000
  N   N45       1.0  0.62523  0.41727  0.41159  1.0000
  C   C291      1.0  0.64954  0.44057  0.42030  1.0000
  N   N46       1.0  0.66602  0.44394  0.49489  1.0000
  O   O9        1.0  0.65384  0.44328  0.56558  1.0000
  O   O10       1.0  0.67168  0.42527  0.49827  1.0000
  C   C292      1.0  0.60858  0.19864  0.34964  1.0000
  C   C293      1.0  0.65744  0.19745  0.34068  1.0000
  N   N47       1.0  0.65106  0.20823  0.41130  1.0000
  C   C294      1.0  0.62777  0.20926  0.42008  1.0000
  N   N48       1.0  0.62440  0.22238  0.49470  1.0000
  O   O11       1.0  0.62504  0.21085  0.56538  1.0000
  O   O12       1.0  0.64308  0.24670  0.49807  1.0000
  C   C295      1.0  0.01676  0.29379  0.34279  1.0000
  C   C296      1.0  0.07387  0.32161  0.33423  1.0000
  N   N49       1.0  0.06016  0.32406  0.40466  1.0000
  C   C297      1.0  0.03268  0.31106  0.41328  1.0000
  N   N50       1.0  0.02112  0.31668  0.48768  1.0000
  O   O13       1.0  0.02854  0.31052  0.55855  1.0000
  O   O14       1.0  0.02850  0.34148  0.49077  1.0000
  C   C298      1.0  0.77451  0.72320  0.34314  1.0000
  C   C299      1.0  0.74670  0.75249  0.33463  1.0000
  N   N51       1.0  0.74424  0.73634  0.40507  1.0000
  C   C300      1.0  0.75724  0.72185  0.41368  1.0000
  N   N52       1.0  0.75162  0.70469  0.48812  1.0000
  O   O15       1.0  0.75778  0.71828  0.55895  1.0000
  O   O16       1.0  0.72683  0.68728  0.49128  1.0000
  C   C301      1.0  0.34509  0.05154  0.34300  1.0000
  C   C302      1.0  0.31584  0.99443  0.33421  1.0000
  N   N53       1.0  0.33192  0.00810  0.40476  1.0000
  C   C303      1.0  0.34640  0.03558  0.41347  1.0000
  N   N54       1.0  0.36349  0.04711  0.48802  1.0000
  O   O17       1.0  0.34983  0.03964  0.55877  1.0000
  O   O18       1.0  0.38091  0.03974  0.49128  1.0000
  C   C304      1.0  0.07415  0.75183  0.34247  1.0000
  C   C305      1.0  0.01704  0.72403  0.33420  1.0000
  N   N55       1.0  0.03075  0.72156  0.40453  1.0000
  C   C306      1.0  0.05824  0.73454  0.41302  1.0000
  N   N56       1.0  0.06980  0.72893  0.48736  1.0000
  O   O19       1.0  0.06238  0.73509  0.55827  1.0000
  O   O20       1.0  0.06241  0.70413  0.49048  1.0000
  C   C307      1.0  0.31640  0.32248  0.34296  1.0000
  C   C308      1.0  0.34422  0.29319  0.33462  1.0000
  N   N57       1.0  0.34663  0.30932  0.40504  1.0000
  C   C309      1.0  0.33362  0.32381  0.41356  1.0000
  N   N58       1.0  0.33919  0.34096  0.48798  1.0000
  O   O21       1.0  0.33299  0.32735  0.55883  1.0000
  O   O22       1.0  0.36399  0.35837  0.49121  1.0000
  C   C310      1.0  0.74584  0.99414  0.34311  1.0000
  C   C311      1.0  0.77512  0.05125  0.33453  1.0000
  N   N59       1.0  0.75897  0.03755  0.40498  1.0000
  C   C312      1.0  0.74448  0.01006  0.41362  1.0000
  N   N60       1.0  0.72732  0.99851  0.48806  1.0000
  O   O23       1.0  0.74090  0.00594  0.55890  1.0000
  O   O24       1.0  0.70990  0.00589  0.49121  1.0000
