data_image0
_chemical_formula_structural       CNHCNHCNHCNHC2NCHC2NCHC2NCHC2NCHC2NCHC2NCHC2NCHC2NCHCNHCNHCNHCNHC2NCHC2NCHC2NCHC2NCHCNHCNHCNHCNHC2NCHC2NCHCNHCNHCNHCNHC2NCHC2NCHC2NCHC2NCHC2NCHC2NCHC2NCHC2NCHCNHCNHCNHCNHCNCNCNCNCNCNCNCNCNCNCNCNCNCNCNCNCNCNCNCNCNCNCNCNCNCNCNCNCNCNCNCNCNCNCNCNCNCNCNCNCNCNCNCNCNCNCNCNCNCNCNCNCNCNCNCNCNCNCNCNCNCNCNCNCNCNCNCNCNCNCNCNCNCNCNCNCNCNCNCNCNCNCNCNC2NCHC2NCHC2NCHC2NCHCNHCNHCNHCNHCNHCNHCNHCNHC2NCHC2NCHC2NCHC2NCHCNHCNHCNHCNHC2NCHC2NCHC2NCHC2NCHCNHCNHC2NCHC2NCHC2NCHC2NCHCNHCNHCNHCNHCNHCNHCNHCNHC2NCHC2NCHC2NCHC2NCH
_chemical_formula_sum              "C252 N168 H84"
_cell_length_a       51.1181
_cell_length_b       51.1181
_cell_length_c       14.8421
_cell_angle_alpha    90
_cell_angle_beta     90
_cell_angle_gamma    90

_space_group_name_H-M_alt    "P 1"
_space_group_IT_number       1

loop_
  _space_group_symop_operation_xyz
  'x, y, z'

loop_
  _atom_site_type_symbol
  _atom_site_label
  _atom_site_symmetry_multiplicity
  _atom_site_fract_x
  _atom_site_fract_y
  _atom_site_fract_z
  _atom_site_occupancy
  C   C1        1.0  0.13059  0.16398  0.39101  1.0000
  N   N1        1.0  0.11347  0.14406  0.38289  1.0000
  H   H1        1.0  0.12367  0.18276  0.39029  1.0000
  C   C2        1.0  0.87969  0.84703  0.39057  1.0000
  N   N2        1.0  0.89680  0.86696  0.38284  1.0000
  H   H2        1.0  0.88664  0.82826  0.39019  1.0000
  C   C3        1.0  0.84655  0.13163  0.38967  1.0000
  N   N3        1.0  0.86641  0.11444  0.38179  1.0000
  H   H3        1.0  0.82776  0.12474  0.38936  1.0000
  C   C4        1.0  0.16409  0.87995  0.38953  1.0000
  N   N4        1.0  0.14414  0.89704  0.38162  1.0000
  H   H4        1.0  0.18286  0.88690  0.38883  1.0000
  C   C5        1.0  0.09710  0.03164  0.28625  1.0000
  C   C6        1.0  0.08207  0.01704  0.22443  1.0000
  N   N5        1.0  0.08209  0.99084  0.23199  1.0000
  C   C7        1.0  0.09740  0.97754  0.29100  1.0000
  H   H5        1.0  0.06894  0.02558  0.18144  1.0000
  C   C8        1.0  0.91329  0.97947  0.28765  1.0000
  C   C9        1.0  0.92827  0.99403  0.22563  1.0000
  N   N6        1.0  0.92823  0.02024  0.23290  1.0000
  C   C10       1.0  0.91295  0.03358  0.29187  1.0000
  H   H6        1.0  0.94138  0.98547  0.18259  1.0000
  C   C11       1.0  0.97885  0.09756  0.28621  1.0000
  C   C12       1.0  0.99339  0.08242  0.22454  1.0000
  N   N7        1.0  0.01959  0.08225  0.23218  1.0000
  C   C13       1.0  0.03296  0.09748  0.29120  1.0000
  H   H7        1.0  0.98478  0.06932  0.18157  1.0000
  C   C14       1.0  0.03150  0.91350  0.28706  1.0000
  C   C15       1.0  0.01693  0.92856  0.22525  1.0000
  N   N8        1.0  0.99073  0.92873  0.23310  1.0000
  C   C16       1.0  0.97742  0.91356  0.29244  1.0000
  H   H8        1.0  0.02551  0.94161  0.18203  1.0000
  C   C17       1.0  0.18038  0.24773  0.35519  1.0000
  C   C18       1.0  0.15397  0.25605  0.36185  1.0000
  N   N9        1.0  0.14817  0.28195  0.35658  1.0000
  C   C19       1.0  0.16664  0.30066  0.34341  1.0000
  H   H9        1.0  0.13905  0.24309  0.37258  1.0000
  C   C20       1.0  0.83031  0.76310  0.35646  1.0000
  C   C21       1.0  0.85672  0.75489  0.36424  1.0000
  N   N10       1.0  0.86264  0.72901  0.35948  1.0000
  C   C22       1.0  0.84427  0.71023  0.34568  1.0000
  H   H10       1.0  0.87155  0.76792  0.37553  1.0000
  C   C23       1.0  0.76278  0.18107  0.35520  1.0000
  C   C24       1.0  0.75462  0.15463  0.36260  1.0000
  N   N11       1.0  0.72876  0.14864  0.35693  1.0000
  C   C25       1.0  0.70997  0.16695  0.34261  1.0000
  H   H11       1.0  0.76765  0.13983  0.37416  1.0000
  C   C26       1.0  0.24804  0.83021  0.35552  1.0000
  C   C27       1.0  0.25639  0.85660  0.36199  1.0000
  N   N12       1.0  0.28231  0.86235  0.35685  1.0000
  C   C28       1.0  0.30100  0.84382  0.34410  1.0000
  H   H12       1.0  0.24345  0.87155  0.37236  1.0000
  C   C29       1.0  0.81790  0.29306  0.33998  1.0000
  N   N13       1.0  0.81211  0.26736  0.34606  1.0000
  H   H13       1.0  0.80264  0.30571  0.33157  1.0000
  C   C30       1.0  0.19256  0.71872  0.33659  1.0000
  N   N14       1.0  0.19838  0.74438  0.34339  1.0000
  H   H14       1.0  0.20775  0.70616  0.32651  1.0000
  C   C31       1.0  0.29178  0.19187  0.33554  1.0000
  N   N15       1.0  0.26615  0.19780  0.34250  1.0000
  H   H15       1.0  0.30435  0.20699  0.32458  1.0000
  C   C32       1.0  0.71851  0.81805  0.33781  1.0000
  N   N16       1.0  0.74421  0.81235  0.34450  1.0000
  H   H16       1.0  0.70599  0.80277  0.32866  1.0000
  C   C33       1.0  0.39840  0.05410  0.34388  1.0000
  C   C34       1.0  0.41352  0.07744  0.34209  1.0000
  N   N17       1.0  0.40169  0.10128  0.34182  1.0000
  C   C35       1.0  0.37534  0.10491  0.34340  1.0000
  H   H17       1.0  0.43351  0.07701  0.34077  1.0000
  C   C36       1.0  0.61238  0.95610  0.34181  1.0000
  C   C37       1.0  0.59709  0.93287  0.33891  1.0000
  N   N18       1.0  0.60871  0.90892  0.33848  1.0000
  C   C38       1.0  0.63501  0.90504  0.34087  1.0000
  H   H18       1.0  0.57710  0.93347  0.33695  1.0000
  C   C39       1.0  0.95640  0.39872  0.34332  1.0000
  C   C40       1.0  0.93318  0.41402  0.34081  1.0000
  N   N19       1.0  0.90926  0.40238  0.34052  1.0000
  C   C41       1.0  0.90542  0.37607  0.34278  1.0000
  H   H19       1.0  0.93376  0.43400  0.33895  1.0000
  C   C42       1.0  0.05455  0.61251  0.34407  1.0000
  C   C43       1.0  0.07782  0.59729  0.34093  1.0000
  N   N20       1.0  0.10171  0.60901  0.34033  1.0000
  C   C44       1.0  0.10546  0.63534  0.34275  1.0000
  H   H20       1.0  0.07730  0.57731  0.33894  1.0000
  C   C45       1.0  0.65094  0.08278  0.34340  1.0000
  N   N21       1.0  0.63927  0.05870  0.34323  1.0000
  H   H21       1.0  0.67091  0.08371  0.34167  1.0000
  C   C46       1.0  0.36017  0.92769  0.34459  1.0000
  N   N22       1.0  0.37187  0.95174  0.34429  1.0000
  H   H22       1.0  0.34020  0.92680  0.34339  1.0000
  C   C47       1.0  0.08270  0.35993  0.34430  1.0000
  N   N23       1.0  0.05869  0.37171  0.34394  1.0000
  H   H23       1.0  0.08354  0.33995  0.34291  1.0000
  C   C48       1.0  0.92819  0.65102  0.34743  1.0000
  N   N24       1.0  0.95223  0.63928  0.34681  1.0000
  H   H24       1.0  0.92732  0.67099  0.34522  1.0000
  C   C49       1.0  0.47810  0.00447  0.34410  1.0000
  C   C50       1.0  0.49315  0.98128  0.34311  1.0000
  N   N25       1.0  0.51964  0.98299  0.34306  1.0000
  C   C51       1.0  0.53296  0.00604  0.34397  1.0000
  H   H25       1.0  0.48465  0.96317  0.34236  1.0000
  C   C52       1.0  0.00631  0.47813  0.34457  1.0000
  C   C53       1.0  0.02952  0.49317  0.34333  1.0000
  N   N26       1.0  0.02782  0.51965  0.34380  1.0000
  C   C54       1.0  0.00477  0.53298  0.34546  1.0000
  H   H26       1.0  0.04762  0.48465  0.34202  1.0000
  C   C55       1.0  0.23206  0.41995  0.33413  1.0000
  N   N27       1.0  0.20783  0.40862  0.33703  1.0000
  H   H27       1.0  0.23361  0.43916  0.31576  1.0000
  C   C56       1.0  0.77904  0.59061  0.34273  1.0000
  N   N28       1.0  0.80321  0.60207  0.34505  1.0000
  H   H28       1.0  0.77767  0.57111  0.32827  1.0000
  C   C57       1.0  0.59056  0.23221  0.33095  1.0000
  N   N29       1.0  0.60191  0.20799  0.33432  1.0000
  H   H29       1.0  0.57123  0.23365  0.31400  1.0000
  C   C58       1.0  0.42029  0.77826  0.33220  1.0000
  N   N30       1.0  0.40898  0.80251  0.33544  1.0000
  H   H30       1.0  0.43951  0.77673  0.31382  1.0000
  C   C59       1.0  0.80756  0.38432  0.32780  1.0000
  C   C60       1.0  0.78466  0.36990  0.30521  1.0000
  N   N31       1.0  0.76075  0.38097  0.31131  1.0000
  C   C61       1.0  0.75670  0.40611  0.33615  1.0000
  H   H31       1.0  0.78530  0.35075  0.28569  1.0000
  C   C62       1.0  0.20349  0.62770  0.32989  1.0000
  C   C63       1.0  0.22667  0.64247  0.31396  1.0000
  N   N32       1.0  0.25049  0.63113  0.31861  1.0000
  C   C64       1.0  0.25418  0.60545  0.33634  1.0000
  H   H32       1.0  0.22634  0.66198  0.29982  1.0000
  C   C65       1.0  0.38260  0.20300  0.33264  1.0000
  C   C66       1.0  0.36769  0.22617  0.31797  1.0000
  N   N33       1.0  0.37896  0.25001  0.32238  1.0000
  C   C67       1.0  0.40470  0.25374  0.33888  1.0000
  H   H33       1.0  0.34815  0.22582  0.30474  1.0000
  C   C68       1.0  0.62759  0.80679  0.32834  1.0000
  C   C69       1.0  0.64253  0.78366  0.31319  1.0000
  N   N34       1.0  0.63133  0.75976  0.31747  1.0000
  C   C70       1.0  0.60562  0.75590  0.33413  1.0000
  H   H34       1.0  0.66208  0.78409  0.29984  1.0000
  C   C71       1.0  0.31175  0.53193  0.33826  1.0000
  C   C72       1.0  0.28900  0.51638  0.32924  1.0000
  N   N35       1.0  0.29104  0.49015  0.33052  1.0000
  C   C73       1.0  0.31377  0.47660  0.33905  1.0000
  H   H35       1.0  0.27066  0.52415  0.32255  1.0000
  C   C74       1.0  0.69686  0.47774  0.35283  1.0000
  C   C75       1.0  0.67399  0.49280  0.33866  1.0000
  N   N36       1.0  0.67560  0.51957  0.33971  1.0000
  C   C76       1.0  0.69820  0.53311  0.35569  1.0000
  H   H36       1.0  0.65651  0.48401  0.32446  1.0000
  C   C77       1.0  0.47809  0.31125  0.33802  1.0000
  C   C78       1.0  0.49362  0.28847  0.32888  1.0000
  N   N37       1.0  0.51985  0.29052  0.32933  1.0000
  C   C79       1.0  0.53333  0.31329  0.33715  1.0000
  H   H37       1.0  0.48583  0.27013  0.32266  1.0000
  C   C80       1.0  0.53223  0.69822  0.33441  1.0000
  C   C81       1.0  0.51674  0.72088  0.32196  1.0000
  N   N38       1.0  0.49049  0.71895  0.32371  1.0000
  C   C82       1.0  0.47689  0.69638  0.33548  1.0000
  H   H38       1.0  0.52458  0.73910  0.31275  1.0000
  C   C83       1.0  0.39349  0.37419  0.34285  1.0000
  N   N39       1.0  0.37347  0.39197  0.34411  1.0000
  H   H39       1.0  0.41236  0.38075  0.34009  1.0000
  C   C84       1.0  0.61715  0.63532  0.34303  1.0000
  N   N40       1.0  0.63724  0.61760  0.34538  1.0000
  H   H40       1.0  0.59829  0.62868  0.34188  1.0000
  C   C85       1.0  0.66949  0.35935  0.33959  1.0000
  N   N41       1.0  0.64960  0.34177  0.34066  1.0000
  H   H41       1.0  0.68824  0.35238  0.33864  1.0000
  C   C86       1.0  0.37459  0.61673  0.34141  1.0000
  N   N42       1.0  0.39232  0.63679  0.34251  1.0000
  H   H42       1.0  0.38119  0.59787  0.33897  1.0000
  C   C87       1.0  0.05928  0.09130  0.30464  1.0000
  N   N43       1.0  0.07700  0.10795  0.34024  1.0000
  C   C88       1.0  0.10196  0.09997  0.35618  1.0000
  N   N44       1.0  0.10904  0.07494  0.33701  1.0000
  C   C89       1.0  0.09160  0.05808  0.30091  1.0000
  N   N45       1.0  0.06695  0.06659  0.28612  1.0000
  C   C90       1.0  0.95110  0.91979  0.30599  1.0000
  N   N46       1.0  0.93331  0.90309  0.34094  1.0000
  C   C91       1.0  0.90834  0.91107  0.35660  1.0000
  N   N47       1.0  0.90129  0.93613  0.33775  1.0000
  C   C92       1.0  0.91880  0.95303  0.30229  1.0000
  N   N48       1.0  0.94347  0.94452  0.28772  1.0000
  C   C93       1.0  0.91912  0.05993  0.30517  1.0000
  N   N49       1.0  0.90246  0.07777  0.34006  1.0000
  C   C94       1.0  0.91048  0.10276  0.35545  1.0000
  N   N50       1.0  0.93555  0.10974  0.33639  1.0000
  C   C95       1.0  0.95240  0.09218  0.30095  1.0000
  N   N51       1.0  0.94385  0.06753  0.28670  1.0000
  C   C96       1.0  0.09123  0.95123  0.30467  1.0000
  N   N52       1.0  0.10794  0.93347  0.33965  1.0000
  C   C97       1.0  0.09999  0.90849  0.35556  1.0000
  N   N53       1.0  0.07491  0.90144  0.33697  1.0000
  C   C98       1.0  0.05798  0.91893  0.30150  1.0000
  N   N54       1.0  0.06649  0.94357  0.28667  1.0000
  C   C99       1.0  0.22128  0.18820  0.36439  1.0000
  N   N55       1.0  0.21416  0.21388  0.35698  1.0000
  C   C100      1.0  0.18861  0.22148  0.36311  1.0000
  N   N56       1.0  0.17037  0.20278  0.37663  1.0000
  C   C101      1.0  0.17682  0.17727  0.38487  1.0000
  N   N57       1.0  0.20223  0.17029  0.37780  1.0000
  C   C102      1.0  0.78908  0.82242  0.36409  1.0000
  N   N58       1.0  0.79634  0.79676  0.35746  1.0000
  C   C103      1.0  0.82193  0.78931  0.36372  1.0000
  N   N59       1.0  0.84007  0.80814  0.37664  1.0000
  C   C104      1.0  0.83349  0.83363  0.38407  1.0000
  N   N60       1.0  0.80804  0.84047  0.37689  1.0000
  C   C105      1.0  0.82210  0.22234  0.36412  1.0000
  N   N61       1.0  0.79644  0.21509  0.35719  1.0000
  C   C106      1.0  0.78897  0.18949  0.36299  1.0000
  N   N62       1.0  0.80780  0.17134  0.37575  1.0000
  C   C107      1.0  0.83329  0.17788  0.38348  1.0000
  N   N63       1.0  0.84014  0.20335  0.37674  1.0000
  C   C108      1.0  0.18855  0.78927  0.36404  1.0000
  N   N64       1.0  0.21422  0.79644  0.35710  1.0000
  C   C109      1.0  0.22177  0.82200  0.36307  1.0000
  N   N65       1.0  0.20302  0.84023  0.37596  1.0000
  C   C110      1.0  0.17750  0.83374  0.38371  1.0000
  N   N66       1.0  0.17058  0.80829  0.37685  1.0000
  C   C111      1.0  0.40989  0.98118  0.34515  1.0000
  N   N67       1.0  0.39697  0.00486  0.34479  1.0000
  C   C112      1.0  0.41010  0.02844  0.34421  1.0000
  N   N68       1.0  0.43671  0.02728  0.34402  1.0000
  C   C113      1.0  0.45041  0.00463  0.34428  1.0000
  N   N69       1.0  0.43645  0.98218  0.34484  1.0000
  C   C114      1.0  0.60124  0.02918  0.34461  1.0000
  N   N70       1.0  0.61408  0.00543  0.34361  1.0000
  C   C115      1.0  0.60088  0.98187  0.34271  1.0000
  N   N71       1.0  0.57428  0.98316  0.34288  1.0000
  C   C116      1.0  0.56064  0.00584  0.34385  1.0000
  N   N72       1.0  0.57468  0.02824  0.34467  1.0000
  C   C117      1.0  0.02939  0.40985  0.34500  1.0000
  N   N73       1.0  0.00566  0.39701  0.34444  1.0000
  C   C118      1.0  0.98213  0.41025  0.34385  1.0000
  N   N74       1.0  0.98342  0.43684  0.34391  1.0000
  C   C119      1.0  0.00611  0.45046  0.34438  1.0000
  N   N75       1.0  0.02850  0.43641  0.34491  1.0000
  C   C120      1.0  0.98160  0.60122  0.34796  1.0000
  N   N76       1.0  0.00530  0.61409  0.34672  1.0000
  C   C121      1.0  0.02885  0.60090  0.34513  1.0000
  N   N77       1.0  0.02762  0.57431  0.34479  1.0000
  C   C122      1.0  0.00495  0.56065  0.34589  1.0000
  N   N78       1.0  0.98254  0.57466  0.34746  1.0000
  C   C123      1.0  0.32716  0.40475  0.34754  1.0000
  N   N79       1.0  0.33166  0.43119  0.34382  1.0000
  C   C124      1.0  0.31150  0.44883  0.34192  1.0000
  N   N80       1.0  0.28667  0.43922  0.34392  1.0000
  C   C125      1.0  0.28098  0.41350  0.34818  1.0000
  N   N81       1.0  0.30166  0.39677  0.35014  1.0000
  C   C126      1.0  0.68374  0.60499  0.34944  1.0000
  N   N82       1.0  0.67969  0.57841  0.35021  1.0000
  C   C127      1.0  0.70014  0.56102  0.35289  1.0000
  N   N83       1.0  0.72472  0.57119  0.35361  1.0000
  C   C128      1.0  0.73005  0.59697  0.35300  1.0000
  N   N84       1.0  0.70912  0.61337  0.35149  1.0000
  C   C129      1.0  0.60482  0.32749  0.34265  1.0000
  N   N85       1.0  0.57835  0.33158  0.34022  1.0000
  C   C130      1.0  0.56106  0.31118  0.33889  1.0000
  N   N86       1.0  0.57103  0.28650  0.34027  1.0000
  C   C131      1.0  0.59687  0.28121  0.34329  1.0000
  N   N87       1.0  0.61336  0.30215  0.34463  1.0000
  C   C132      1.0  0.40505  0.68312  0.34538  1.0000
  N   N88       1.0  0.43147  0.67861  0.34128  1.0000
  C   C133      1.0  0.44914  0.69875  0.33899  1.0000
  N   N89       1.0  0.43956  0.72360  0.34110  1.0000
  C   C134      1.0  0.41385  0.72931  0.34584  1.0000
  N   N90       1.0  0.39709  0.70863  0.34806  1.0000
  C   C135      1.0  0.68425  0.40587  0.34069  1.0000
  N   N91       1.0  0.67955  0.43224  0.34530  1.0000
  C   C136      1.0  0.69957  0.45003  0.34816  1.0000
  N   N92       1.0  0.72451  0.44064  0.34593  1.0000
  C   C137      1.0  0.73037  0.41495  0.34049  1.0000
  N   N93       1.0  0.70979  0.39808  0.33790  1.0000
  C   C138      1.0  0.32674  0.60346  0.34141  1.0000
  N   N94       1.0  0.33045  0.57688  0.34119  1.0000
  C   C139      1.0  0.30980  0.55980  0.33982  1.0000
  N   N95       1.0  0.28535  0.57026  0.33924  1.0000
  C   C140      1.0  0.28036  0.59615  0.33924  1.0000
  N   N96       1.0  0.30151  0.61233  0.33992  1.0000
  C   C141      1.0  0.40664  0.32631  0.34304  1.0000
  N   N97       1.0  0.43322  0.33001  0.34199  1.0000
  C   C142      1.0  0.45025  0.30934  0.34042  1.0000
  N   N98       1.0  0.43980  0.28490  0.34048  1.0000
  C   C143      1.0  0.41393  0.27993  0.34133  1.0000
  N   N99       1.0  0.39775  0.30109  0.34217  1.0000
  C   C144      1.0  0.60380  0.68324  0.33984  1.0000
  N   N100      1.0  0.57721  0.67952  0.33901  1.0000
  C   C145      1.0  0.56011  0.70014  0.33673  1.0000
  N   N101      1.0  0.57056  0.72461  0.33616  1.0000
  C   C146      1.0  0.59643  0.72965  0.33686  1.0000
  N   N102      1.0  0.61263  0.70850  0.33823  1.0000
  C   C147      1.0  0.17869  0.37052  0.35436  1.0000
  N   N103      1.0  0.15386  0.38068  0.35194  1.0000
  C   C148      1.0  0.13195  0.36489  0.34744  1.0000
  N   N104      1.0  0.13566  0.33835  0.34440  1.0000
  C   C149      1.0  0.15999  0.32757  0.34420  1.0000
  N   N105      1.0  0.18012  0.34430  0.34954  1.0000
  C   C150      1.0  0.83219  0.64043  0.35797  1.0000
  N   N106      1.0  0.85703  0.63024  0.35614  1.0000
  C   C151      1.0  0.87896  0.64601  0.35157  1.0000
  N   N107      1.0  0.87528  0.67255  0.34791  1.0000
  C   C152      1.0  0.85097  0.68335  0.34727  1.0000
  N   N108      1.0  0.83084  0.66663  0.35268  1.0000
  C   C153      1.0  0.64007  0.17886  0.35135  1.0000
  N   N109      1.0  0.62996  0.15397  0.34961  1.0000
  C   C154      1.0  0.64579  0.13205  0.34621  1.0000
  N   N110      1.0  0.67234  0.13582  0.34369  1.0000
  C   C155      1.0  0.68309  0.16017  0.34304  1.0000
  N   N111      1.0  0.66629  0.18026  0.34722  1.0000
  C   C156      1.0  0.37090  0.83168  0.35343  1.0000
  N   N112      1.0  0.38106  0.85653  0.35116  1.0000
  C   C157      1.0  0.36526  0.87845  0.34728  1.0000
  N   N113      1.0  0.33871  0.87474  0.34477  1.0000
  C   C158      1.0  0.32792  0.85042  0.34466  1.0000
  N   N114      1.0  0.34466  0.83028  0.34927  1.0000
  C   C159      1.0  0.83257  0.37160  0.33271  1.0000
  N   N115      1.0  0.85745  0.38164  0.33623  1.0000
  C   C160      1.0  0.87928  0.36576  0.34157  1.0000
  N   N116      1.0  0.87543  0.33922  0.34472  1.0000
  C   C161      1.0  0.85107  0.32849  0.34258  1.0000
  N   N117      1.0  0.83104  0.34536  0.33695  1.0000
  C   C162      1.0  0.17834  0.64023  0.33352  1.0000
  N   N118      1.0  0.15351  0.63003  0.33672  1.0000
  C   C163      1.0  0.13155  0.64577  0.34126  1.0000
  N   N119      1.0  0.13522  0.67235  0.34370  1.0000
  C   C164      1.0  0.15950  0.68323  0.34131  1.0000
  N   N120      1.0  0.17963  0.66647  0.33667  1.0000
  C   C165      1.0  0.37020  0.17778  0.33576  1.0000
  N   N121      1.0  0.38047  0.15298  0.33853  1.0000
  C   C166      1.0  0.36479  0.13096  0.34230  1.0000
  N   N122      1.0  0.33819  0.13453  0.34418  1.0000
  C   C167      1.0  0.32723  0.15880  0.34195  1.0000
  N   N123      1.0  0.34396  0.17896  0.33823  1.0000
  C   C168      1.0  0.63997  0.83205  0.33231  1.0000
  N   N124      1.0  0.62972  0.85688  0.33501  1.0000
  C   C169      1.0  0.64540  0.87890  0.33972  1.0000
  N   N125      1.0  0.67197  0.87527  0.34274  1.0000
  C   C170      1.0  0.68292  0.85101  0.34087  1.0000
  N   N126      1.0  0.66621  0.83085  0.33602  1.0000
  C   C171      1.0  0.12080  0.11853  0.37972  1.0000
  C   C172      1.0  0.14771  0.11259  0.38554  1.0000
  N   N127      1.0  0.16491  0.13257  0.38916  1.0000
  C   C173      1.0  0.15754  0.15809  0.39172  1.0000
  H   H43       1.0  0.15471  0.09391  0.37990  1.0000
  C   C174      1.0  0.88944  0.89248  0.37945  1.0000
  C   C175      1.0  0.86252  0.89838  0.38447  1.0000
  N   N128      1.0  0.84532  0.87838  0.38783  1.0000
  C   C176      1.0  0.85273  0.85287  0.39071  1.0000
  H   H44       1.0  0.85550  0.91704  0.37864  1.0000
  C   C177      1.0  0.89196  0.12171  0.37831  1.0000
  C   C178      1.0  0.89795  0.14862  0.38350  1.0000
  N   N129      1.0  0.87801  0.16589  0.38703  1.0000
  C   C179      1.0  0.85248  0.15858  0.38990  1.0000
  H   H45       1.0  0.91665  0.15557  0.37771  1.0000
  C   C180      1.0  0.11862  0.88965  0.37856  1.0000
  C   C181      1.0  0.11273  0.86274  0.38424  1.0000
  N   N130      1.0  0.13276  0.84556  0.38776  1.0000
  C   C182      1.0  0.15826  0.85299  0.39021  1.0000
  H   H46       1.0  0.09406  0.85570  0.37874  1.0000
  C   C183      1.0  0.11445  0.99199  0.34680  1.0000
  N   N131      1.0  0.11287  0.01851  0.34469  1.0000
  H   H47       1.0  0.12537  0.98314  0.39585  1.0000
  C   C184      1.0  0.89595  0.01917  0.34796  1.0000
  N   N132      1.0  0.89754  0.99265  0.34606  1.0000
  H   H48       1.0  0.88505  0.02805  0.39699  1.0000
  C   C185      1.0  0.01861  0.11467  0.34678  1.0000
  N   N133      1.0  0.99208  0.11327  0.34459  1.0000
  H   H49       1.0  0.02751  0.12559  0.39573  1.0000
  C   C186      1.0  0.99181  0.89644  0.34818  1.0000
  N   N134      1.0  0.01833  0.89785  0.34579  1.0000
  H   H50       1.0  0.98293  0.88559  0.39736  1.0000
  C   C187      1.0  0.19295  0.29208  0.33453  1.0000
  N   N135      1.0  0.19873  0.26638  0.34124  1.0000
  H   H51       1.0  0.20814  0.30475  0.32434  1.0000
  C   C188      1.0  0.81796  0.71872  0.33554  1.0000
  N   N136      1.0  0.81207  0.74439  0.34184  1.0000
  H   H52       1.0  0.80286  0.70601  0.32471  1.0000
  C   C189      1.0  0.71841  0.19329  0.33301  1.0000
  N   N137      1.0  0.74406  0.19926  0.34013  1.0000
  H   H53       1.0  0.70569  0.20836  0.32187  1.0000
  C   C190      1.0  0.29238  0.81752  0.33553  1.0000
  N   N138      1.0  0.26667  0.81180  0.34201  1.0000
  H   H54       1.0  0.30502  0.80230  0.32562  1.0000
  C   C191      1.0  0.83048  0.24860  0.35768  1.0000
  C   C192      1.0  0.85693  0.25684  0.36313  1.0000
  N   N139      1.0  0.86278  0.28275  0.35750  1.0000
  C   C193      1.0  0.84429  0.30159  0.34618  1.0000
  H   H55       1.0  0.87186  0.24379  0.37195  1.0000
  C   C194      1.0  0.18008  0.76308  0.35715  1.0000
  C   C195      1.0  0.15366  0.75482  0.36392  1.0000
  N   N140      1.0  0.14778  0.72893  0.35781  1.0000
  C   C196      1.0  0.16621  0.71015  0.34449  1.0000
  H   H56       1.0  0.13880  0.76784  0.37436  1.0000
  C   C197      1.0  0.24743  0.17961  0.35732  1.0000
  C   C198      1.0  0.25562  0.15318  0.36499  1.0000
  N   N141      1.0  0.28150  0.14721  0.35888  1.0000
  C   C199      1.0  0.30031  0.16553  0.34456  1.0000
  H   H57       1.0  0.24257  0.13840  0.37629  1.0000
  C   C200      1.0  0.76285  0.83077  0.35709  1.0000
  C   C201      1.0  0.75451  0.85718  0.36283  1.0000
  N   N142      1.0  0.72858  0.86294  0.35671  1.0000
  C   C202      1.0  0.70986  0.84440  0.34449  1.0000
  H   H58       1.0  0.76749  0.87213  0.37237  1.0000
  C   C203      1.0  0.36011  0.08168  0.34524  1.0000
  N   N143      1.0  0.37198  0.05771  0.34537  1.0000
  H   H59       1.0  0.34012  0.08244  0.34629  1.0000
  C   C204      1.0  0.65043  0.92816  0.34374  1.0000
  N   N144      1.0  0.63877  0.95224  0.34407  1.0000
  H   H60       1.0  0.67040  0.92724  0.34547  1.0000
  C   C205      1.0  0.92852  0.36065  0.34531  1.0000
  N   N145      1.0  0.95259  0.37232  0.34544  1.0000
  H   H61       1.0  0.92759  0.34067  0.34684  1.0000
  C   C206      1.0  0.08230  0.65067  0.34583  1.0000
  N   N146      1.0  0.05828  0.63891  0.34636  1.0000
  H   H62       1.0  0.08315  0.67065  0.34759  1.0000
  C   C207      1.0  0.61287  0.05489  0.34537  1.0000
  C   C208      1.0  0.59760  0.07814  0.34793  1.0000
  N   N147      1.0  0.60922  0.10207  0.34808  1.0000
  C   C209      1.0  0.63552  0.10590  0.34587  1.0000
  H   H63       1.0  0.57762  0.07761  0.34971  1.0000
  C   C210      1.0  0.39828  0.95550  0.34580  1.0000
  C   C211      1.0  0.41354  0.93224  0.34783  1.0000
  N   N148      1.0  0.40188  0.90834  0.34820  1.0000
  C   C212      1.0  0.37557  0.90456  0.34662  1.0000
  H   H64       1.0  0.43353  0.93275  0.34915  1.0000
  C   C213      1.0  0.05502  0.39813  0.34570  1.0000
  C   C214      1.0  0.07833  0.41332  0.34807  1.0000
  N   N149      1.0  0.10219  0.40158  0.34851  1.0000
  C   C215      1.0  0.10587  0.37526  0.34669  1.0000
  H   H65       1.0  0.07788  0.43330  0.34960  1.0000
  C   C216      1.0  0.95594  0.61288  0.34945  1.0000
  C   C217      1.0  0.93267  0.59766  0.35311  1.0000
  N   N150      1.0  0.90879  0.60935  0.35367  1.0000
  C   C218      1.0  0.90506  0.63566  0.35093  1.0000
  H   H66       1.0  0.93316  0.57768  0.35535  1.0000
  C   C219      1.0  0.51791  0.02923  0.34498  1.0000
  N   N151      1.0  0.49142  0.02753  0.34499  1.0000
  H   H67       1.0  0.52642  0.04734  0.34570  1.0000
  C   C220      1.0  0.98157  0.51794  0.34671  1.0000
  N   N152      1.0  0.98327  0.49146  0.34621  1.0000
  H   H68       1.0  0.96346  0.52645  0.34801  1.0000
  C   C221      1.0  0.20376  0.38308  0.35950  1.0000
  C   C222      1.0  0.22661  0.36847  0.38145  1.0000
  N   N153      1.0  0.25056  0.37946  0.37586  1.0000
  C   C223      1.0  0.25466  0.40467  0.35210  1.0000
  H   H69       1.0  0.22589  0.34923  0.40006  1.0000
  C   C224      1.0  0.80706  0.62796  0.36264  1.0000
  C   C225      1.0  0.78401  0.64280  0.38007  1.0000
  N   N154      1.0  0.76014  0.63163  0.37526  1.0000
  C   C226      1.0  0.75628  0.60604  0.35632  1.0000
  H   H70       1.0  0.78452  0.66231  0.39503  1.0000
  C   C227      1.0  0.62758  0.20402  0.35523  1.0000
  C   C228      1.0  0.64227  0.22699  0.37499  1.0000
  N   N155      1.0  0.63122  0.25093  0.36920  1.0000
  C   C229      1.0  0.60587  0.25492  0.34700  1.0000
  H   H71       1.0  0.66160  0.22639  0.39250  1.0000
  C   C230      1.0  0.38344  0.80658  0.35798  1.0000
  C   C231      1.0  0.36883  0.78370  0.37962  1.0000
  N   N156      1.0  0.37982  0.75975  0.37377  1.0000
  C   C232      1.0  0.40503  0.75565  0.34995  1.0000
  H   H72       1.0  0.34960  0.78440  0.39830  1.0000
  C   C233      1.0  0.77936  0.42122  0.35472  1.0000
  N   N157      1.0  0.80356  0.40980  0.35138  1.0000
  H   H73       1.0  0.77787  0.44037  0.37391  1.0000
  C   C234      1.0  0.23129  0.59014  0.34897  1.0000
  N   N158      1.0  0.20718  0.60174  0.34647  1.0000
  H   H74       1.0  0.23250  0.57057  0.36246  1.0000
  C   C235      1.0  0.42014  0.23089  0.35053  1.0000
  N   N159      1.0  0.40862  0.20674  0.34808  1.0000
  H   H75       1.0  0.43975  0.23214  0.36301  1.0000
  C   C236      1.0  0.59014  0.77872  0.34606  1.0000
  N   N160      1.0  0.60159  0.80291  0.34391  1.0000
  H   H76       1.0  0.57053  0.77741  0.35876  1.0000
  C   C237      1.0  0.33675  0.49187  0.34653  1.0000
  N   N161      1.0  0.33484  0.51861  0.34624  1.0000
  H   H77       1.0  0.35467  0.48324  0.35378  1.0000
  C   C238      1.0  0.72069  0.51771  0.37288  1.0000
  N   N162      1.0  0.71905  0.49145  0.36987  1.0000
  H   H78       1.0  0.73864  0.52564  0.38630  1.0000
  C   C239      1.0  0.51808  0.33628  0.34475  1.0000
  N   N163      1.0  0.49136  0.33436  0.34528  1.0000
  H   H79       1.0  0.52672  0.35422  0.35140  1.0000
  C   C240      1.0  0.49211  0.67345  0.34580  1.0000
  N   N164      1.0  0.51885  0.67527  0.34543  1.0000
  H   H80       1.0  0.48342  0.65566  0.35569  1.0000
  C   C241      1.0  0.34756  0.38546  0.34758  1.0000
  C   C242      1.0  0.34208  0.35831  0.34979  1.0000
  N   N165      1.0  0.36197  0.34075  0.34813  1.0000
  C   C243      1.0  0.38783  0.34708  0.34468  1.0000
  H   H81       1.0  0.32335  0.35131  0.35213  1.0000
  C   C244      1.0  0.66316  0.62417  0.34710  1.0000
  C   C245      1.0  0.66850  0.65138  0.34625  1.0000
  N   N166      1.0  0.64854  0.66886  0.34386  1.0000
  C   C246      1.0  0.62268  0.66248  0.34213  1.0000
  H   H82       1.0  0.68719  0.65849  0.34735  1.0000
  C   C247      1.0  0.62374  0.34813  0.34230  1.0000
  C   C248      1.0  0.61805  0.37524  0.34279  1.0000
  N   N167      1.0  0.63805  0.39302  0.34207  1.0000
  C   C249      1.0  0.66396  0.38650  0.34033  1.0000
  H   H83       1.0  0.59916  0.38182  0.34403  1.0000
  C   C250      1.0  0.38578  0.66270  0.34558  1.0000
  C   C251      1.0  0.35862  0.66813  0.34747  1.0000
  N   N168      1.0  0.34110  0.64819  0.34594  1.0000
  C   C252      1.0  0.34746  0.62233  0.34292  1.0000
  H   H84       1.0  0.35158  0.68685  0.34946  1.0000
