data_image0
_chemical_formula_structural       C3NC3NC5NC5NC36H26C4H4C3NC2NH2NC3NC2NH2NC16H16C3H2NC3H2N
_chemical_formula_sum              "C88 N12 H54"
_cell_length_a       34.4811
_cell_length_b       34.4811
_cell_length_c       14.717
_cell_angle_alpha    90
_cell_angle_beta     90
_cell_angle_gamma    90.1686

_space_group_name_H-M_alt    "P 1"
_space_group_IT_number       1

loop_
  _space_group_symop_operation_xyz
  'x, y, z'

loop_
  _atom_site_type_symbol
  _atom_site_label
  _atom_site_symmetry_multiplicity
  _atom_site_fract_x
  _atom_site_fract_y
  _atom_site_fract_z
  _atom_site_occupancy
  C   C1        1.0  0.11092  0.08311  0.33542  1.0000
  C   C2        1.0  0.08242  0.11123  0.33485  1.0000
  C   C3        1.0  0.04624  0.09287  0.33574  1.0000
  N   N1        1.0  0.05436  0.05428  0.33651  1.0000
  C   C4        1.0  0.09305  0.04666  0.33586  1.0000
  C   C5        1.0  0.11316  0.01049  0.33571  1.0000
  C   C6        1.0  0.09437  0.97362  0.33583  1.0000
  N   N2        1.0  0.05584  0.96565  0.33650  1.0000
  C   C7        1.0  0.04835  0.92704  0.33539  1.0000
  C   C8        1.0  0.08459  0.90905  0.33423  1.0000
  C   C9        1.0  0.11280  0.93761  0.33416  1.0000
  C   C10       1.0  0.01172  0.90778  0.33540  1.0000
  C   C11       1.0  0.97529  0.92735  0.33579  1.0000
  N   N3        1.0  0.96716  0.96594  0.33575  1.0000
  C   C12       1.0  0.92847  0.97353  0.33510  1.0000
  C   C13       1.0  0.91062  0.93708  0.33547  1.0000
  C   C14       1.0  0.93912  0.90897  0.33550  1.0000
  C   C15       1.0  0.90837  0.00970  0.33450  1.0000
  C   C16       1.0  0.92715  0.04657  0.33472  1.0000
  N   N4        1.0  0.96569  0.05455  0.33552  1.0000
  C   C17       1.0  0.97318  0.09318  0.33466  1.0000
  C   C18       1.0  0.93691  0.11113  0.33364  1.0000
  C   C19       1.0  0.90871  0.08257  0.33319  1.0000
  C   C20       1.0  0.00980  0.11247  0.33489  1.0000
  C   C21       1.0  0.00983  0.15419  0.33218  1.0000
  C   C22       1.0  0.00325  0.17416  0.24977  1.0000
  C   C23       1.0  0.00182  0.21503  0.24729  1.0000
  C   C24       1.0  0.00704  0.23782  0.32673  1.0000
  C   C25       1.0  0.00379  0.27955  0.32420  1.0000
  C   C26       1.0  0.99636  0.36327  0.31693  1.0000
  C   C27       1.0  0.97089  0.33842  0.26847  1.0000
  C   C28       1.0  0.97451  0.29774  0.27197  1.0000
  C   C29       1.0  0.86665  0.00899  0.33166  1.0000
  C   C30       1.0  0.84682  0.00181  0.24930  1.0000
  C   C31       1.0  0.80595  0.00010  0.24653  1.0000
  C   C32       1.0  0.78304  0.00567  0.32558  1.0000
  C   C33       1.0  0.74129  0.00237  0.32272  1.0000
  C   C34       1.0  0.72302  0.97286  0.27101  1.0000
  C   C35       1.0  0.68233  0.96925  0.26713  1.0000
  C   C36       1.0  0.65754  0.99494  0.31471  1.0000
  C   C37       1.0  0.01166  0.86607  0.33277  1.0000
  C   C38       1.0  0.01399  0.78245  0.32690  1.0000
  C   C39       1.0  0.01723  0.80524  0.24689  1.0000
  C   C40       1.0  0.01605  0.84612  0.24958  1.0000
  C   C41       1.0  0.01693  0.74068  0.32390  1.0000
  C   C42       1.0  0.04434  0.72230  0.26667  1.0000
  C   C43       1.0  0.04770  0.68161  0.26280  1.0000
  C   C44       1.0  0.02382  0.65690  0.31591  1.0000
  C   C45       1.0  0.15488  0.01115  0.33313  1.0000
  C   C46       1.0  0.17481  0.01800  0.25075  1.0000
  C   C47       1.0  0.21570  0.01940  0.24811  1.0000
  C   C48       1.0  0.23852  0.01383  0.32731  1.0000
  C   C49       1.0  0.28030  0.01674  0.32448  1.0000
  C   C50       1.0  0.36411  0.02327  0.31602  1.0000
  C   C51       1.0  0.33956  0.04911  0.26822  1.0000
  C   C52       1.0  0.29884  0.04593  0.27230  1.0000
  H   H1        1.0  0.35115  0.07084  0.22923  1.0000
  H   H2        1.0  0.28273  0.06586  0.23737  1.0000
  H   H3        1.0  0.22874  0.02421  0.18669  1.0000
  H   H4        1.0  0.15960  0.02226  0.19188  1.0000
  H   H5        1.0  0.14000  0.08890  0.33497  1.0000
  H   H6        1.0  0.08781  0.14038  0.33370  1.0000
  H   H7        1.0  0.03477  0.03444  0.33687  1.0000
  H   H8        1.0  0.98675  0.98579  0.33531  1.0000
  H   H9        1.0  0.14197  0.93244  0.33279  1.0000
  H   H10       1.0  0.09011  0.87995  0.33321  1.0000
  H   H11       1.0  0.01876  0.86131  0.19014  1.0000
  H   H12       1.0  0.02024  0.79217  0.18490  1.0000
  H   H13       1.0  0.93376  0.87980  0.33532  1.0000
  H   H14       1.0  0.88154  0.93127  0.33552  1.0000
  H   H15       1.0  0.93135  0.14023  0.33300  1.0000
  H   H16       1.0  0.87955  0.08772  0.33193  1.0000
  H   H17       1.0  0.86210  0.99745  0.19056  1.0000
  H   H18       1.0  0.79297  0.99501  0.18514  1.0000
  H   H19       1.0  0.67093  0.94729  0.22851  1.0000
  H   H20       1.0  0.73931  0.95302  0.23627  1.0000
  H   H21       1.0  0.95481  0.28141  0.23664  1.0000
  H   H22       1.0  0.94909  0.34976  0.22946  1.0000
  H   H23       1.0  0.99707  0.22810  0.18590  1.0000
  H   H24       1.0  0.99904  0.15896  0.19081  1.0000
  H   H25       1.0  0.06292  0.73850  0.22784  1.0000
  H   H26       1.0  0.06813  0.67014  0.22011  1.0000
  C   C53       1.0  0.99187  0.40366  0.30964  1.0000
  C   C54       1.0  0.61714  0.99047  0.30707  1.0000
  C   C55       1.0  0.02814  0.61650  0.30860  1.0000
  C   C56       1.0  0.40454  0.02726  0.30793  1.0000
  H   H27       1.0  0.97064  0.41339  0.26987  1.0000
  H   H28       1.0  0.41452  0.04799  0.26689  1.0000
  H   H29       1.0  0.04890  0.60668  0.26760  1.0000
  H   H30       1.0  0.60732  0.96935  0.26694  1.0000
  C   C57       1.0  0.01112  0.46829  0.34591  1.0000
  C   C58       1.0  0.01029  0.48944  0.26321  1.0000
  C   C59       1.0  0.00891  0.53082  0.26329  1.0000
  N   N5        1.0  0.00730  0.54928  0.18160  1.0000
  C   C60       1.0  0.00752  0.53047  0.10070  1.0000
  C   C61       1.0  0.00967  0.48983  0.10060  1.0000
  N   N6        1.0  0.01090  0.47099  0.18142  1.0000
  H   H31       1.0  0.00639  0.54572  0.04129  1.0000
  H   H32       1.0  0.01007  0.47459  0.04112  1.0000
  N   N7        1.0  0.01294  0.42933  0.35043  1.0000
  C   C62       1.0  0.55261  0.00962  0.34391  1.0000
  C   C63       1.0  0.53134  0.00877  0.26137  1.0000
  C   C64       1.0  0.48995  0.00753  0.26179  1.0000
  N   N8        1.0  0.47134  0.00594  0.18026  1.0000
  C   C65       1.0  0.49003  0.00605  0.09921  1.0000
  C   C66       1.0  0.53070  0.00807  0.09876  1.0000
  N   N9        1.0  0.54967  0.00928  0.17943  1.0000
  H   H33       1.0  0.47469  0.00495  0.03993  1.0000
  H   H34       1.0  0.54585  0.00839  0.03915  1.0000
  N   N10       1.0  0.59158  0.01137  0.34828  1.0000
  C   C67       1.0  0.01442  0.21751  0.40875  1.0000
  C   C68       1.0  0.01559  0.17657  0.41161  1.0000
  C   C69       1.0  0.02908  0.30437  0.37348  1.0000
  C   C70       1.0  0.02560  0.34523  0.36965  1.0000
  C   C71       1.0  0.80322  0.01354  0.40758  1.0000
  C   C72       1.0  0.84415  0.01501  0.41074  1.0000
  C   C73       1.0  0.67567  0.02440  0.36694  1.0000
  C   C74       1.0  0.71654  0.02788  0.37113  1.0000
  C   C75       1.0  0.00791  0.84374  0.41288  1.0000
  C   C76       1.0  0.00889  0.80279  0.40984  1.0000
  C   C77       1.0  0.99645  0.67512  0.37356  1.0000
  C   C78       1.0  0.99324  0.71599  0.37769  1.0000
  C   C79       1.0  0.17728  0.00513  0.41236  1.0000
  C   C80       1.0  0.21823  0.00629  0.40932  1.0000
  C   C81       1.0  0.30482  0.99111  0.37317  1.0000
  C   C82       1.0  0.34572  0.99415  0.36878  1.0000
  H   H35       1.0  0.36201  0.97456  0.40427  1.0000
  H   H36       1.0  0.29304  0.96914  0.41096  1.0000
  H   H37       1.0  0.23316  0.00273  0.46880  1.0000
  H   H38       1.0  0.16383  0.00022  0.47329  1.0000
  H   H39       1.0  0.00492  0.85723  0.47442  1.0000
  H   H40       1.0  0.00715  0.78792  0.46985  1.0000
  H   H41       1.0  0.85753  0.02011  0.47168  1.0000
  H   H42       1.0  0.78823  0.01711  0.46696  1.0000
  H   H43       1.0  0.72812  0.05006  0.40858  1.0000
  H   H44       1.0  0.65920  0.04390  0.40226  1.0000
  H   H45       1.0  0.02016  0.16310  0.47262  1.0000
  H   H46       1.0  0.01766  0.23241  0.46839  1.0000
  H   H47       1.0  0.04492  0.36175  0.40568  1.0000
  H   H48       1.0  0.05107  0.29284  0.41142  1.0000
  H   H49       1.0  0.97259  0.72762  0.41940  1.0000
  H   H50       1.0  0.97837  0.65871  0.41322  1.0000
  C   C83       1.0  0.00913  0.55195  0.34603  1.0000
  C   C84       1.0  0.00982  0.53058  0.42791  1.0000
  C   C85       1.0  0.01139  0.48965  0.42783  1.0000
  H   H51       1.0  0.01220  0.47537  0.48878  1.0000
  H   H52       1.0  0.00976  0.54485  0.48890  1.0000
  N   N11       1.0  0.00743  0.59091  0.35066  1.0000
  C   C86       1.0  0.46893  0.00787  0.34469  1.0000
  C   C87       1.0  0.49043  0.00855  0.42641  1.0000
  C   C88       1.0  0.53137  0.01000  0.42599  1.0000
  H   H53       1.0  0.54574  0.01083  0.48683  1.0000
  H   H54       1.0  0.47624  0.00860  0.48751  1.0000
  N   N12       1.0  0.42997  0.00639  0.34971  1.0000
