data_image0
_chemical_formula_structural       C2NC2O2HNCHNCHNCHC2NC2O2HC2NC2O2HC2NC2O2HC2NC2O2HNCHNCHC2NC2O2HC2NC2O2HNCHNCHC2NC2O2HC2NC2O2HNCHNCHC2NC2O2HC2NC2O2HNCHNCHNCHC2NC2O2HCNCNCNCNCNCNCNCNCNCNCNCNCNCNCNCNCNCNCNCNCNCNCNCNCNCNCNCNCNCNCNCNCNCNCNCNCNCNCNCNCNCNCNCNCNCNCNCN2CHC2NC2O2HC2NC2O2HC2NC2O2HNCHNCHNCHNCHC2NC2O2HC2NC2O2HNCHNCHC2NC2O2HC2NC2O2HNCHNCHC2NC2O2HC2NC2O2HNCHNCHC2NC2O2HC2NC2O2HC2NC2O2HNCH
_chemical_formula_sum              "C168 N96 O48 H48"
_cell_length_a       53.9433
_cell_length_b       27.8121
_cell_length_c       14.8709
_cell_angle_alpha    90
_cell_angle_beta     90
_cell_angle_gamma    90

_space_group_name_H-M_alt    "P 1"
_space_group_IT_number       1

loop_
  _space_group_symop_operation_xyz
  'x, y, z'

loop_
  _atom_site_type_symbol
  _atom_site_label
  _atom_site_symmetry_multiplicity
  _atom_site_fract_x
  _atom_site_fract_y
  _atom_site_fract_z
  _atom_site_occupancy
  C   C1        1.0  0.51649  0.54736  0.36635  1.0000
  C   C2        1.0  0.49128  0.45855  0.36508  1.0000
  N   N1        1.0  0.51647  0.46191  0.36255  1.0000
  C   C3        1.0  0.52979  0.50337  0.36385  1.0000
  C   C4        1.0  0.55533  0.49967  0.35754  1.0000
  O   O1        1.0  0.56571  0.47479  0.41384  1.0000
  O   O2        1.0  0.56555  0.50074  0.28315  1.0000
  H   H1        1.0  0.55936  0.51477  0.23455  1.0000
  N   N2        1.0  0.98055  0.01241  0.30703  1.0000
  C   C5        1.0  0.98967  0.96707  0.30213  1.0000
  H   H2        1.0  0.97769  0.93965  0.28774  1.0000
  N   N3        1.0  0.37671  0.36171  0.35046  1.0000
  C   C6        1.0  0.40042  0.37883  0.35023  1.0000
  H   H3        1.0  0.40341  0.41504  0.35403  1.0000
  N   N4        1.0  0.63042  0.64451  0.35142  1.0000
  C   C7        1.0  0.60666  0.62776  0.35269  1.0000
  H   H4        1.0  0.60353  0.59156  0.35578  1.0000
  C   C8        1.0  0.13608  0.81480  0.34139  1.0000
  C   C9        1.0  0.08593  0.84646  0.34049  1.0000
  N   N5        1.0  0.09242  0.79928  0.34471  1.0000
  C   C10       1.0  0.11594  0.78168  0.34588  1.0000
  C   C11       1.0  0.11818  0.73210  0.34847  1.0000
  O   O3        1.0  0.10845  0.71101  0.41135  1.0000
  O   O4        1.0  0.11919  0.70847  0.27813  1.0000
  H   H5        1.0  0.12433  0.71980  0.22564  1.0000
  C   C12       1.0  0.87063  0.19051  0.33551  1.0000
  C   C13       1.0  0.92095  0.15965  0.33557  1.0000
  N   N6        1.0  0.91415  0.20672  0.33734  1.0000
  C   C14       1.0  0.89061  0.22401  0.33785  1.0000
  C   C15       1.0  0.88826  0.27365  0.33783  1.0000
  O   O5        1.0  0.89774  0.29543  0.40037  1.0000
  O   O6        1.0  0.88727  0.29601  0.26610  1.0000
  H   H6        1.0  0.88216  0.28377  0.21427  1.0000
  C   C16       1.0  0.53520  0.21185  0.30290  1.0000
  C   C17       1.0  0.50465  0.29166  0.32804  1.0000
  N   N7        1.0  0.49933  0.25781  0.26566  1.0000
  C   C18       1.0  0.51368  0.21882  0.24857  1.0000
  C   C19       1.0  0.50591  0.18747  0.18109  1.0000
  O   O7        1.0  0.48381  0.18404  0.16394  1.0000
  O   O8        1.0  0.51986  0.17347  0.12053  1.0000
  H   H7        1.0  0.53613  0.17765  0.11933  1.0000
  C   C20       1.0  0.47398  0.79932  0.32174  1.0000
  C   C21       1.0  0.50287  0.71645  0.34025  1.0000
  N   N8        1.0  0.51006  0.75335  0.28709  1.0000
  C   C22       1.0  0.49674  0.79397  0.27368  1.0000
  C   C23       1.0  0.50669  0.82748  0.21428  1.0000
  O   O9        1.0  0.52908  0.83437  0.21353  1.0000
  O   O10       1.0  0.49539  0.84174  0.14707  1.0000
  H   H8        1.0  0.47953  0.83613  0.13580  1.0000
  N   N9        1.0  0.96546  0.74685  0.31065  1.0000
  C   C24       1.0  0.97952  0.78684  0.29875  1.0000
  H   H9        1.0  0.97525  0.81025  0.24806  1.0000
  N   N10       1.0  0.04067  0.26543  0.31461  1.0000
  C   C25       1.0  0.02766  0.22386  0.30577  1.0000
  H   H10       1.0  0.03439  0.19718  0.26528  1.0000
  C   C26       1.0  0.30623  0.08549  0.33574  1.0000
  C   C27       1.0  0.30903  0.18807  0.34087  1.0000
  N   N11       1.0  0.32847  0.15971  0.31822  1.0000
  C   C28       1.0  0.32849  0.11100  0.31383  1.0000
  C   C29       1.0  0.35056  0.09082  0.28391  1.0000
  O   O11       1.0  0.36982  0.10360  0.32012  1.0000
  O   O12       1.0  0.35287  0.07579  0.20623  1.0000
  H   H11       1.0  0.34039  0.06828  0.17012  1.0000
  C   C30       1.0  0.70066  0.92011  0.33024  1.0000
  C   C31       1.0  0.69826  0.81753  0.33689  1.0000
  N   N12       1.0  0.67866  0.84554  0.31455  1.0000
  C   C32       1.0  0.67844  0.89421  0.30949  1.0000
  C   C33       1.0  0.65615  0.91376  0.28026  1.0000
  O   O13       1.0  0.63710  0.90139  0.31827  1.0000
  O   O14       1.0  0.65358  0.92805  0.20213  1.0000
  H   H12       1.0  0.66592  0.93532  0.16520  1.0000
  N   N13       1.0  0.22067  0.61504  0.33162  1.0000
  C   C34       1.0  0.22008  0.66434  0.32935  1.0000
  H   H13       1.0  0.23559  0.68284  0.31052  1.0000
  N   N14       1.0  0.78646  0.39071  0.32795  1.0000
  C   C35       1.0  0.78687  0.34140  0.32537  1.0000
  H   H14       1.0  0.77122  0.32311  0.30739  1.0000
  C   C36       1.0  0.24137  0.42134  0.34380  1.0000
  C   C37       1.0  0.28235  0.35698  0.35025  1.0000
  N   N15       1.0  0.25891  0.34201  0.33396  1.0000
  C   C38       1.0  0.23856  0.37062  0.33015  1.0000
  C   C39       1.0  0.21684  0.34677  0.30787  1.0000
  O   O15       1.0  0.21025  0.31347  0.35589  1.0000
  O   O16       1.0  0.20993  0.34378  0.22879  1.0000
  H   H15       1.0  0.21449  0.36366  0.18522  1.0000
  C   C40       1.0  0.76573  0.58392  0.33884  1.0000
  C   C41       1.0  0.72487  0.64849  0.34639  1.0000
  N   N16       1.0  0.74821  0.66320  0.32754  1.0000
  C   C42       1.0  0.76850  0.63446  0.32290  1.0000
  C   C43       1.0  0.79012  0.65789  0.29786  1.0000
  O   O17       1.0  0.79679  0.69245  0.34256  1.0000
  O   O18       1.0  0.79700  0.65856  0.21858  1.0000
  H   H16       1.0  0.79237  0.63754  0.17704  1.0000
  N   N17       1.0  0.24194  0.93673  0.33010  1.0000
  C   C44       1.0  0.22153  0.90765  0.32710  1.0000
  H   H17       1.0  0.20452  0.92259  0.31566  1.0000
  N   N18       1.0  0.76470  0.06884  0.32435  1.0000
  C   C45       1.0  0.78512  0.09788  0.32159  1.0000
  H   H18       1.0  0.80210  0.08299  0.30940  1.0000
  C   C46       1.0  0.10344  0.41601  0.31769  1.0000
  C   C47       1.0  0.15332  0.44432  0.32616  1.0000
  N   N19       1.0  0.13549  0.47363  0.29329  1.0000
  C   C48       1.0  0.11122  0.46213  0.28616  1.0000
  C   C49       1.0  0.09627  0.49675  0.24623  1.0000
  O   O19       1.0  0.09792  0.53828  0.27255  1.0000
  O   O20       1.0  0.08808  0.49177  0.16923  1.0000
  H   H19       1.0  0.08737  0.46410  0.13983  1.0000
  C   C50       1.0  0.90341  0.59316  0.32455  1.0000
  C   C51       1.0  0.85386  0.56223  0.32945  1.0000
  N   N20       1.0  0.87249  0.53284  0.30330  1.0000
  C   C52       1.0  0.89667  0.54547  0.29858  1.0000
  C   C53       1.0  0.91253  0.51025  0.26592  1.0000
  O   O21       1.0  0.91180  0.47036  0.30032  1.0000
  O   O22       1.0  0.92039  0.51164  0.18790  1.0000
  H   H20       1.0  0.92053  0.53763  0.15342  1.0000
  N   N21       1.0  0.38539  0.88360  0.33844  1.0000
  C   C54       1.0  0.36094  0.89577  0.33553  1.0000
  H   H21       1.0  0.34836  0.87186  0.31022  1.0000
  N   N22       1.0  0.62163  0.12311  0.32690  1.0000
  C   C55       1.0  0.64603  0.11049  0.32546  1.0000
  H   H22       1.0  0.65895  0.13486  0.30437  1.0000
  N   N23       1.0  0.97976  0.50314  0.33599  1.0000
  C   C56       1.0  0.99423  0.46364  0.33445  1.0000
  H   H23       1.0  0.98611  0.43047  0.33157  1.0000
  C   C57       1.0  0.51797  0.04648  0.33817  1.0000
  C   C58       1.0  0.48687  0.96666  0.34428  1.0000
  N   N24       1.0  0.47769  0.01201  0.34086  1.0000
  C   C59       1.0  0.49178  0.05231  0.33731  1.0000
  C   C60       1.0  0.47932  0.09583  0.33504  1.0000
  O   O23       1.0  0.47800  0.11763  0.40621  1.0000
  O   O24       1.0  0.46146  0.10256  0.28441  1.0000
  H   H24       1.0  0.45939  0.08787  0.23208  1.0000
  C   C61       1.0  0.44608  0.35814  0.34598  1.0000
  N   N25       1.0  0.45520  0.40374  0.35639  1.0000
  C   C62       1.0  0.48017  0.41250  0.35931  1.0000
  N   N26       1.0  0.49586  0.37461  0.35169  1.0000
  C   C63       1.0  0.48766  0.32925  0.34058  1.0000
  N   N27       1.0  0.46283  0.32177  0.33697  1.0000
  C   C64       1.0  0.56110  0.64914  0.35233  1.0000
  N   N28       1.0  0.55197  0.60357  0.36005  1.0000
  C   C65       1.0  0.52706  0.59424  0.36318  1.0000
  N   N29       1.0  0.51127  0.63222  0.35850  1.0000
  C   C66       1.0  0.51946  0.67789  0.35025  1.0000
  N   N30       1.0  0.54430  0.68546  0.34647  1.0000
  C   C67       1.0  0.06017  0.85831  0.33763  1.0000
  N   N31       1.0  0.05095  0.90388  0.32772  1.0000
  C   C68       1.0  0.02597  0.91241  0.32170  1.0000
  N   N32       1.0  0.01035  0.87441  0.32672  1.0000
  C   C69       1.0  0.01863  0.82911  0.33761  1.0000
  N   N33       1.0  0.04343  0.82175  0.34393  1.0000
  C   C70       1.0  0.94686  0.14883  0.33453  1.0000
  N   N34       1.0  0.95716  0.10380  0.32973  1.0000
  C   C71       1.0  0.98240  0.09716  0.32820  1.0000
  N   N35       1.0  0.99689  0.13684  0.32989  1.0000
  C   C72       1.0  0.98770  0.18164  0.33527  1.0000
  N   N36       1.0  0.96276  0.18681  0.33870  1.0000
  C   C73       1.0  0.31353  0.23880  0.34479  1.0000
  N   N37       1.0  0.29580  0.27366  0.34795  1.0000
  C   C74       1.0  0.30155  0.32171  0.35066  1.0000
  N   N38       1.0  0.32601  0.33440  0.35031  1.0000
  C   C75       1.0  0.34459  0.30116  0.34720  1.0000
  N   N39       1.0  0.33745  0.25431  0.34412  1.0000
  C   C76       1.0  0.69385  0.76681  0.34172  1.0000
  N   N40       1.0  0.71155  0.73188  0.34406  1.0000
  C   C77       1.0  0.70574  0.68387  0.34767  1.0000
  N   N41       1.0  0.68126  0.67129  0.34910  1.0000
  C   C78       1.0  0.66273  0.70463  0.34691  1.0000
  N   N42       1.0  0.66993  0.75139  0.34283  1.0000
  C   C79       1.0  0.19298  0.73952  0.34395  1.0000
  N   N43       1.0  0.21068  0.77440  0.34093  1.0000
  C   C80       1.0  0.20494  0.82242  0.33814  1.0000
  N   N44       1.0  0.18046  0.83510  0.33813  1.0000
  C   C81       1.0  0.16187  0.80183  0.34104  1.0000
  N   N45       1.0  0.16904  0.75497  0.34433  1.0000
  C   C82       1.0  0.81377  0.26584  0.33895  1.0000
  N   N46       1.0  0.79604  0.23103  0.33620  1.0000
  C   C83       1.0  0.80174  0.18299  0.33328  1.0000
  N   N47       1.0  0.82621  0.17016  0.33286  1.0000
  C   C84       1.0  0.84482  0.20336  0.33542  1.0000
  N   N48       1.0  0.83767  0.25023  0.33888  1.0000
  C   C85       1.0  0.04468  0.34819  0.35354  1.0000
  N   N49       1.0  0.06949  0.35651  0.34090  1.0000
  C   C86       1.0  0.07814  0.40234  0.32710  1.0000
  N   N50       1.0  0.06132  0.43852  0.32771  1.0000
  C   C87       1.0  0.03680  0.43144  0.33677  1.0000
  N   N51       1.0  0.02906  0.38609  0.34867  1.0000
  C   C88       1.0  0.95976  0.66736  0.36282  1.0000
  N   N52       1.0  0.93534  0.65617  0.34902  1.0000
  C   C89       1.0  0.92831  0.60950  0.33368  1.0000
  N   N53       1.0  0.94642  0.57575  0.33243  1.0000
  C   C90       1.0  0.97071  0.58561  0.34269  1.0000
  N   N54       1.0  0.97673  0.63173  0.35745  1.0000
  C   C91       1.0  0.46226  0.84453  0.33336  1.0000
  N   N55       1.0  0.43747  0.85322  0.34619  1.0000
  C   C92       1.0  0.42891  0.89926  0.35848  1.0000
  N   N56       1.0  0.44583  0.93523  0.35586  1.0000
  C   C93       1.0  0.47031  0.92801  0.34619  1.0000
  N   N57       1.0  0.47797  0.88244  0.33592  1.0000
  C   C94       1.0  0.54594  0.16596  0.31516  1.0000
  N   N58       1.0  0.57047  0.15527  0.32809  1.0000
  C   C95       1.0  0.57788  0.10875  0.34289  1.0000
  N   N59       1.0  0.55998  0.07454  0.34424  1.0000
  C   C96       1.0  0.53560  0.08374  0.33457  1.0000
  N   N60       1.0  0.52925  0.12979  0.32046  1.0000
  C   C97       1.0  0.20244  0.53452  0.34727  1.0000
  N   N61       1.0  0.22307  0.50511  0.34864  1.0000
  C   C98       1.0  0.22126  0.45554  0.34354  1.0000
  N   N62       1.0  0.19802  0.43690  0.33803  1.0000
  C   C99       1.0  0.17733  0.46370  0.33377  1.0000
  N   N63       1.0  0.18040  0.51171  0.33755  1.0000
  C   C100      1.0  0.80489  0.47105  0.34397  1.0000
  N   N64       1.0  0.78418  0.50023  0.34389  1.0000
  C   C101      1.0  0.78588  0.54983  0.33965  1.0000
  N   N65       1.0  0.80909  0.56873  0.33682  1.0000
  C   C102      1.0  0.82990  0.54222  0.33436  1.0000
  N   N66       1.0  0.82694  0.49415  0.33704  1.0000
  C   C103      1.0  0.30486  0.03359  0.34165  1.0000
  N   N67       1.0  0.28417  0.00438  0.34044  1.0000
  C   C104      1.0  0.28587  0.95481  0.34494  1.0000
  N   N68       1.0  0.30907  0.93591  0.34974  1.0000
  C   C105      1.0  0.32986  0.96249  0.35362  1.0000
  N   N69       1.0  0.32688  0.01057  0.35038  1.0000
  C   C106      1.0  0.70188  0.97204  0.33506  1.0000
  N   N70       1.0  0.72255  0.00126  0.33519  1.0000
  C   C107      1.0  0.72080  0.05083  0.33878  1.0000
  N   N71       1.0  0.69756  0.06977  0.34108  1.0000
  C   C108      1.0  0.67675  0.04318  0.34336  1.0000
  N   N72       1.0  0.67980  0.99509  0.34119  1.0000
  N   N73       1.0  0.49122  0.54391  0.36873  1.0000
  C   C109      1.0  0.47816  0.50220  0.36873  1.0000
  H   H25       1.0  0.45922  0.50319  0.36956  1.0000
  C   C110      1.0  0.99455  0.05166  0.32652  1.0000
  C   C111      1.0  0.01520  0.95879  0.31788  1.0000
  N   N74       1.0  0.02916  0.99776  0.33804  1.0000
  C   C112      1.0  0.02038  0.04353  0.34246  1.0000
  C   C113      1.0  0.03729  0.07793  0.36885  1.0000
  O   O25       1.0  0.05710  0.08038  0.32870  1.0000
  O   O26       1.0  0.03633  0.09087  0.44829  1.0000
  H   H26       1.0  0.04718  0.11051  0.47381  1.0000
  C   C114      1.0  0.37034  0.31420  0.34613  1.0000
  C   C115      1.0  0.42037  0.34610  0.34506  1.0000
  N   N75       1.0  0.41396  0.29889  0.34083  1.0000
  C   C116      1.0  0.39048  0.28116  0.34062  1.0000
  C   C117      1.0  0.38826  0.23156  0.33783  1.0000
  O   O27       1.0  0.39750  0.21131  0.27300  1.0000
  O   O28       1.0  0.38822  0.20759  0.40774  1.0000
  H   H27       1.0  0.38352  0.21855  0.46104  1.0000
  C   C118      1.0  0.63694  0.69196  0.34773  1.0000
  C   C119      1.0  0.58682  0.66085  0.35005  1.0000
  N   N76       1.0  0.59335  0.70799  0.34635  1.0000
  C   C120      1.0  0.61690  0.72534  0.34460  1.0000
  C   C121      1.0  0.61925  0.77495  0.34266  1.0000
  O   O29       1.0  0.60972  0.79600  0.27937  1.0000
  O   O30       1.0  0.62023  0.79809  0.41353  1.0000
  H   H28       1.0  0.62540  0.78645  0.46577  1.0000
  N   N77       1.0  0.12962  0.86228  0.33711  1.0000
  C   C122      1.0  0.10587  0.87928  0.33650  1.0000
  H   H29       1.0  0.10284  0.91548  0.33260  1.0000
  N   N78       1.0  0.87731  0.14306  0.33361  1.0000
  C   C123      1.0  0.90116  0.12644  0.33352  1.0000
  H   H30       1.0  0.90439  0.09026  0.33180  1.0000
  N   N79       1.0  0.54077  0.24632  0.36460  1.0000
  C   C124      1.0  0.52712  0.28695  0.37588  1.0000
  H   H31       1.0  0.53194  0.31083  0.42513  1.0000
  N   N80       1.0  0.46643  0.76172  0.37362  1.0000
  C   C125      1.0  0.47940  0.71997  0.38169  1.0000
  H   H32       1.0  0.47301  0.69367  0.42371  1.0000
  C   C126      1.0  0.97022  0.71338  0.37502  1.0000
  C   C127      1.0  0.00154  0.79174  0.34918  1.0000
  N   N81       1.0  0.00605  0.75888  0.41423  1.0000
  C   C128      1.0  0.99125  0.72057  0.43167  1.0000
  C   C129      1.0  0.99822  0.68990  0.50141  1.0000
  O   O31       1.0  0.02017  0.68561  0.52032  1.0000
  O   O32       1.0  0.98358  0.67623  0.56004  1.0000
  H   H33       1.0  0.96735  0.68097  0.55925  1.0000
  C   C130      1.0  0.03276  0.30327  0.36502  1.0000
  C   C131      1.0  0.00380  0.22089  0.34438  1.0000
  N   N82       1.0  0.99623  0.25792  0.39637  1.0000
  C   C132      1.0  0.00957  0.29844  0.41055  1.0000
  C   C133      1.0  0.99929  0.33227  0.46858  1.0000
  O   O33       1.0  0.97692  0.33938  0.46716  1.0000
  O   O34       1.0  0.01015  0.34671  0.53660  1.0000
  H   H34       1.0  0.02591  0.34098  0.54944  1.0000
  N   N83       1.0  0.28633  0.11387  0.35684  1.0000
  C   C134      1.0  0.28670  0.16319  0.35898  1.0000
  H   H35       1.0  0.27103  0.18147  0.37686  1.0000
  N   N84       1.0  0.72071  0.89207  0.35113  1.0000
  C   C135      1.0  0.72054  0.84276  0.35387  1.0000
  H   H36       1.0  0.73630  0.82476  0.37173  1.0000
  C   C136      1.0  0.20097  0.58639  0.35383  1.0000
  C   C137      1.0  0.19768  0.68889  0.34808  1.0000
  N   N85       1.0  0.17844  0.66030  0.37183  1.0000
  C   C138      1.0  0.17868  0.61160  0.37666  1.0000
  C   C139      1.0  0.15679  0.59117  0.40768  1.0000
  O   O35       1.0  0.13720  0.60381  0.37376  1.0000
  O   O36       1.0  0.15504  0.57487  0.48473  1.0000
  H   H37       1.0  0.16778  0.56721  0.51955  1.0000
  C   C140      1.0  0.80632  0.41911  0.34929  1.0000
  C   C141      1.0  0.80923  0.31654  0.34319  1.0000
  N   N86       1.0  0.82865  0.34488  0.36602  1.0000
  C   C142      1.0  0.82862  0.39358  0.37087  1.0000
  C   C143      1.0  0.85072  0.41359  0.40087  1.0000
  O   O37       1.0  0.86998  0.40127  0.36415  1.0000
  O   O38       1.0  0.85293  0.42854  0.47871  1.0000
  H   H38       1.0  0.84041  0.43583  0.51484  1.0000
  N   N87       1.0  0.26506  0.43659  0.35920  1.0000
  C   C144      1.0  0.28532  0.40713  0.36235  1.0000
  H   H39       1.0  0.30238  0.42173  0.37438  1.0000
  N   N88       1.0  0.74213  0.56890  0.35666  1.0000
  C   C145      1.0  0.72192  0.59847  0.36026  1.0000
  H   H40       1.0  0.70493  0.58407  0.37432  1.0000
  C   C146      1.0  0.26559  0.92100  0.34475  1.0000
  C   C147      1.0  0.22427  0.85744  0.33869  1.0000
  N   N89       1.0  0.24768  0.84201  0.35421  1.0000
  C   C148      1.0  0.26819  0.87022  0.35779  1.0000
  C   C149      1.0  0.28987  0.84592  0.37912  1.0000
  O   O39       1.0  0.29625  0.81320  0.32940  1.0000
  O   O40       1.0  0.29669  0.84219  0.45817  1.0000
  H   H41       1.0  0.29224  0.86183  0.50224  1.0000
  C   C150      1.0  0.74109  0.08455  0.33970  1.0000
  C   C151      1.0  0.78240  0.14804  0.33396  1.0000
  N   N90       1.0  0.75902  0.16344  0.35026  1.0000
  C   C152      1.0  0.73851  0.13524  0.35387  1.0000
  C   C153      1.0  0.71685  0.15933  0.37608  1.0000
  O   O41       1.0  0.71066  0.19344  0.32937  1.0000
  O   O42       1.0  0.70957  0.16127  0.45483  1.0000
  H   H42       1.0  0.71384  0.14071  0.49766  1.0000
  N   N91       1.0  0.12146  0.38599  0.34905  1.0000
  C   C154      1.0  0.14596  0.39771  0.35244  1.0000
  H   H43       1.0  0.15836  0.37380  0.37888  1.0000
  N   N92       1.0  0.88459  0.62305  0.34952  1.0000
  C   C155      1.0  0.86027  0.61002  0.35115  1.0000
  H   H44       1.0  0.84726  0.63415  0.37254  1.0000
  C   C156      1.0  0.40367  0.91350  0.36826  1.0000
  C   C157      1.0  0.35386  0.94276  0.36054  1.0000
  N   N93       1.0  0.37194  0.97198  0.39183  1.0000
  C   C158      1.0  0.39617  0.96006  0.39850  1.0000
  C   C159      1.0  0.41137  0.99482  0.43669  1.0000
  O   O43       1.0  0.41000  0.03619  0.40932  1.0000
  O   O44       1.0  0.41996  0.99021  0.51324  1.0000
  H   H45       1.0  0.42060  0.96278  0.54346  1.0000
  C   C160      1.0  0.60291  0.09294  0.35183  1.0000
  C   C161      1.0  0.65269  0.06288  0.34769  1.0000
  N   N94       1.0  0.63416  0.03327  0.37388  1.0000
  C   C162      1.0  0.60991  0.04544  0.37824  1.0000
  C   C163      1.0  0.59423  0.00999  0.41123  1.0000
  O   O45       1.0  0.59504  0.97014  0.37671  1.0000
  O   O46       1.0  0.58653  0.01124  0.48945  1.0000
  H   H46       1.0  0.58635  0.03722  0.52395  1.0000
  C   C164      1.0  0.98860  0.54888  0.33980  1.0000
  C   C165      1.0  0.02013  0.46984  0.33652  1.0000
  N   N95       1.0  0.02910  0.51533  0.34022  1.0000
  C   C166      1.0  0.01475  0.55532  0.34241  1.0000
  C   C167      1.0  0.02692  0.59914  0.34544  1.0000
  O   O47       1.0  0.02851  0.62090  0.27431  1.0000
  O   O48       1.0  0.04440  0.60640  0.39751  1.0000
  H   H47       1.0  0.04626  0.59180  0.45004  1.0000
  N   N96       1.0  0.52707  0.00089  0.34164  1.0000
  C   C168      1.0  0.51281  0.96104  0.34440  1.0000
  H   H48       1.0  0.52111  0.92803  0.34699  1.0000
