data_image0
_chemical_formula_structural       C3NC3NC5NC4NC35H25C21H18C16H16CNCHNHCNCHNHC2NC2HNHCNCHNHCNCHNHC2NC2HNHC18H17C3NC3NC2NC5NC34H24C3NC3NC5NC5NC36H26C4HC6HO2C4HC6HO2C3HC5HO2C4HC6HO2C4HC6HO2C3HC5HO2
_chemical_formula_sum              "C276 N24 H150 O12"
_cell_length_a       67.0957
_cell_length_b       67.0957
_cell_length_c       14.9702
_cell_angle_alpha    89.802
_cell_angle_beta     90.198
_cell_angle_gamma    120

_space_group_name_H-M_alt    "P 1"
_space_group_IT_number       1

loop_
  _space_group_symop_operation_xyz
  'x, y, z'

loop_
  _atom_site_type_symbol
  _atom_site_label
  _atom_site_symmetry_multiplicity
  _atom_site_fract_x
  _atom_site_fract_y
  _atom_site_fract_z
  _atom_site_occupancy
  C   C1        1.0  0.04356  0.62842  0.32802  1.0000
  C   C2        1.0  0.01979  0.61656  0.32722  1.0000
  C   C3        1.0  0.01223  0.59301  0.32895  1.0000
  N   N1        1.0  0.03163  0.59149  0.33043  1.0000
  C   C4        1.0  0.05107  0.61239  0.33006  1.0000
  C   C5        1.0  0.07449  0.61794  0.33144  1.0000
  C   C6        1.0  0.08205  0.60158  0.33160  1.0000
  N   N2        1.0  0.06902  0.57839  0.32984  1.0000
  C   C7        1.0  0.08200  0.56817  0.33044  1.0000
  C   C8        1.0  0.10488  0.58599  0.33262  1.0000
  C   C9        1.0  0.10491  0.60657  0.33350  1.0000
  C   C10       1.0  0.07439  0.54425  0.32918  1.0000
  C   C11       1.0  0.05095  0.52641  0.32880  1.0000
  N   N3        1.0  0.03155  0.52793  0.33037  1.0000
  C   C12       1.0  0.01212  0.50703  0.33006  1.0000
  C   C13       1.0  0.01962  0.49100  0.32796  1.0000
  C   C14       1.0  0.04339  0.50286  0.32705  1.0000
  C   C15       1.0  0.98870  0.50148  0.33158  1.0000
  N   N4        1.0  0.99417  0.54103  0.33004  1.0000
  C   C16       1.0  0.98118  0.55125  0.33065  1.0000
  C   C17       1.0  0.95830  0.53342  0.33277  1.0000
  C   C18       1.0  0.95828  0.51284  0.33365  1.0000
  C   C19       1.0  0.98879  0.57517  0.32939  1.0000
  C   C20       1.0  0.97152  0.58161  0.32839  1.0000
  C   C21       1.0  0.96179  0.58321  0.24682  1.0000
  C   C22       1.0  0.94363  0.58800  0.24619  1.0000
  C   C23       1.0  0.93471  0.59137  0.32680  1.0000
  C   C24       1.0  0.91547  0.59503  0.32638  1.0000
  C   C25       1.0  0.87651  0.58417  0.27492  1.0000
  C   C26       1.0  0.89589  0.58130  0.27288  1.0000
  C   C27       1.0  0.97141  0.47778  0.33359  1.0000
  C   C28       1.0  0.96089  0.46596  0.25386  1.0000
  C   C29       1.0  0.94286  0.44295  0.25662  1.0000
  C   C30       1.0  0.93478  0.43113  0.33891  1.0000
  C   C31       1.0  0.91567  0.40815  0.34186  1.0000
  C   C32       1.0  0.91366  0.39114  0.28094  1.0000
  C   C33       1.0  0.89448  0.36873  0.28263  1.0000
  C   C34       1.0  0.87659  0.36244  0.34551  1.0000
  C   C35       1.0  0.09165  0.53779  0.32819  1.0000
  C   C36       1.0  0.12817  0.52761  0.32664  1.0000
  C   C37       1.0  0.11935  0.53132  0.24604  1.0000
  C   C38       1.0  0.10133  0.53632  0.24666  1.0000
  C   C39       1.0  0.14719  0.52362  0.32623  1.0000
  C   C40       1.0  0.16684  0.53728  0.27315  1.0000
  C   C41       1.0  0.18599  0.53403  0.27509  1.0000
  C   C42       1.0  0.18627  0.51697  0.33009  1.0000
  C   C43       1.0  0.09179  0.64163  0.33338  1.0000
  C   C44       1.0  0.10238  0.65346  0.25370  1.0000
  C   C45       1.0  0.12055  0.67640  0.25646  1.0000
  C   C46       1.0  0.12872  0.68814  0.33873  1.0000
  C   C47       1.0  0.14803  0.71101  0.34175  1.0000
  C   C48       1.0  0.18758  0.75642  0.34530  1.0000
  C   C49       1.0  0.16974  0.75041  0.28208  1.0000
  C   C50       1.0  0.15033  0.72814  0.28042  1.0000
  H   H1        1.0  0.17059  0.76232  0.23705  1.0000
  H   H2        1.0  0.13772  0.72464  0.23427  1.0000
  H   H3        1.0  0.12834  0.68417  0.19767  1.0000
  H   H4        1.0  0.09730  0.64527  0.19336  1.0000
  H   H5        1.0  0.05352  0.64596  0.32705  1.0000
  H   H6        1.0  0.00987  0.62418  0.32583  1.0000
  H   H7        1.0  0.03161  0.57718  0.33277  1.0000
  H   H8        1.0  0.03157  0.54224  0.33275  1.0000
  H   H9        1.0  0.11940  0.62244  0.33527  1.0000
  H   H10       1.0  0.11934  0.58456  0.33381  1.0000
  H   H11       1.0  0.09558  0.53922  0.18732  1.0000
  H   H12       1.0  0.12601  0.53042  0.18576  1.0000
  H   H13       1.0  0.05331  0.49525  0.32561  1.0000
  H   H14       1.0  0.00967  0.47347  0.32704  1.0000
  H   H15       1.0  0.94379  0.49697  0.33536  1.0000
  H   H16       1.0  0.96594  0.47418  0.19348  1.0000
  H   H17       1.0  0.93514  0.43516  0.19776  1.0000
  H   H18       1.0  0.89384  0.35691  0.23792  1.0000
  H   H19       1.0  0.92633  0.39485  0.23505  1.0000
  H   H20       1.0  0.89519  0.56844  0.23405  1.0000
  H   H21       1.0  0.86246  0.57328  0.23749  1.0000
  H   H22       1.0  0.93692  0.58896  0.18589  1.0000
  H   H23       1.0  0.96759  0.58050  0.18747  1.0000
  H   H24       1.0  0.16774  0.55034  0.23461  1.0000
  H   H25       1.0  0.20011  0.54488  0.23797  1.0000
  C   C51       1.0  0.52163  0.59864  0.33323  1.0000
  C   C52       1.0  0.50381  0.60369  0.33529  1.0000
  C   C53       1.0  0.48323  0.58314  0.33619  1.0000
  C   C54       1.0  0.50657  0.46351  0.24963  1.0000
  C   C55       1.0  0.50178  0.44056  0.24895  1.0000
  C   C56       1.0  0.50561  0.37723  0.27750  1.0000
  C   C57       1.0  0.50849  0.39949  0.27557  1.0000
  C   C58       1.0  0.62381  0.57989  0.25632  1.0000
  C   C59       1.0  0.64682  0.58487  0.25885  1.0000
  C   C60       1.0  0.69864  0.60745  0.28279  1.0000
  C   C61       1.0  0.72106  0.61069  0.28420  1.0000
  C   C62       1.0  0.72738  0.59896  0.34677  1.0000
  C   C63       1.0  0.55848  0.67296  0.24884  1.0000
  C   C64       1.0  0.55349  0.64994  0.24947  1.0000
  C   C65       1.0  0.55251  0.71444  0.27596  1.0000
  C   C66       1.0  0.55576  0.73684  0.27789  1.0000
  C   C67       1.0  0.43637  0.53381  0.25617  1.0000
  C   C68       1.0  0.41342  0.52903  0.25873  1.0000
  C   C69       1.0  0.33335  0.51591  0.34660  1.0000
  C   C70       1.0  0.33940  0.50414  0.28370  1.0000
  C   C71       1.0  0.36167  0.50700  0.28235  1.0000
  H   H26       1.0  0.32751  0.49312  0.23865  1.0000
  H   H27       1.0  0.36520  0.49795  0.23638  1.0000
  H   H28       1.0  0.40567  0.52909  0.19983  1.0000
  H   H29       1.0  0.44458  0.53698  0.19589  1.0000
  H   H30       1.0  0.46736  0.58176  0.33793  1.0000
  H   H31       1.0  0.55057  0.64137  0.19014  1.0000
  H   H32       1.0  0.55938  0.68060  0.18856  1.0000
  H   H33       1.0  0.59455  0.64286  0.32862  1.0000
  H   H34       1.0  0.61557  0.57685  0.19599  1.0000
  H   H35       1.0  0.65459  0.58507  0.19989  1.0000
  H   H36       1.0  0.73284  0.62196  0.23949  1.0000
  H   H37       1.0  0.69490  0.61651  0.23715  1.0000
  H   H38       1.0  0.52135  0.41171  0.23676  1.0000
  H   H39       1.0  0.51652  0.37414  0.24016  1.0000
  H   H40       1.0  0.50082  0.43300  0.18864  1.0000
  H   H41       1.0  0.50931  0.47213  0.19030  1.0000
  H   H42       1.0  0.53946  0.70235  0.23738  1.0000
  H   H43       1.0  0.54492  0.74016  0.24072  1.0000
  C   C72       1.0  0.62618  0.12792  0.25077  1.0000
  C   C73       1.0  0.64913  0.14608  0.24966  1.0000
  C   C74       1.0  0.71249  0.21322  0.27694  1.0000
  C   C75       1.0  0.69023  0.19384  0.27543  1.0000
  C   C76       1.0  0.50990  0.12884  0.25873  1.0000
  C   C77       1.0  0.50489  0.14685  0.26132  1.0000
  C   C78       1.0  0.48232  0.17605  0.28540  1.0000
  C   C79       1.0  0.47909  0.19523  0.28682  1.0000
  C   C80       1.0  0.41694  0.97052  0.24948  1.0000
  C   C81       1.0  0.43997  0.98853  0.25060  1.0000
  C   C82       1.0  0.37542  0.92302  0.27563  1.0000
  C   C83       1.0  0.35302  0.90387  0.27709  1.0000
  C   C84       1.0  0.55599  0.98746  0.25847  1.0000
  C   C85       1.0  0.56080  0.96931  0.26108  1.0000
  C   C86       1.0  0.58565  0.92012  0.28624  1.0000
  C   C87       1.0  0.58280  0.93953  0.28484  1.0000
  H   H44       1.0  0.59667  0.91932  0.24121  1.0000
  H   H45       1.0  0.59185  0.95219  0.23885  1.0000
  H   H46       1.0  0.56070  0.96156  0.20221  1.0000
  H   H47       1.0  0.55282  0.99259  0.19816  1.0000
  H   H48       1.0  0.44862  0.99434  0.19144  1.0000
  H   H49       1.0  0.40938  0.96392  0.18904  1.0000
  H   H50       1.0  0.51294  0.12375  0.19838  1.0000
  H   H51       1.0  0.50472  0.15454  0.20239  1.0000
  H   H52       1.0  0.46782  0.19582  0.24210  1.0000
  H   H53       1.0  0.47327  0.16334  0.23971  1.0000
  H   H54       1.0  0.67796  0.19451  0.23681  1.0000
  H   H55       1.0  0.71554  0.22724  0.23944  1.0000
  H   H56       1.0  0.65662  0.15273  0.18920  1.0000
  H   H57       1.0  0.61750  0.12208  0.19160  1.0000
  H   H58       1.0  0.38757  0.92213  0.23741  1.0000
  H   H59       1.0  0.34975  0.88977  0.23995  1.0000
  C   C88       1.0  0.30038  0.51481  0.26682  1.0000
  N   N5        1.0  0.27988  0.51419  0.26881  1.0000
  C   C89       1.0  0.21880  0.51559  0.25766  1.0000
  H   H60       1.0  0.30830  0.51705  0.20646  1.0000
  N   N6        1.0  0.23840  0.51452  0.26412  1.0000
  H   H61       1.0  0.21344  0.51727  0.19553  1.0000
  C   C90       1.0  0.57497  0.87045  0.26944  1.0000
  N   N7        1.0  0.57560  0.85058  0.27145  1.0000
  C   C91       1.0  0.57420  0.78812  0.26038  1.0000
  H   H62       1.0  0.57274  0.87623  0.20905  1.0000
  N   N8        1.0  0.57527  0.80877  0.26682  1.0000
  H   H63       1.0  0.57252  0.78117  0.19826  1.0000
  C   C92       1.0  0.20766  0.77876  0.34593  1.0000
  C   C93       1.0  0.21942  0.78946  0.26614  1.0000
  N   N9        1.0  0.23930  0.80996  0.26852  1.0000
  C   C94       1.0  0.30177  0.87106  0.25864  1.0000
  C   C95       1.0  0.31326  0.88359  0.33618  1.0000
  H   H64       1.0  0.21373  0.78157  0.20565  1.0000
  N   N10       1.0  0.28111  0.85146  0.26469  1.0000
  H   H65       1.0  0.30879  0.87646  0.19666  1.0000
  C   C96       1.0  0.76064  0.60093  0.26708  1.0000
  N   N11       1.0  0.78134  0.60197  0.26910  1.0000
  C   C97       1.0  0.84307  0.60188  0.25796  1.0000
  H   H66       1.0  0.75269  0.59873  0.20664  1.0000
  N   N12       1.0  0.82325  0.60252  0.26444  1.0000
  H   H67       1.0  0.84850  0.60050  0.19579  1.0000
  C   C98       1.0  0.48886  0.24461  0.26972  1.0000
  N   N13       1.0  0.48783  0.26427  0.27174  1.0000
  C   C99       1.0  0.48793  0.32611  0.26060  1.0000
  H   H68       1.0  0.49107  0.23895  0.20928  1.0000
  N   N14       1.0  0.48729  0.30564  0.26708  1.0000
  H   H69       1.0  0.48931  0.33302  0.19843  1.0000
  C   C100      1.0  0.85676  0.33993  0.34623  1.0000
  C   C101      1.0  0.84508  0.32911  0.26642  1.0000
  N   N15       1.0  0.82544  0.30840  0.26883  1.0000
  C   C102      1.0  0.76360  0.24666  0.25895  1.0000
  C   C103      1.0  0.75225  0.23403  0.33653  1.0000
  H   H70       1.0  0.85067  0.33702  0.20586  1.0000
  N   N16       1.0  0.78407  0.26648  0.26501  1.0000
  H   H71       1.0  0.75660  0.24118  0.19693  1.0000
  C   C104      1.0  0.98114  0.51783  0.33178  1.0000
  C   C105      1.0  0.94487  0.59010  0.40817  1.0000
  C   C106      1.0  0.96296  0.58520  0.40911  1.0000
  C   C107      1.0  0.91500  0.61192  0.38126  1.0000
  C   C108      1.0  0.89563  0.61483  0.38314  1.0000
  C   C109      1.0  0.87593  0.60092  0.33038  1.0000
  C   C110      1.0  0.94569  0.44311  0.41836  1.0000
  C   C111      1.0  0.96374  0.46610  0.41589  1.0000
  C   C112      1.0  0.87864  0.37942  0.40658  1.0000
  C   C113      1.0  0.89778  0.40181  0.40477  1.0000
  C   C114      1.0  0.10012  0.53390  0.40889  1.0000
  C   C115      1.0  0.11807  0.52879  0.40797  1.0000
  C   C116      1.0  0.16651  0.50314  0.38247  1.0000
  C   C117      1.0  0.14736  0.50641  0.38065  1.0000
  C   C118      1.0  0.09952  0.65326  0.41565  1.0000
  C   C119      1.0  0.11771  0.67619  0.41812  1.0000
  C   C120      1.0  0.16588  0.71706  0.40500  1.0000
  C   C121      1.0  0.18524  0.73932  0.40681  1.0000
  H   H72       1.0  0.19801  0.74267  0.45204  1.0000
  H   H73       1.0  0.16532  0.70508  0.44899  1.0000
  H   H74       1.0  0.12290  0.68406  0.47896  1.0000
  H   H75       1.0  0.09223  0.64499  0.47438  1.0000
  H   H76       1.0  0.09359  0.53520  0.46889  1.0000
  H   H77       1.0  0.12427  0.52678  0.46783  1.0000
  H   H78       1.0  0.94384  0.53485  0.33395  1.0000
  H   H79       1.0  0.97100  0.47436  0.47464  1.0000
  H   H80       1.0  0.94057  0.43517  0.47921  1.0000
  H   H81       1.0  0.89814  0.41368  0.44846  1.0000
  H   H82       1.0  0.86582  0.37585  0.45159  1.0000
  H   H83       1.0  0.96951  0.58377  0.46913  1.0000
  H   H84       1.0  0.93859  0.59184  0.46804  1.0000
  H   H85       1.0  0.89611  0.62736  0.42339  1.0000
  H   H86       1.0  0.92889  0.62244  0.42018  1.0000
  H   H87       1.0  0.13341  0.49593  0.41923  1.0000
  H   H88       1.0  0.16581  0.49038  0.42235  1.0000
  C   C122      1.0  0.46137  0.49995  0.33086  1.0000
  C   C123      1.0  0.47323  0.48804  0.33010  1.0000
  C   C124      1.0  0.49678  0.50403  0.33183  1.0000
  N   N17       1.0  0.49830  0.52495  0.33331  1.0000
  C   C125      1.0  0.47740  0.52348  0.33289  1.0000
  C   C126      1.0  0.47186  0.54135  0.33421  1.0000
  C   C127      1.0  0.48821  0.56527  0.33437  1.0000
  N   N18       1.0  0.51141  0.57543  0.33266  1.0000
  C   C128      1.0  0.54555  0.61495  0.33202  1.0000
  C   C129      1.0  0.56339  0.60934  0.33171  1.0000
  N   N19       1.0  0.56186  0.58842  0.33326  1.0000
  C   C130      1.0  0.58276  0.58988  0.33293  1.0000
  C   C131      1.0  0.59880  0.61342  0.33091  1.0000
  C   C132      1.0  0.58694  0.62533  0.33004  1.0000
  C   C133      1.0  0.58831  0.57201  0.33434  1.0000
  C   C134      1.0  0.57196  0.54810  0.33456  1.0000
  N   N20       1.0  0.54876  0.53793  0.33291  1.0000
  C   C135      1.0  0.53854  0.51473  0.33349  1.0000
  C   C136      1.0  0.55637  0.50968  0.33551  1.0000
  C   C137      1.0  0.57695  0.53023  0.33634  1.0000
  C   C138      1.0  0.51462  0.49842  0.33226  1.0000
  C   C139      1.0  0.50818  0.47471  0.33122  1.0000
  C   C140      1.0  0.49841  0.42814  0.32954  1.0000
  C   C141      1.0  0.49970  0.43945  0.41094  1.0000
  C   C142      1.0  0.50458  0.46243  0.41192  1.0000
  C   C143      1.0  0.49476  0.40524  0.32908  1.0000
  C   C144      1.0  0.47786  0.38779  0.38394  1.0000
  C   C145      1.0  0.47497  0.36551  0.38580  1.0000
  C   C146      1.0  0.48887  0.35981  0.33300  1.0000
  C   C147      1.0  0.61201  0.57841  0.33617  1.0000
  C   C148      1.0  0.65867  0.58843  0.34104  1.0000
  C   C149      1.0  0.64672  0.58720  0.42063  1.0000
  C   C150      1.0  0.62373  0.58226  0.41838  1.0000
  C   C151      1.0  0.68166  0.59232  0.34374  1.0000
  C   C152      1.0  0.71043  0.58390  0.40788  1.0000
  C   C153      1.0  0.68803  0.58063  0.40634  1.0000
  C   C154      1.0  0.55201  0.63866  0.33101  1.0000
  C   C155      1.0  0.55592  0.65091  0.41170  1.0000
  C   C156      1.0  0.56101  0.67396  0.41077  1.0000
  C   C157      1.0  0.56220  0.68537  0.32943  1.0000
  C   C158      1.0  0.56618  0.70838  0.32903  1.0000
  C   C159      1.0  0.57282  0.75410  0.33287  1.0000
  C   C160      1.0  0.58666  0.74810  0.38525  1.0000
  C   C161      1.0  0.58339  0.72568  0.38342  1.0000
  C   C162      1.0  0.44816  0.53496  0.33597  1.0000
  C   C163      1.0  0.43651  0.53098  0.41816  1.0000
  C   C164      1.0  0.40165  0.52536  0.34090  1.0000
  C   C165      1.0  0.41358  0.52624  0.42042  1.0000
  C   C166      1.0  0.37878  0.52179  0.34368  1.0000
  C   C167      1.0  0.37268  0.53351  0.40665  1.0000
  C   C168      1.0  0.35043  0.53062  0.40814  1.0000
  H   H89       1.0  0.34705  0.53999  0.45317  1.0000
  H   H90       1.0  0.38464  0.54489  0.45064  1.0000
  H   H91       1.0  0.40568  0.52349  0.48120  1.0000
  H   H92       1.0  0.44476  0.53191  0.47698  1.0000
  H   H93       1.0  0.44384  0.49237  0.32986  1.0000
  H   H94       1.0  0.46562  0.47050  0.32871  1.0000
  H   H95       1.0  0.51261  0.53923  0.33563  1.0000
  H   H96       1.0  0.54756  0.57413  0.33542  1.0000
  H   H97       1.0  0.50524  0.61959  0.33652  1.0000
  H   H98       1.0  0.55460  0.64298  0.47171  1.0000
  H   H99       1.0  0.56302  0.68209  0.47062  1.0000
  H   H100      1.0  0.61633  0.62100  0.33001  1.0000
  H   H101      1.0  0.55494  0.49378  0.33663  1.0000
  H   H102      1.0  0.59282  0.53161  0.33796  1.0000
  H   H103      1.0  0.61549  0.58114  0.47722  1.0000
  H   H104      1.0  0.65468  0.58989  0.48142  1.0000
  H   H105      1.0  0.67619  0.56904  0.45011  1.0000
  H   H106      1.0  0.71403  0.57457  0.45271  1.0000
  H   H107      1.0  0.50603  0.47031  0.47196  1.0000
  H   H108      1.0  0.49794  0.43131  0.47078  1.0000
  H   H109      1.0  0.46244  0.35340  0.42606  1.0000
  H   H110      1.0  0.46735  0.39110  0.42289  1.0000
  H   H111      1.0  0.59388  0.72215  0.42199  1.0000
  H   H112      1.0  0.59942  0.76009  0.42509  1.0000
  C   C169      1.0  0.58985  0.04623  0.33293  1.0000
  C   C170      1.0  0.60176  0.07000  0.33201  1.0000
  C   C171      1.0  0.58577  0.07756  0.33374  1.0000
  N   N21       1.0  0.56485  0.05816  0.33539  1.0000
  C   C172      1.0  0.56632  0.03872  0.33503  1.0000
  C   C173      1.0  0.54844  0.01530  0.33641  1.0000
  C   C174      1.0  0.52453  0.00774  0.33652  1.0000
  N   N22       1.0  0.51436  0.02077  0.33474  1.0000
  C   C175      1.0  0.49116  0.00779  0.33519  1.0000
  C   C176      1.0  0.48611  0.98491  0.33724  1.0000
  C   C177      1.0  0.50666  0.98488  0.33828  1.0000
  C   C178      1.0  0.47485  0.01540  0.33384  1.0000
  C   C179      1.0  0.48046  0.03885  0.33362  1.0000
  N   N23       1.0  0.50138  0.05824  0.33541  1.0000
  C   C180      1.0  0.49991  0.07767  0.33511  1.0000
  C   C181      1.0  0.47637  0.07017  0.33290  1.0000
  C   C182      1.0  0.46447  0.04641  0.33183  1.0000
  C   C183      1.0  0.51778  0.10110  0.33666  1.0000
  C   C184      1.0  0.54169  0.10866  0.33678  1.0000
  N   N24       1.0  0.55186  0.09563  0.33501  1.0000
  C   C185      1.0  0.57506  0.10861  0.33542  1.0000
  C   C186      1.0  0.58011  0.13149  0.33748  1.0000
  C   C187      1.0  0.55956  0.13151  0.33850  1.0000
  C   C188      1.0  0.59137  0.10100  0.33403  1.0000
  C   C189      1.0  0.61508  0.11827  0.33258  1.0000
  C   C190      1.0  0.66164  0.15507  0.33001  1.0000
  C   C191      1.0  0.65043  0.14500  0.41163  1.0000
  C   C192      1.0  0.62745  0.12689  0.41305  1.0000
  C   C193      1.0  0.68454  0.17431  0.32909  1.0000
  C   C194      1.0  0.70206  0.17482  0.38364  1.0000
  C   C195      1.0  0.72434  0.19420  0.38503  1.0000
  C   C196      1.0  0.72998  0.21384  0.33207  1.0000
  C   C197      1.0  0.51137  0.11839  0.33855  1.0000
  C   C198      1.0  0.50135  0.15501  0.34355  1.0000
  C   C199      1.0  0.50258  0.14416  0.42310  1.0000
  C   C200      1.0  0.50753  0.12611  0.42080  1.0000
  C   C201      1.0  0.49745  0.17410  0.34631  1.0000
  C   C202      1.0  0.49082  0.21318  0.34940  1.0000
  C   C203      1.0  0.50587  0.21119  0.41056  1.0000
  C   C204      1.0  0.50913  0.19205  0.40898  1.0000
  C   C205      1.0  0.45114  0.99815  0.33237  1.0000
  C   C206      1.0  0.43879  0.98962  0.41281  1.0000
  C   C207      1.0  0.41573  0.97166  0.41140  1.0000
  C   C208      1.0  0.40443  0.96164  0.32982  1.0000
  C   C209      1.0  0.38141  0.94262  0.32890  1.0000
  C   C210      1.0  0.33568  0.90354  0.33177  1.0000
  C   C211      1.0  0.34162  0.92326  0.38431  1.0000
  C   C212      1.0  0.36405  0.94241  0.38297  1.0000
  C   C213      1.0  0.55484  0.99800  0.33823  1.0000
  C   C214      1.0  0.55882  0.99021  0.42045  1.0000
  C   C215      1.0  0.56444  0.96107  0.34329  1.0000
  C   C216      1.0  0.56355  0.97202  0.42278  1.0000
  C   C217      1.0  0.56800  0.94177  0.34612  1.0000
  C   C218      1.0  0.55628  0.92386  0.40914  1.0000
  C   C219      1.0  0.55916  0.90449  0.41064  1.0000
  C   C220      1.0  0.57388  0.90221  0.34915  1.0000
  H   H113      1.0  0.54980  0.89168  0.45573  1.0000
  H   H114      1.0  0.54490  0.92438  0.45310  1.0000
  H   H115      1.0  0.56630  0.96678  0.48358  1.0000
  H   H116      1.0  0.55788  0.99744  0.47924  1.0000
  H   H117      1.0  0.59743  0.03627  0.33194  1.0000
  H   H118      1.0  0.61929  0.07992  0.33051  1.0000
  H   H119      1.0  0.55056  0.05818  0.33762  1.0000
  H   H120      1.0  0.51566  0.05822  0.33784  1.0000
  H   H121      1.0  0.50803  0.97039  0.34003  1.0000
  H   H122      1.0  0.47021  0.97045  0.33840  1.0000
  H   H123      1.0  0.44663  0.99609  0.47299  1.0000
  H   H124      1.0  0.40753  0.96541  0.47108  1.0000
  H   H125      1.0  0.44693  0.03649  0.33020  1.0000
  H   H126      1.0  0.46879  0.08013  0.33190  1.0000
  H   H127      1.0  0.59601  0.14595  0.33847  1.0000
  H   H128      1.0  0.55818  0.14600  0.34014  1.0000
  H   H129      1.0  0.50864  0.11889  0.47960  1.0000
  H   H130      1.0  0.49989  0.14933  0.48392  1.0000
  H   H131      1.0  0.52074  0.19174  0.45266  1.0000
  H   H132      1.0  0.51523  0.22406  0.45531  1.0000
  H   H133      1.0  0.61964  0.12041  0.47324  1.0000
  H   H134      1.0  0.65864  0.15132  0.47132  1.0000
  H   H135      1.0  0.73651  0.19374  0.42505  1.0000
  H   H136      1.0  0.69880  0.16097  0.42267  1.0000
  H   H137      1.0  0.36753  0.95633  0.42167  1.0000
  H   H138      1.0  0.32958  0.92394  0.42396  1.0000
  C   C221      1.0  0.31102  0.51365  0.34686  1.0000
  C   C222      1.0  0.26813  0.51208  0.34533  1.0000
  C   C223      1.0  0.27752  0.51035  0.42827  1.0000
  C   C224      1.0  0.29899  0.51116  0.42748  1.0000
  H   H139      1.0  0.30606  0.50998  0.48657  1.0000
  C   C225      1.0  0.24717  0.51225  0.34297  1.0000
  C   C226      1.0  0.20622  0.51449  0.33496  1.0000
  C   C227      1.0  0.21483  0.51178  0.41790  1.0000
  C   C228      1.0  0.23531  0.51067  0.42348  1.0000
  C   C229      1.0  0.24452  0.50853  0.50577  1.0000
  C   C230      1.0  0.26543  0.50835  0.50814  1.0000
  H   H140      1.0  0.20649  0.51145  0.47549  1.0000
  O   O1        1.0  0.23366  0.50693  0.58387  1.0000
  O   O2        1.0  0.27386  0.50666  0.58844  1.0000
  C   C231      1.0  0.57613  0.88213  0.34945  1.0000
  C   C232      1.0  0.57771  0.84082  0.34798  1.0000
  C   C233      1.0  0.57943  0.85181  0.43091  1.0000
  C   C234      1.0  0.57863  0.87249  0.43008  1.0000
  H   H141      1.0  0.57980  0.88064  0.48916  1.0000
  C   C235      1.0  0.57754  0.81970  0.34564  1.0000
  C   C236      1.0  0.57531  0.77653  0.33770  1.0000
  C   C237      1.0  0.57803  0.78773  0.42062  1.0000
  C   C238      1.0  0.57912  0.80930  0.42617  1.0000
  C   C239      1.0  0.58126  0.82052  0.50845  1.0000
  C   C240      1.0  0.58143  0.84161  0.51080  1.0000
  H   H142      1.0  0.57834  0.77963  0.47822  1.0000
  O   O3        1.0  0.58286  0.81115  0.58656  1.0000
  O   O4        1.0  0.58313  0.85162  0.59108  1.0000
  C   C241      1.0  0.24895  0.82166  0.34523  1.0000
  C   C242      1.0  0.23786  0.81222  0.42795  1.0000
  C   C243      1.0  0.21719  0.79074  0.42674  1.0000
  H   H143      1.0  0.20896  0.78363  0.48567  1.0000
  C   C244      1.0  0.27008  0.84263  0.34330  1.0000
  C   C245      1.0  0.30195  0.87492  0.41889  1.0000
  C   C246      1.0  0.28037  0.85443  0.42402  1.0000
  C   C247      1.0  0.26904  0.84517  0.50609  1.0000
  C   C248      1.0  0.24795  0.82425  0.50803  1.0000
  H   H144      1.0  0.30997  0.88322  0.47664  1.0000
  O   O5        1.0  0.27832  0.85598  0.58437  1.0000
  O   O6        1.0  0.23785  0.81577  0.58812  1.0000
  C   C249      1.0  0.74989  0.60164  0.34713  1.0000
  C   C250      1.0  0.79318  0.60409  0.34569  1.0000
  C   C251      1.0  0.78367  0.60536  0.42867  1.0000
  C   C252      1.0  0.76199  0.60413  0.42782  1.0000
  H   H145      1.0  0.75483  0.60497  0.48693  1.0000
  C   C253      1.0  0.81436  0.60436  0.34334  1.0000
  C   C254      1.0  0.85576  0.60300  0.33529  1.0000
  C   C255      1.0  0.84703  0.60528  0.41830  1.0000
  C   C256      1.0  0.82631  0.60594  0.42389  1.0000
  C   C257      1.0  0.81698  0.60763  0.50623  1.0000
  C   C258      1.0  0.79584  0.60736  0.50860  1.0000
  H   H146      1.0  0.85544  0.60559  0.47589  1.0000
  O   O7        1.0  0.82793  0.60922  0.58438  1.0000
  O   O8        1.0  0.78731  0.60864  0.58893  1.0000
  C   C259      1.0  0.48816  0.23303  0.34976  1.0000
  C   C260      1.0  0.48572  0.27387  0.34833  1.0000
  C   C261      1.0  0.48444  0.26296  0.43130  1.0000
  C   C262      1.0  0.48567  0.24252  0.43046  1.0000
  H   H147      1.0  0.48482  0.23442  0.48957  1.0000
  C   C263      1.0  0.48545  0.29478  0.34597  1.0000
  C   C264      1.0  0.48681  0.33756  0.33794  1.0000
  C   C265      1.0  0.48453  0.32642  0.42094  1.0000
  C   C266      1.0  0.48387  0.30504  0.42653  1.0000
  C   C267      1.0  0.48218  0.29388  0.50888  1.0000
  C   C268      1.0  0.48244  0.27301  0.51124  1.0000
  H   H148      1.0  0.48421  0.33442  0.47854  1.0000
  O   O9        1.0  0.48059  0.30312  0.58702  1.0000
  O   O10       1.0  0.48116  0.26307  0.59156  1.0000
  C   C269      1.0  0.81593  0.29662  0.34561  1.0000
  C   C270      1.0  0.82695  0.30619  0.42837  1.0000
  C   C271      1.0  0.84738  0.32787  0.42712  1.0000
  H   H149      1.0  0.85556  0.33508  0.48607  1.0000
  C   C272      1.0  0.79503  0.27544  0.34369  1.0000
  C   C273      1.0  0.76350  0.24282  0.41931  1.0000
  C   C274      1.0  0.78488  0.26354  0.42446  1.0000
  C   C275      1.0  0.79614  0.27294  0.50657  1.0000
  C   C276      1.0  0.81701  0.29407  0.50851  1.0000
  H   H150      1.0  0.75556  0.23446  0.47707  1.0000
  O   O11       1.0  0.78700  0.26204  0.58491  1.0000
  O   O12       1.0  0.82705  0.30267  0.58864  1.0000
