data_image0
_chemical_formula_structural       C3NC3NC5NC5NC20H18C4H4C3NC3NC5NC5NC20H18C4H4C3NC3NC5NC5NC20H18C4H4C3H2NC3H2NC3H2NC3H2NC3H2NC3H2NC8H8C8H8C8H8C4H3CH3NC4H3CH3NC4H3CH3NC4H3CH3NC4H3CH3NC4H3CH3N
_chemical_formula_sum              "C192 N24 H138"
_cell_length_a       50.6827
_cell_length_b       50.6827
_cell_length_c       14.7879
_cell_angle_alpha    90.016
_cell_angle_beta     89.984
_cell_angle_gamma    120

_space_group_name_H-M_alt    "P 1"
_space_group_IT_number       1

loop_
  _space_group_symop_operation_xyz
  'x, y, z'

loop_
  _atom_site_type_symbol
  _atom_site_label
  _atom_site_symmetry_multiplicity
  _atom_site_fract_x
  _atom_site_fract_y
  _atom_site_fract_z
  _atom_site_occupancy
  C   C1        1.0  0.02250  0.63843  0.33422  1.0000
  C   C2        1.0  0.05402  0.65441  0.33518  1.0000
  C   C3        1.0  0.06434  0.63349  0.33463  1.0000
  N   N1        1.0  0.03865  0.60568  0.33457  1.0000
  C   C4        1.0  0.01269  0.60731  0.33346  1.0000
  C   C5        1.0  0.98164  0.58351  0.33102  1.0000
  C   C6        1.0  0.97202  0.55188  0.33116  1.0000
  N   N2        1.0  0.98932  0.53844  0.33561  1.0000
  C   C7        1.0  0.97230  0.50767  0.33228  1.0000
  C   C8        1.0  0.94207  0.50098  0.32553  1.0000
  C   C9        1.0  0.94190  0.52810  0.32507  1.0000
  C   C10       1.0  0.98230  0.48594  0.33329  1.0000
  C   C11       1.0  0.01352  0.49372  0.33466  1.0000
  N   N3        1.0  0.03921  0.52154  0.33467  1.0000
  C   C12       1.0  0.06517  0.51990  0.33352  1.0000
  C   C13       1.0  0.05536  0.48877  0.33443  1.0000
  C   C14       1.0  0.02384  0.47280  0.33538  1.0000
  C   C15       1.0  0.09621  0.54369  0.33092  1.0000
  C   C16       1.0  0.10584  0.57532  0.33123  1.0000
  N   N4        1.0  0.08854  0.58876  0.33572  1.0000
  C   C17       1.0  0.10556  0.61954  0.33251  1.0000
  C   C18       1.0  0.13579  0.62622  0.32578  1.0000
  C   C19       1.0  0.13597  0.59910  0.32517  1.0000
  C   C20       1.0  0.09557  0.64127  0.33337  1.0000
  C   C21       1.0  0.11865  0.67280  0.32760  1.0000
  C   C22       1.0  0.16972  0.73341  0.30874  1.0000
  C   C23       1.0  0.15031  0.71794  0.23468  1.0000
  C   C24       1.0  0.12540  0.68813  0.24365  1.0000
  C   C25       1.0  0.11954  0.53570  0.32280  1.0000
  C   C26       1.0  0.17100  0.52695  0.30210  1.0000
  C   C27       1.0  0.15372  0.52676  0.22645  1.0000
  C   C28       1.0  0.12856  0.53120  0.23644  1.0000
  C   C29       1.0  0.95923  0.45441  0.32741  1.0000
  C   C30       1.0  0.95256  0.43908  0.24345  1.0000
  C   C31       1.0  0.92771  0.40924  0.23443  1.0000
  C   C32       1.0  0.90831  0.39372  0.30847  1.0000
  C   C33       1.0  0.95830  0.59149  0.32303  1.0000
  C   C34       1.0  0.94940  0.59620  0.23678  1.0000
  C   C35       1.0  0.90676  0.60010  0.30253  1.0000
  C   C36       1.0  0.92420  0.60059  0.22689  1.0000
  H   H1        1.0  0.91830  0.60351  0.16298  1.0000
  H   H2        1.0  0.96078  0.59573  0.18015  1.0000
  H   H3        1.0  0.00917  0.64830  0.33382  1.0000
  H   H4        1.0  0.06702  0.67764  0.33551  1.0000
  H   H5        1.0  0.03880  0.58679  0.33310  1.0000
  H   H6        1.0  0.03906  0.54041  0.33261  1.0000
  H   H7        1.0  0.92269  0.52977  0.31914  1.0000
  H   H8        1.0  0.92300  0.48001  0.31985  1.0000
  H   H9        1.0  0.96533  0.44987  0.18751  1.0000
  H   H10       1.0  0.92347  0.39920  0.17196  1.0000
  H   H11       1.0  0.01084  0.44957  0.33568  1.0000
  H   H12       1.0  0.06869  0.47891  0.33395  1.0000
  H   H13       1.0  0.15486  0.64719  0.31987  1.0000
  H   H14       1.0  0.15516  0.59743  0.31908  1.0000
  H   H15       1.0  0.11727  0.53185  0.17983  1.0000
  H   H16       1.0  0.15967  0.52395  0.16248  1.0000
  H   H17       1.0  0.11264  0.67737  0.18769  1.0000
  H   H18       1.0  0.15462  0.72797  0.17221  1.0000
  C   C37       1.0  0.19597  0.52270  0.28914  1.0000
  C   C38       1.0  0.88344  0.36437  0.29615  1.0000
  C   C39       1.0  0.88171  0.60424  0.28966  1.0000
  C   C40       1.0  0.19469  0.76270  0.29644  1.0000
  H   H19       1.0  0.19697  0.51288  0.23203  1.0000
  H   H20       1.0  0.88339  0.35262  0.24218  1.0000
  H   H21       1.0  0.88074  0.61420  0.23283  1.0000
  H   H22       1.0  0.19480  0.77449  0.24255  1.0000
  C   C41       1.0  0.46359  0.47136  0.33456  1.0000
  C   C42       1.0  0.44762  0.48690  0.33554  1.0000
  C   C43       1.0  0.46855  0.51815  0.33466  1.0000
  N   N5        1.0  0.49636  0.52026  0.33460  1.0000
  C   C44       1.0  0.49472  0.49267  0.33355  1.0000
  C   C45       1.0  0.51851  0.48541  0.33090  1.0000
  C   C46       1.0  0.55014  0.50741  0.33096  1.0000
  N   N6        1.0  0.56358  0.53815  0.33544  1.0000
  C   C47       1.0  0.59436  0.55191  0.33205  1.0000
  C   C48       1.0  0.60104  0.52836  0.32520  1.0000
  C   C49       1.0  0.57391  0.50106  0.32468  1.0000
  C   C50       1.0  0.61609  0.58363  0.33305  1.0000
  C   C51       1.0  0.60832  0.60707  0.33452  1.0000
  N   N7        1.0  0.58051  0.60496  0.33454  1.0000
  C   C52       1.0  0.58215  0.63255  0.33346  1.0000
  C   C53       1.0  0.61327  0.65386  0.33433  1.0000
  C   C54       1.0  0.62925  0.63832  0.33531  1.0000
  C   C55       1.0  0.55836  0.63981  0.33094  1.0000
  C   C56       1.0  0.52673  0.61781  0.33098  1.0000
  N   N8        1.0  0.51328  0.58707  0.33543  1.0000
  C   C57       1.0  0.48251  0.57332  0.33211  1.0000
  C   C58       1.0  0.47583  0.59687  0.32532  1.0000
  C   C59       1.0  0.50296  0.62416  0.32484  1.0000
  C   C60       1.0  0.46077  0.54159  0.33314  1.0000
  C   C61       1.0  0.42924  0.53315  0.32738  1.0000
  C   C62       1.0  0.36863  0.52358  0.30866  1.0000
  C   C63       1.0  0.38408  0.51963  0.23457  1.0000
  C   C64       1.0  0.41388  0.52450  0.24349  1.0000
  C   C65       1.0  0.56636  0.67113  0.32276  1.0000
  C   C66       1.0  0.57512  0.73133  0.30200  1.0000
  C   C67       1.0  0.57530  0.71423  0.22637  1.0000
  C   C68       1.0  0.57083  0.68461  0.23638  1.0000
  C   C69       1.0  0.64763  0.59208  0.32720  1.0000
  C   C70       1.0  0.66299  0.60078  0.24331  1.0000
  C   C71       1.0  0.69283  0.60577  0.23436  1.0000
  C   C72       1.0  0.70833  0.60188  0.30843  1.0000
  C   C73       1.0  0.51051  0.45408  0.32290  1.0000
  C   C74       1.0  0.50581  0.44045  0.23666  1.0000
  C   C75       1.0  0.50195  0.39394  0.30236  1.0000
  C   C76       1.0  0.50144  0.41088  0.22675  1.0000
  H   H23       1.0  0.49851  0.40205  0.16283  1.0000
  H   H24       1.0  0.50626  0.45230  0.18004  1.0000
  H   H25       1.0  0.45372  0.44815  0.33408  1.0000
  H   H26       1.0  0.42439  0.47668  0.33570  1.0000
  H   H27       1.0  0.51523  0.53928  0.33238  1.0000
  H   H28       1.0  0.56163  0.58593  0.33273  1.0000
  H   H29       1.0  0.57225  0.48019  0.31883  1.0000
  H   H30       1.0  0.62201  0.53026  0.31948  1.0000
  H   H31       1.0  0.65222  0.60279  0.18737  1.0000
  H   H32       1.0  0.70291  0.61162  0.17195  1.0000
  H   H33       1.0  0.65248  0.64854  0.33543  1.0000
  H   H34       1.0  0.62315  0.67707  0.33386  1.0000
  H   H35       1.0  0.45486  0.59497  0.31979  1.0000
  H   H36       1.0  0.50463  0.64504  0.31918  1.0000
  H   H37       1.0  0.57018  0.67266  0.17978  1.0000
  H   H38       1.0  0.57808  0.72295  0.16238  1.0000
  H   H39       1.0  0.42463  0.52249  0.18750  1.0000
  H   H40       1.0  0.37402  0.51385  0.17214  1.0000
  C   C77       1.0  0.57938  0.76056  0.28902  1.0000
  C   C78       1.0  0.73768  0.60637  0.29617  1.0000
  C   C79       1.0  0.49784  0.36476  0.28947  1.0000
  C   C80       1.0  0.33934  0.51926  0.29642  1.0000
  H   H41       1.0  0.58919  0.77136  0.23189  1.0000
  H   H42       1.0  0.74945  0.61808  0.24228  1.0000
  H   H43       1.0  0.48790  0.35384  0.23261  1.0000
  H   H44       1.0  0.32753  0.50755  0.24255  1.0000
  C   C81       1.0  0.63069  0.07952  0.33420  1.0000
  C   C82       1.0  0.61515  0.04801  0.33518  1.0000
  C   C83       1.0  0.58390  0.03768  0.33446  1.0000
  N   N9        1.0  0.58179  0.06338  0.33446  1.0000
  C   C84       1.0  0.60937  0.08933  0.33341  1.0000
  C   C85       1.0  0.61663  0.12038  0.33097  1.0000
  C   C86       1.0  0.59462  0.13000  0.33111  1.0000
  N   N10       1.0  0.56388  0.11271  0.33552  1.0000
  C   C87       1.0  0.55012  0.12973  0.33227  1.0000
  C   C88       1.0  0.57367  0.15995  0.32550  1.0000
  C   C89       1.0  0.60096  0.16013  0.32495  1.0000
  C   C90       1.0  0.51840  0.11973  0.33320  1.0000
  C   C91       1.0  0.49495  0.08850  0.33445  1.0000
  N   N11       1.0  0.49707  0.06281  0.33445  1.0000
  C   C92       1.0  0.46949  0.03685  0.33326  1.0000
  C   C93       1.0  0.44817  0.04666  0.33392  1.0000
  C   C94       1.0  0.46371  0.07818  0.33493  1.0000
  C   C95       1.0  0.46223  0.00581  0.33080  1.0000
  C   C96       1.0  0.48424  0.99619  0.33090  1.0000
  N   N12       1.0  0.51497  0.01348  0.33529  1.0000
  C   C97       1.0  0.52873  0.99646  0.33205  1.0000
  C   C98       1.0  0.50519  0.96623  0.32537  1.0000
  C   C99       1.0  0.47789  0.96606  0.32491  1.0000
  C   C100      1.0  0.56046  0.00646  0.33308  1.0000
  C   C101      1.0  0.56891  0.98338  0.32729  1.0000
  C   C102      1.0  0.57848  0.93233  0.30854  1.0000
  C   C103      1.0  0.58239  0.95171  0.23442  1.0000
  C   C104      1.0  0.57751  0.97663  0.24335  1.0000
  C   C105      1.0  0.43092  0.98248  0.32263  1.0000
  C   C106      1.0  0.37070  0.93105  0.30201  1.0000
  C   C107      1.0  0.38781  0.94829  0.22632  1.0000
  C   C108      1.0  0.41742  0.97345  0.23627  1.0000
  C   C109      1.0  0.50994  0.14280  0.32726  1.0000
  C   C110      1.0  0.50133  0.14949  0.24328  1.0000
  C   C111      1.0  0.49632  0.17433  0.23427  1.0000
  C   C112      1.0  0.50017  0.19372  0.30832  1.0000
  C   C113      1.0  0.64795  0.14372  0.32294  1.0000
  C   C114      1.0  0.66157  0.15263  0.23669  1.0000
  C   C115      1.0  0.70810  0.19528  0.30242  1.0000
  C   C116      1.0  0.69114  0.17784  0.22679  1.0000
  H   H45       1.0  0.69997  0.18373  0.16288  1.0000
  H   H46       1.0  0.64971  0.14125  0.18007  1.0000
  H   H47       1.0  0.65389  0.09286  0.33379  1.0000
  H   H48       1.0  0.62537  0.03500  0.33533  1.0000
  H   H49       1.0  0.56276  0.06323  0.33272  1.0000
  H   H50       1.0  0.51611  0.06296  0.33308  1.0000
  H   H51       1.0  0.62183  0.17933  0.31916  1.0000
  H   H52       1.0  0.57177  0.17902  0.31987  1.0000
  H   H53       1.0  0.49934  0.13672  0.18735  1.0000
  H   H54       1.0  0.49055  0.17858  0.17179  1.0000
  H   H55       1.0  0.45348  0.09118  0.33508  1.0000
  H   H56       1.0  0.42497  0.03333  0.33336  1.0000
  H   H57       1.0  0.50708  0.94715  0.32005  1.0000
  H   H58       1.0  0.45701  0.94684  0.31938  1.0000
  H   H59       1.0  0.42937  0.98469  0.17963  1.0000
  H   H60       1.0  0.37907  0.94230  0.16235  1.0000
  H   H61       1.0  0.57951  0.98938  0.18737  1.0000
  H   H62       1.0  0.58816  0.94741  0.17198  1.0000
  C   C117      1.0  0.34146  0.90609  0.28909  1.0000
  C   C118      1.0  0.49570  0.21859  0.29601  1.0000
  C   C119      1.0  0.73728  0.22033  0.28955  1.0000
  C   C120      1.0  0.58281  0.90737  0.29628  1.0000
  H   H63       1.0  0.33064  0.90509  0.23202  1.0000
  H   H64       1.0  0.48403  0.21866  0.24203  1.0000
  H   H65       1.0  0.74821  0.22131  0.23270  1.0000
  H   H66       1.0  0.59452  0.90726  0.24243  1.0000
  C   C121      1.0  0.24368  0.52964  0.34881  1.0000
  C   C122      1.0  0.25808  0.52894  0.26778  1.0000
  C   C123      1.0  0.28557  0.52861  0.26886  1.0000
  H   H67       1.0  0.29541  0.52880  0.20828  1.0000
  H   H68       1.0  0.24902  0.52935  0.20641  1.0000
  N   N13       1.0  0.21779  0.53092  0.34684  1.0000
  C   C124      1.0  0.57244  0.80134  0.34869  1.0000
  C   C125      1.0  0.57314  0.81643  0.26766  1.0000
  C   C126      1.0  0.57347  0.84425  0.26872  1.0000
  H   H69       1.0  0.57329  0.85389  0.20815  1.0000
  H   H70       1.0  0.57275  0.80695  0.20628  1.0000
  N   N14       1.0  0.57116  0.77417  0.34672  1.0000
  C   C127      1.0  0.30071  0.85838  0.34879  1.0000
  C   C128      1.0  0.28561  0.84397  0.26777  1.0000
  C   C129      1.0  0.25778  0.81648  0.26886  1.0000
  H   H71       1.0  0.24817  0.80663  0.20829  1.0000
  H   H72       1.0  0.29510  0.85302  0.20639  1.0000
  N   N15       1.0  0.32788  0.88427  0.34679  1.0000
  C   C130      1.0  0.83378  0.59680  0.34899  1.0000
  C   C131      1.0  0.81938  0.59742  0.26791  1.0000
  C   C132      1.0  0.79178  0.59754  0.26887  1.0000
  H   H73       1.0  0.78194  0.59727  0.20825  1.0000
  H   H74       1.0  0.82851  0.59708  0.20657  1.0000
  N   N16       1.0  0.85976  0.59570  0.34709  1.0000
  C   C133      1.0  0.50527  0.32428  0.34882  1.0000
  C   C134      1.0  0.50466  0.30924  0.26774  1.0000
  C   C135      1.0  0.50454  0.28152  0.26871  1.0000
  H   H75       1.0  0.50479  0.27193  0.20809  1.0000
  H   H76       1.0  0.50499  0.31870  0.20641  1.0000
  N   N17       1.0  0.50636  0.35135  0.34693  1.0000
  C   C136      1.0  0.77777  0.26826  0.34892  1.0000
  C   C137      1.0  0.79280  0.28267  0.26785  1.0000
  C   C138      1.0  0.82052  0.31027  0.26883  1.0000
  H   H77       1.0  0.83012  0.32010  0.20821  1.0000
  H   H78       1.0  0.78335  0.27352  0.20650  1.0000
  N   N18       1.0  0.75068  0.24226  0.34700  1.0000
  C   C139      1.0  0.13757  0.68825  0.40228  1.0000
  C   C140      1.0  0.16265  0.71800  0.39299  1.0000
  C   C141      1.0  0.13647  0.53570  0.39880  1.0000
  C   C142      1.0  0.16170  0.53131  0.38860  1.0000
  C   C143      1.0  0.91530  0.40912  0.39272  1.0000
  C   C144      1.0  0.94030  0.43892  0.40204  1.0000
  C   C145      1.0  0.94125  0.59125  0.39902  1.0000
  C   C146      1.0  0.91596  0.59557  0.38892  1.0000
  H   H79       1.0  0.90414  0.59506  0.44558  1.0000
  H   H80       1.0  0.94672  0.58722  0.46215  1.0000
  H   H81       1.0  0.94414  0.44962  0.46334  1.0000
  H   H82       1.0  0.90200  0.39891  0.44821  1.0000
  H   H83       1.0  0.13090  0.53958  0.46202  1.0000
  H   H84       1.0  0.17340  0.53160  0.44527  1.0000
  H   H85       1.0  0.17596  0.72817  0.44848  1.0000
  H   H86       1.0  0.13371  0.67754  0.46354  1.0000
  C   C147      1.0  0.41381  0.53664  0.40210  1.0000
  C   C148      1.0  0.38405  0.53195  0.39287  1.0000
  C   C149      1.0  0.56637  0.68807  0.39874  1.0000
  C   C150      1.0  0.57077  0.71770  0.38852  1.0000
  C   C151      1.0  0.69289  0.59344  0.39262  1.0000
  C   C152      1.0  0.66309  0.58864  0.40188  1.0000
  C   C153      1.0  0.51081  0.43729  0.39886  1.0000
  C   C154      1.0  0.50650  0.40770  0.38875  1.0000
  H   H87       1.0  0.50702  0.39639  0.44540  1.0000
  H   H88       1.0  0.51484  0.44681  0.46200  1.0000
  H   H89       1.0  0.65236  0.58174  0.46312  1.0000
  H   H90       1.0  0.70308  0.59033  0.44811  1.0000
  H   H91       1.0  0.56252  0.67866  0.46199  1.0000
  H   H92       1.0  0.57050  0.72914  0.44519  1.0000
  H   H93       1.0  0.37390  0.53511  0.44838  1.0000
  H   H94       1.0  0.42454  0.54351  0.46333  1.0000
  C   C155      1.0  0.56546  0.96449  0.40202  1.0000
  C   C156      1.0  0.57015  0.93941  0.39278  1.0000
  C   C157      1.0  0.41397  0.96560  0.39866  1.0000
  C   C158      1.0  0.38433  0.94038  0.38850  1.0000
  C   C159      1.0  0.50856  0.18672  0.39259  1.0000
  C   C160      1.0  0.51335  0.16172  0.40191  1.0000
  C   C161      1.0  0.66476  0.16077  0.39895  1.0000
  C   C162      1.0  0.69435  0.18607  0.38882  1.0000
  H   H95       1.0  0.70567  0.19788  0.44548  1.0000
  H   H96       1.0  0.65524  0.15530  0.46208  1.0000
  H   H97       1.0  0.52019  0.15787  0.46321  1.0000
  H   H98       1.0  0.51163  0.20001  0.44808  1.0000
  H   H99       1.0  0.42338  0.97120  0.46190  1.0000
  H   H100      1.0  0.37289  0.92871  0.44521  1.0000
  H   H101      1.0  0.56702  0.92613  0.44830  1.0000
  H   H102      1.0  0.55861  0.96837  0.46328  1.0000
  C   C163      1.0  0.29992  0.52892  0.35100  1.0000
  C   C164      1.0  0.28628  0.53039  0.43393  1.0000
  C   C165      1.0  0.25807  0.53071  0.43284  1.0000
  C   C166      1.0  0.30132  0.53146  0.52218  1.0000
  H   H103      1.0  0.32245  0.53091  0.51559  1.0000
  H   H104      1.0  0.28605  0.51194  0.56374  1.0000
  H   H105      1.0  0.30684  0.55238  0.55829  1.0000
  C   C167      1.0  0.24374  0.53213  0.52004  1.0000
  H   H106      1.0  0.22242  0.53219  0.51196  1.0000
  H   H107      1.0  0.25926  0.55288  0.55664  1.0000
  H   H108      1.0  0.23874  0.51243  0.56184  1.0000
  N   N19       1.0  0.32691  0.52984  0.35062  1.0000
  C   C168      1.0  0.57315  0.85829  0.35087  1.0000
  C   C169      1.0  0.57167  0.84320  0.43380  1.0000
  C   C170      1.0  0.57135  0.81466  0.43271  1.0000
  C   C171      1.0  0.57058  0.85718  0.52205  1.0000
  H   H109      1.0  0.57113  0.87885  0.51545  1.0000
  H   H110      1.0  0.59010  0.86143  0.56363  1.0000
  H   H111      1.0  0.54966  0.84178  0.55812  1.0000
  C   C172      1.0  0.56992  0.79893  0.51992  1.0000
  H   H112      1.0  0.56986  0.77754  0.51183  1.0000
  H   H113      1.0  0.54916  0.79370  0.55648  1.0000
  H   H114      1.0  0.58961  0.81363  0.56174  1.0000
  N   N20       1.0  0.57223  0.88437  0.35047  1.0000
  C   C173      1.0  0.24375  0.80213  0.35101  1.0000
  C   C174      1.0  0.25885  0.81578  0.43393  1.0000
  C   C175      1.0  0.28738  0.84399  0.43282  1.0000
  C   C176      1.0  0.24487  0.80073  0.52219  1.0000
  H   H115      1.0  0.22320  0.77960  0.51562  1.0000
  H   H116      1.0  0.24061  0.81600  0.56376  1.0000
  H   H117      1.0  0.26027  0.79522  0.55827  1.0000
  C   C177      1.0  0.30312  0.85832  0.52002  1.0000
  H   H118      1.0  0.32450  0.87965  0.51192  1.0000
  H   H119      1.0  0.30835  0.84280  0.55660  1.0000
  H   H120      1.0  0.28842  0.86331  0.56184  1.0000
  N   N21       1.0  0.21768  0.77514  0.35065  1.0000
  C   C178      1.0  0.77731  0.59706  0.35096  1.0000
  C   C179      1.0  0.79096  0.59568  0.43394  1.0000
  C   C180      1.0  0.81928  0.59557  0.43296  1.0000
  C   C181      1.0  0.77580  0.59446  0.52213  1.0000
  H   H121      1.0  0.75459  0.59484  0.51545  1.0000
  H   H122      1.0  0.79095  0.61401  0.56380  1.0000
  H   H123      1.0  0.77040  0.57357  0.55816  1.0000
  C   C182      1.0  0.83361  0.59423  0.52021  1.0000
  H   H124      1.0  0.85502  0.59435  0.51221  1.0000
  H   H125      1.0  0.81817  0.57342  0.55668  1.0000
  H   H126      1.0  0.83844  0.61387  0.56211  1.0000
  N   N22       1.0  0.75023  0.59596  0.35047  1.0000
  C   C183      1.0  0.50499  0.26753  0.35080  1.0000
  C   C184      1.0  0.50636  0.28257  0.43379  1.0000
  C   C185      1.0  0.50648  0.31101  0.43280  1.0000
  C   C186      1.0  0.50757  0.26865  0.52199  1.0000
  H   H127      1.0  0.50718  0.24705  0.51532  1.0000
  H   H128      1.0  0.48801  0.26426  0.56362  1.0000
  H   H129      1.0  0.52845  0.28414  0.55803  1.0000
  C   C187      1.0  0.50781  0.32669  0.52005  1.0000
  H   H130      1.0  0.50770  0.34799  0.51204  1.0000
  H   H131      1.0  0.52861  0.33205  0.55655  1.0000
  H   H132      1.0  0.48817  0.31189  0.56191  1.0000
  N   N23       1.0  0.50608  0.24155  0.35035  1.0000
  C   C188      1.0  0.83451  0.32472  0.35092  1.0000
  C   C189      1.0  0.81946  0.31107  0.43390  1.0000
  C   C190      1.0  0.79103  0.28275  0.43290  1.0000
  C   C191      1.0  0.83338  0.32622  0.52209  1.0000
  H   H133      1.0  0.85497  0.34742  0.51545  1.0000
  H   H134      1.0  0.83776  0.31106  0.56375  1.0000
  H   H135      1.0  0.81788  0.33162  0.55813  1.0000
  C   C192      1.0  0.77534  0.26841  0.52014  1.0000
  H   H136      1.0  0.75403  0.24699  0.51212  1.0000
  H   H137      1.0  0.76996  0.28385  0.55662  1.0000
  H   H138      1.0  0.79013  0.26357  0.56202  1.0000
  N   N24       1.0  0.86048  0.35179  0.35047  1.0000
