data_image0
_chemical_formula_structural       C3NC3NC5NC5NC20H18C4H4NC3H3N2C3H3NC8H8CNCHNCNCHN
_chemical_formula_sum              "C58 N12 H38"
_cell_length_a       25.567
_cell_length_b       25.5668
_cell_length_c       14.5908
_cell_angle_alpha    90
_cell_angle_beta     90
_cell_angle_gamma    90.0373

_space_group_name_H-M_alt    "P 1"
_space_group_IT_number       1

loop_
  _space_group_symop_operation_xyz
  'x, y, z'

loop_
  _atom_site_type_symbol
  _atom_site_label
  _atom_site_symmetry_multiplicity
  _atom_site_fract_x
  _atom_site_fract_y
  _atom_site_fract_z
  _atom_site_occupancy
  C   C1        1.0  0.91830  0.87537  0.34455  1.0000
  C   C2        1.0  0.87926  0.91268  0.34577  1.0000
  C   C3        1.0  0.90260  0.96210  0.34914  1.0000
  N   N1        1.0  0.95487  0.95269  0.35170  1.0000
  C   C4        1.0  0.96660  0.90090  0.34812  1.0000
  C   C5        1.0  0.01620  0.87544  0.34644  1.0000
  C   C6        1.0  0.06516  0.90202  0.34754  1.0000
  N   N2        1.0  0.07424  0.95418  0.34922  1.0000
  C   C7        1.0  0.12596  0.96559  0.34786  1.0000
  C   C8        1.0  0.15178  0.91750  0.34540  1.0000
  C   C9        1.0  0.11446  0.87846  0.34607  1.0000
  C   C10       1.0  0.15019  0.01569  0.34712  1.0000
  C   C11       1.0  0.12237  0.06402  0.34910  1.0000
  N   N3        1.0  0.07010  0.07337  0.35163  1.0000
  C   C12       1.0  0.05837  0.12518  0.35024  1.0000
  C   C13       1.0  0.10666  0.15078  0.34838  1.0000
  C   C14       1.0  0.14569  0.11350  0.34842  1.0000
  C   C15       1.0  0.00880  0.15067  0.34898  1.0000
  C   C16       1.0  0.95986  0.12415  0.34985  1.0000
  N   N4        1.0  0.95078  0.07199  0.35202  1.0000
  C   C17       1.0  0.89907  0.06060  0.35021  1.0000
  C   C18       1.0  0.87331  0.10874  0.34709  1.0000
  C   C19       1.0  0.91064  0.14778  0.34745  1.0000
  C   C20       1.0  0.87484  0.01049  0.34884  1.0000
  C   C21       1.0  0.81906  0.00887  0.33969  1.0000
  C   C22       1.0  0.70753  0.00819  0.31732  1.0000
  C   C23       1.0  0.74156  0.99863  0.24243  1.0000
  C   C24       1.0  0.79626  0.99912  0.25320  1.0000
  C   C25       1.0  0.00800  0.20646  0.33973  1.0000
  C   C26       1.0  0.00766  0.31798  0.31740  1.0000
  C   C27       1.0  0.99829  0.28398  0.24238  1.0000
  C   C28       1.0  0.99859  0.22928  0.25315  1.0000
  C   C29       1.0  0.20607  0.01768  0.33953  1.0000
  C   C30       1.0  0.22979  0.03125  0.25530  1.0000
  C   C31       1.0  0.28447  0.03657  0.24839  1.0000
  C   C32       1.0  0.31731  0.02757  0.32491  1.0000
  C   C33       1.0  0.01727  0.81954  0.33869  1.0000
  C   C34       1.0  0.03031  0.79567  0.25434  1.0000
  C   C35       1.0  0.02641  0.70823  0.32423  1.0000
  C   C36       1.0  0.03521  0.74096  0.24748  1.0000
  H   H1        1.0  0.04599  0.72526  0.18572  1.0000
  H   H2        1.0  0.03780  0.81815  0.19777  1.0000
  H   H3        1.0  0.91172  0.83600  0.34070  1.0000
  H   H4        1.0  0.84018  0.90434  0.34328  1.0000
  H   H5        1.0  0.98079  0.97979  0.35452  1.0000
  H   H6        1.0  0.04417  0.04623  0.35179  1.0000
  H   H7        1.0  0.12268  0.83936  0.34463  1.0000
  H   H8        1.0  0.19122  0.91114  0.34329  1.0000
  H   H9        1.0  0.20723  0.03875  0.19884  1.0000
  H   H10       1.0  0.30007  0.04761  0.18668  1.0000
  H   H11       1.0  0.18475  0.12197  0.34700  1.0000
  H   H12       1.0  0.11329  0.19019  0.34643  1.0000
  H   H13       1.0  0.83390  0.11514  0.34396  1.0000
  H   H14       1.0  0.90254  0.18689  0.34498  1.0000
  H   H15       1.0  0.99195  0.20613  0.19706  1.0000
  H   H16       1.0  0.99128  0.29874  0.17829  1.0000
  H   H17       1.0  0.81942  0.99250  0.19714  1.0000
  H   H18       1.0  0.72681  0.99145  0.17838  1.0000
  C   C37       1.0  0.00774  0.37208  0.30290  1.0000
  C   C38       1.0  0.37088  0.03618  0.31698  1.0000
  C   C39       1.0  0.03494  0.65465  0.31645  1.0000
  C   C40       1.0  0.65343  0.00826  0.30279  1.0000
  H   H19       1.0  0.00511  0.38486  0.23857  1.0000
  H   H20       1.0  0.38281  0.06542  0.27706  1.0000
  H   H21       1.0  0.06412  0.64271  0.27641  1.0000
  H   H22       1.0  0.64065  0.00536  0.23849  1.0000
  N   N5        1.0  0.00673  0.48474  0.28088  1.0000
  C   C41       1.0  0.00607  0.53778  0.27216  1.0000
  C   C42       1.0  0.00962  0.56825  0.35338  1.0000
  C   C43       1.0  0.99961  0.56008  0.17939  1.0000
  H   H23       1.0  0.99343  0.52940  0.12844  1.0000
  H   H24       1.0  0.03454  0.58188  0.15989  1.0000
  H   H25       1.0  0.96586  0.58618  0.17800  1.0000
  N   N6        1.0  0.00644  0.62024  0.35720  1.0000
  N   N7        1.0  0.54073  0.00775  0.28083  1.0000
  C   C44       1.0  0.48768  0.00718  0.27223  1.0000
  C   C45       1.0  0.45728  0.01073  0.35352  1.0000
  C   C46       1.0  0.46527  0.00083  0.17950  1.0000
  H   H26       1.0  0.49590  0.99469  0.12845  1.0000
  H   H27       1.0  0.44353  0.03580  0.16020  1.0000
  H   H28       1.0  0.43911  0.96710  0.17808  1.0000
  N   N8        1.0  0.40529  0.00758  0.35745  1.0000
  C   C47       1.0  0.78557  0.01830  0.41500  1.0000
  C   C48       1.0  0.73072  0.01802  0.40394  1.0000
  C   C49       1.0  0.01725  0.23992  0.41517  1.0000
  C   C50       1.0  0.01717  0.29477  0.40410  1.0000
  C   C51       1.0  0.29354  0.01283  0.40870  1.0000
  C   C52       1.0  0.23870  0.00821  0.41601  1.0000
  C   C53       1.0  0.00781  0.78701  0.41532  1.0000
  C   C54       1.0  0.01205  0.73213  0.40809  1.0000
  H   H29       1.0  0.00631  0.70989  0.46555  1.0000
  H   H30       1.0  0.99886  0.80319  0.47753  1.0000
  H   H31       1.0  0.22262  0.99876  0.47808  1.0000
  H   H32       1.0  0.31586  0.00685  0.46597  1.0000
  H   H33       1.0  0.02444  0.22448  0.47864  1.0000
  H   H34       1.0  0.02442  0.31762  0.46026  1.0000
  H   H35       1.0  0.70786  0.02549  0.45999  1.0000
  H   H36       1.0  0.80098  0.02589  0.47837  1.0000
  C   C55       1.0  0.01053  0.45860  0.36191  1.0000
  N   N9        1.0  0.01217  0.54226  0.43462  1.0000
  C   C56       1.0  0.01318  0.48926  0.44196  1.0000
  H   H37       1.0  0.01522  0.47236  0.50532  1.0000
  N   N10       1.0  0.01053  0.40646  0.36737  1.0000
  C   C57       1.0  0.56693  0.01146  0.36183  1.0000
  N   N11       1.0  0.48333  0.01318  0.43471  1.0000
  C   C58       1.0  0.53633  0.01409  0.44194  1.0000
  H   H38       1.0  0.55328  0.01610  0.50528  1.0000
  N   N12       1.0  0.61906  0.01137  0.36722  1.0000
