data_image0
_chemical_formula_structural       C3NC3NC5NC5NC20H18N4C3NC3NC5NC5NC20H18N4C3NC3NC5NC5NC20H18N4C3O2H2CHC3O2H2CHC3O2H2CHC3O2H2CHC3O2H2CHC3O2H2CHC8H8C8H8C8H8C3OHOHCHC3OHOHCHC3OHOHCHC3OHOHCHC3OHOHCHC3OHOHCH
_chemical_formula_sum              "C180 N24 H114 O24"
_cell_length_a       50.6378
_cell_length_b       50.6378
_cell_length_c       14.8455
_cell_angle_alpha    90.0972
_cell_angle_beta     89.9028
_cell_angle_gamma    120

_space_group_name_H-M_alt    "P 1"
_space_group_IT_number       1

loop_
  _space_group_symop_operation_xyz
  'x, y, z'

loop_
  _atom_site_type_symbol
  _atom_site_label
  _atom_site_symmetry_multiplicity
  _atom_site_fract_x
  _atom_site_fract_y
  _atom_site_fract_z
  _atom_site_occupancy
  C   C1        1.0  0.05182  0.65311  0.32997  1.0000
  C   C2        1.0  0.02028  0.63744  0.32973  1.0000
  C   C3        1.0  0.01016  0.60622  0.32670  1.0000
  N   N1        1.0  0.03589  0.60420  0.32519  1.0000
  C   C4        1.0  0.06174  0.63186  0.32718  1.0000
  C   C5        1.0  0.09279  0.63914  0.32634  1.0000
  C   C6        1.0  0.10256  0.61724  0.32486  1.0000
  N   N2        1.0  0.08527  0.58646  0.32600  1.0000
  C   C7        1.0  0.10242  0.57283  0.32449  1.0000
  C   C8        1.0  0.13273  0.59646  0.32197  1.0000
  C   C9        1.0  0.13282  0.62374  0.32249  1.0000
  C   C10       1.0  0.09248  0.54112  0.32563  1.0000
  C   C11       1.0  0.06136  0.51751  0.32676  1.0000
  N   N3        1.0  0.03562  0.51953  0.32519  1.0000
  C   C12       1.0  0.00978  0.49188  0.32726  1.0000
  C   C13       1.0  0.01969  0.47062  0.33022  1.0000
  C   C14       1.0  0.05123  0.48630  0.32998  1.0000
  C   C15       1.0  0.97873  0.48459  0.32634  1.0000
  C   C16       1.0  0.96896  0.50649  0.32483  1.0000
  N   N4        1.0  0.98625  0.53727  0.32596  1.0000
  C   C17       1.0  0.96909  0.55090  0.32451  1.0000
  C   C18       1.0  0.93878  0.52726  0.32205  1.0000
  C   C19       1.0  0.93870  0.49998  0.32255  1.0000
  C   C20       1.0  0.97903  0.58261  0.32565  1.0000
  C   C21       1.0  0.95586  0.59091  0.32625  1.0000
  C   C22       1.0  0.90390  0.59900  0.32418  1.0000
  C   C23       1.0  0.91983  0.60094  0.24401  1.0000
  C   C24       1.0  0.94532  0.59672  0.24473  1.0000
  C   C25       1.0  0.95541  0.45320  0.32812  1.0000
  C   C26       1.0  0.90277  0.39367  0.33162  1.0000
  C   C27       1.0  0.91617  0.40805  0.24888  1.0000
  C   C28       1.0  0.94213  0.43743  0.24714  1.0000
  C   C29       1.0  0.11564  0.53281  0.32627  1.0000
  C   C30       1.0  0.12608  0.52670  0.24481  1.0000
  C   C31       1.0  0.15149  0.52237  0.24409  1.0000
  C   C32       1.0  0.16740  0.52437  0.32422  1.0000
  C   C33       1.0  0.11612  0.67053  0.32808  1.0000
  C   C34       1.0  0.12947  0.68624  0.24711  1.0000
  C   C35       1.0  0.16888  0.72997  0.33162  1.0000
  C   C36       1.0  0.15547  0.71559  0.24887  1.0000
  H   H1        1.0  0.16530  0.72576  0.18909  1.0000
  H   H2        1.0  0.12112  0.67588  0.18626  1.0000
  H   H3        1.0  0.06509  0.67633  0.33196  1.0000
  H   H4        1.0  0.00715  0.64754  0.33165  1.0000
  H   H5        1.0  0.03583  0.58521  0.32209  1.0000
  H   H6        1.0  0.03569  0.53851  0.32171  1.0000
  H   H7        1.0  0.15208  0.64472  0.32099  1.0000
  H   H8        1.0  0.15192  0.59462  0.32004  1.0000
  H   H9        1.0  0.11588  0.52640  0.18504  1.0000
  H   H10       1.0  0.15897  0.51875  0.18370  1.0000
  H   H11       1.0  0.06436  0.47620  0.33201  1.0000
  H   H12       1.0  0.00642  0.44741  0.33233  1.0000
  H   H13       1.0  0.91960  0.52910  0.32020  1.0000
  H   H14       1.0  0.91944  0.47900  0.32110  1.0000
  H   H15       1.0  0.95050  0.44777  0.18630  1.0000
  H   H16       1.0  0.90644  0.39780  0.18909  1.0000
  H   H17       1.0  0.95553  0.59695  0.18494  1.0000
  H   H18       1.0  0.91227  0.60433  0.18358  1.0000
  N   N5        1.0  0.87689  0.36697  0.33841  1.0000
  N   N6        1.0  0.19229  0.52171  0.31699  1.0000
  N   N7        1.0  0.19488  0.75656  0.33844  1.0000
  N   N8        1.0  0.87889  0.60145  0.31695  1.0000
  C   C37       1.0  0.44394  0.48553  0.32920  1.0000
  C   C38       1.0  0.45962  0.46967  0.32889  1.0000
  C   C39       1.0  0.49083  0.49076  0.32581  1.0000
  N   N9        1.0  0.49285  0.51851  0.32430  1.0000
  C   C40       1.0  0.46519  0.51670  0.32637  1.0000
  C   C41       1.0  0.45791  0.54047  0.32555  1.0000
  C   C42       1.0  0.47980  0.57214  0.32402  1.0000
  N   N10       1.0  0.51058  0.58563  0.32511  1.0000
  C   C43       1.0  0.52421  0.61642  0.32362  1.0000
  C   C44       1.0  0.50057  0.62308  0.32116  1.0000
  C   C45       1.0  0.47329  0.59589  0.32168  1.0000
  C   C46       1.0  0.55592  0.63819  0.32474  1.0000
  C   C47       1.0  0.57953  0.63068  0.32581  1.0000
  N   N11       1.0  0.57751  0.60293  0.32424  1.0000
  C   C48       1.0  0.60517  0.60474  0.32634  1.0000
  C   C49       1.0  0.62642  0.63591  0.32922  1.0000
  C   C50       1.0  0.61074  0.65177  0.32895  1.0000
  C   C51       1.0  0.61246  0.58098  0.32547  1.0000
  C   C52       1.0  0.59057  0.54931  0.32396  1.0000
  N   N12       1.0  0.55979  0.53582  0.32506  1.0000
  C   C53       1.0  0.54616  0.50503  0.32361  1.0000
  C   C54       1.0  0.56981  0.49837  0.32115  1.0000
  C   C55       1.0  0.59708  0.52556  0.32169  1.0000
  C   C56       1.0  0.51445  0.48326  0.32472  1.0000
  C   C57       1.0  0.50616  0.45179  0.32532  1.0000
  C   C58       1.0  0.49803  0.39172  0.32325  1.0000
  C   C59       1.0  0.49610  0.40564  0.24308  1.0000
  C   C60       1.0  0.50030  0.43534  0.24380  1.0000
  C   C61       1.0  0.64385  0.58906  0.32733  1.0000
  C   C62       1.0  0.70340  0.59600  0.33117  1.0000
  C   C63       1.0  0.68905  0.59490  0.24835  1.0000
  C   C64       1.0  0.65966  0.59145  0.24644  1.0000
  C   C65       1.0  0.56422  0.66966  0.32536  1.0000
  C   C66       1.0  0.57032  0.68611  0.24389  1.0000
  C   C67       1.0  0.57467  0.71587  0.24317  1.0000
  C   C68       1.0  0.57265  0.72985  0.32330  1.0000
  C   C69       1.0  0.42652  0.53241  0.32741  1.0000
  C   C70       1.0  0.41077  0.52995  0.24650  1.0000
  C   C71       1.0  0.36709  0.52576  0.33121  1.0000
  C   C72       1.0  0.38144  0.52667  0.24840  1.0000
  H   H19       1.0  0.37124  0.52624  0.18866  1.0000
  H   H20       1.0  0.42112  0.53194  0.18562  1.0000
  H   H21       1.0  0.42072  0.47559  0.33126  1.0000
  H   H22       1.0  0.44953  0.44645  0.33086  1.0000
  H   H23       1.0  0.51184  0.53744  0.32114  1.0000
  H   H24       1.0  0.55853  0.58400  0.32101  1.0000
  H   H25       1.0  0.45232  0.59417  0.32029  1.0000
  H   H26       1.0  0.50241  0.64411  0.31929  1.0000
  H   H27       1.0  0.57061  0.67615  0.18413  1.0000
  H   H28       1.0  0.57826  0.72690  0.18278  1.0000
  H   H29       1.0  0.62084  0.67500  0.33098  1.0000
  H   H30       1.0  0.64963  0.64586  0.33132  1.0000
  H   H31       1.0  0.56797  0.47734  0.31931  1.0000
  H   H32       1.0  0.61806  0.52728  0.32026  1.0000
  H   H33       1.0  0.64934  0.58940  0.18555  1.0000
  H   H34       1.0  0.69932  0.59534  0.18861  1.0000
  H   H35       1.0  0.50006  0.44527  0.18403  1.0000
  H   H36       1.0  0.49265  0.39461  0.18267  1.0000
  N   N13       1.0  0.73008  0.59679  0.33813  1.0000
  N   N14       1.0  0.57532  0.75740  0.31607  1.0000
  N   N15       1.0  0.34049  0.52516  0.33814  1.0000
  N   N16       1.0  0.49557  0.36425  0.31601  1.0000
  C   C73       1.0  0.61150  0.04524  0.32885  1.0000
  C   C74       1.0  0.62737  0.07677  0.32863  1.0000
  C   C75       1.0  0.60628  0.08690  0.32551  1.0000
  N   N17       1.0  0.57853  0.06117  0.32390  1.0000
  C   C76       1.0  0.58034  0.03532  0.32593  1.0000
  C   C77       1.0  0.55657  0.00427  0.32500  1.0000
  C   C78       1.0  0.52489  0.99450  0.32351  1.0000
  N   N18       1.0  0.51141  0.01179  0.32469  1.0000
  C   C79       1.0  0.48062  0.99463  0.32327  1.0000
  C   C80       1.0  0.47395  0.96432  0.32078  1.0000
  C   C81       1.0  0.50114  0.96424  0.32121  1.0000
  C   C82       1.0  0.45885  0.00457  0.32447  1.0000
  C   C83       1.0  0.46636  0.03570  0.32550  1.0000
  N   N19       1.0  0.49412  0.06143  0.32389  1.0000
  C   C84       1.0  0.49231  0.08728  0.32592  1.0000
  C   C85       1.0  0.46114  0.07736  0.32883  1.0000
  C   C86       1.0  0.44528  0.04583  0.32864  1.0000
  C   C87       1.0  0.51608  0.11833  0.32503  1.0000
  C   C88       1.0  0.54775  0.12810  0.32356  1.0000
  N   N20       1.0  0.56123  0.11081  0.32470  1.0000
  C   C89       1.0  0.59202  0.12797  0.32328  1.0000
  C   C90       1.0  0.59869  0.15827  0.32081  1.0000
  C   C91       1.0  0.57150  0.15836  0.32125  1.0000
  C   C92       1.0  0.61379  0.11802  0.32445  1.0000
  C   C93       1.0  0.64526  0.14120  0.32517  1.0000
  C   C94       1.0  0.70533  0.19315  0.32344  1.0000
  C   C95       1.0  0.69145  0.17725  0.24318  1.0000
  C   C96       1.0  0.66176  0.15174  0.24375  1.0000
  C   C97       1.0  0.50800  0.14165  0.32681  1.0000
  C   C98       1.0  0.50106  0.19425  0.33049  1.0000
  C   C99       1.0  0.50216  0.18089  0.24770  1.0000
  C   C100      1.0  0.50559  0.15494  0.24586  1.0000
  C   C101      1.0  0.42738  0.98141  0.32521  1.0000
  C   C102      1.0  0.41089  0.97091  0.24383  1.0000
  C   C103      1.0  0.38113  0.94551  0.24329  1.0000
  C   C104      1.0  0.36720  0.92964  0.32351  1.0000
  C   C105      1.0  0.56462  0.98094  0.32680  1.0000
  C   C106      1.0  0.56704  0.96755  0.24586  1.0000
  C   C107      1.0  0.57126  0.92815  0.33048  1.0000
  C   C108      1.0  0.57034  0.94152  0.24770  1.0000
  H   H37       1.0  0.57078  0.93170  0.18793  1.0000
  H   H38       1.0  0.56507  0.97588  0.18499  1.0000
  H   H39       1.0  0.62145  0.03196  0.33091  1.0000
  H   H40       1.0  0.65059  0.08991  0.33068  1.0000
  H   H41       1.0  0.55961  0.06123  0.32059  1.0000
  H   H42       1.0  0.51304  0.06136  0.32066  1.0000
  H   H43       1.0  0.50286  0.94498  0.31976  1.0000
  H   H44       1.0  0.45293  0.94514  0.31894  1.0000
  H   H45       1.0  0.42080  0.98110  0.18402  1.0000
  H   H46       1.0  0.37007  0.93799  0.18296  1.0000
  H   H47       1.0  0.42205  0.03269  0.33069  1.0000
  H   H48       1.0  0.45120  0.09064  0.33091  1.0000
  H   H49       1.0  0.61972  0.17746  0.31898  1.0000
  H   H50       1.0  0.56978  0.17761  0.31983  1.0000
  H   H51       1.0  0.50768  0.14663  0.18500  1.0000
  H   H52       1.0  0.50175  0.19067  0.18795  1.0000
  H   H53       1.0  0.65187  0.14154  0.18392  1.0000
  H   H54       1.0  0.70252  0.18479  0.18284  1.0000
  N   N21       1.0  0.50025  0.22014  0.33738  1.0000
  N   N22       1.0  0.33964  0.90474  0.31644  1.0000
  N   N23       1.0  0.57187  0.90217  0.33736  1.0000
  N   N24       1.0  0.73280  0.21815  0.31636  1.0000
  C   C109      1.0  0.29234  0.51945  0.30614  1.0000
  C   C110      1.0  0.27800  0.52780  0.23884  1.0000
  C   C111      1.0  0.25196  0.53025  0.25886  1.0000
  O   O1        1.0  0.28994  0.53521  0.15407  1.0000
  O   O2        1.0  0.24038  0.54015  0.19266  1.0000
  H   H55       1.0  0.27901  0.51651  0.11783  1.0000
  H   H56       1.0  0.22660  0.52204  0.15700  1.0000
  C   C112      1.0  0.31784  0.51693  0.28407  1.0000
  H   H57       1.0  0.31872  0.50908  0.22341  1.0000
  C   C113      1.0  0.57759  0.85971  0.30528  1.0000
  C   C114      1.0  0.56924  0.83695  0.23796  1.0000
  C   C115      1.0  0.56678  0.80848  0.25797  1.0000
  O   O3        1.0  0.56183  0.84140  0.15320  1.0000
  O   O4        1.0  0.55689  0.78693  0.19173  1.0000
  H   H58       1.0  0.58053  0.84914  0.11696  1.0000
  H   H59       1.0  0.57501  0.79125  0.15610  1.0000
  C   C116      1.0  0.58009  0.88769  0.28324  1.0000
  H   H60       1.0  0.58795  0.89638  0.22259  1.0000
  C   C117      1.0  0.23732  0.80470  0.30621  1.0000
  C   C118      1.0  0.26004  0.81902  0.23876  1.0000
  C   C119      1.0  0.28853  0.84506  0.25864  1.0000
  O   O5        1.0  0.25553  0.80707  0.15401  1.0000
  O   O6        1.0  0.31003  0.85664  0.19228  1.0000
  H   H61       1.0  0.24777  0.81799  0.11785  1.0000
  H   H62       1.0  0.30569  0.87040  0.15669  1.0000
  C   C120      1.0  0.20932  0.77920  0.28431  1.0000
  H   H63       1.0  0.20059  0.77832  0.22371  1.0000
  C   C121      1.0  0.77840  0.60285  0.30615  1.0000
  C   C122      1.0  0.79292  0.59461  0.23885  1.0000
  C   C123      1.0  0.81908  0.59241  0.25889  1.0000
  O   O7        1.0  0.78105  0.58707  0.15409  1.0000
  O   O8        1.0  0.83085  0.58261  0.19268  1.0000
  H   H64       1.0  0.79188  0.60575  0.11784  1.0000
  H   H65       1.0  0.84454  0.60073  0.15700  1.0000
  C   C124      1.0  0.75280  0.60513  0.28408  1.0000
  H   H66       1.0  0.75191  0.61293  0.22343  1.0000
  C   C125      1.0  0.49418  0.26235  0.30529  1.0000
  C   C126      1.0  0.50243  0.28504  0.23798  1.0000
  C   C127      1.0  0.50462  0.31342  0.25797  1.0000
  O   O9        1.0  0.50999  0.28063  0.15324  1.0000
  O   O10       1.0  0.51444  0.33492  0.19175  1.0000
  H   H67       1.0  0.49131  0.27274  0.11696  1.0000
  H   H68       1.0  0.49631  0.33046  0.15607  1.0000
  C   C128      1.0  0.49191  0.23445  0.28326  1.0000
  H   H69       1.0  0.48414  0.22570  0.22260  1.0000
  C   C129      1.0  0.83471  0.31865  0.30614  1.0000
  C   C130      1.0  0.81205  0.30415  0.23872  1.0000
  C   C131      1.0  0.78366  0.27799  0.25859  1.0000
  O   O11       1.0  0.81651  0.31606  0.15400  1.0000
  O   O12       1.0  0.76220  0.26624  0.19226  1.0000
  H   H70       1.0  0.82443  0.30526  0.11777  1.0000
  H   H71       1.0  0.76670  0.25256  0.15660  1.0000
  C   C132      1.0  0.86261  0.34428  0.28423  1.0000
  H   H72       1.0  0.87140  0.34521  0.22364  1.0000
  C   C133      1.0  0.94051  0.58978  0.40702  1.0000
  C   C134      1.0  0.91493  0.59384  0.40602  1.0000
  C   C135      1.0  0.94227  0.43877  0.41081  1.0000
  C   C136      1.0  0.91627  0.40943  0.41233  1.0000
  C   C137      1.0  0.15646  0.52983  0.40600  1.0000
  C   C138      1.0  0.13099  0.53405  0.40699  1.0000
  C   C139      1.0  0.12924  0.68497  0.41079  1.0000
  C   C140      1.0  0.15530  0.71427  0.41233  1.0000
  H   H73       1.0  0.16485  0.72375  0.47317  1.0000
  H   H74       1.0  0.12067  0.67373  0.47036  1.0000
  H   H75       1.0  0.12430  0.53902  0.46673  1.0000
  H   H76       1.0  0.16725  0.53135  0.46549  1.0000
  H   H77       1.0  0.95082  0.45004  0.47040  1.0000
  H   H78       1.0  0.90676  0.39992  0.47319  1.0000
  H   H79       1.0  0.90411  0.59234  0.46553  1.0000
  H   H80       1.0  0.94723  0.58495  0.46679  1.0000
  C   C141      1.0  0.50728  0.43765  0.40610  1.0000
  C   C142      1.0  0.50324  0.40802  0.40508  1.0000
  C   C143      1.0  0.65825  0.59046  0.41010  1.0000
  C   C144      1.0  0.68759  0.59381  0.41179  1.0000
  C   C145      1.0  0.56721  0.71355  0.40508  1.0000
  C   C146      1.0  0.56300  0.68386  0.40609  1.0000
  C   C147      1.0  0.41211  0.53116  0.41018  1.0000
  C   C148      1.0  0.38281  0.52793  0.41185  1.0000
  H   H81       1.0  0.37334  0.52804  0.47275  1.0000
  H   H82       1.0  0.42337  0.53389  0.46972  1.0000
  H   H83       1.0  0.55801  0.67226  0.46582  1.0000
  H   H84       1.0  0.56567  0.72286  0.46456  1.0000
  H   H85       1.0  0.64694  0.58776  0.46964  1.0000
  H   H86       1.0  0.69706  0.59384  0.47271  1.0000
  H   H87       1.0  0.50471  0.39874  0.46459  1.0000
  H   H88       1.0  0.51214  0.44927  0.46586  1.0000
  C   C149      1.0  0.65935  0.15653  0.40603  1.0000
  C   C150      1.0  0.68899  0.18209  0.40519  1.0000
  C   C151      1.0  0.50661  0.15474  0.40955  1.0000
  C   C152      1.0  0.50321  0.18071  0.41116  1.0000
  C   C153      1.0  0.38354  0.94063  0.40521  1.0000
  C   C154      1.0  0.41324  0.96610  0.40603  1.0000
  C   C155      1.0  0.56589  0.96786  0.40954  1.0000
  C   C156      1.0  0.56909  0.94177  0.41114  1.0000
  H   H89       1.0  0.56902  0.93227  0.47203  1.0000
  H   H90       1.0  0.56317  0.97644  0.46909  1.0000
  H   H91       1.0  0.42486  0.97282  0.46572  1.0000
  H   H92       1.0  0.37426  0.92985  0.46475  1.0000
  H   H93       1.0  0.50924  0.14617  0.46912  1.0000
  H   H94       1.0  0.50316  0.19021  0.47205  1.0000
  H   H95       1.0  0.69823  0.19289  0.46475  1.0000
  H   H96       1.0  0.64771  0.14979  0.46574  1.0000
  C   C157      1.0  0.23930  0.52421  0.34688  1.0000
  C   C158      1.0  0.25353  0.51566  0.41405  1.0000
  C   C159      1.0  0.27956  0.51320  0.39401  1.0000
  O   O13       1.0  0.29139  0.50361  0.46039  1.0000
  H   H97       1.0  0.30472  0.52173  0.49663  1.0000
  O   O14       1.0  0.24173  0.50856  0.49904  1.0000
  H   H98       1.0  0.25305  0.52725  0.53511  1.0000
  C   C160      1.0  0.21490  0.52841  0.37005  1.0000
  H   H99       1.0  0.21551  0.53764  0.42967  1.0000
  C   C161      1.0  0.57281  0.80194  0.34598  1.0000
  C   C162      1.0  0.58136  0.82477  0.41317  1.0000
  C   C163      1.0  0.58381  0.85324  0.39315  1.0000
  O   O15       1.0  0.59341  0.87472  0.45955  1.0000
  H   H100      1.0  0.57527  0.86996  0.49579  1.0000
  O   O16       1.0  0.58845  0.82015  0.49816  1.0000
  H   H101      1.0  0.56976  0.81281  0.53421  1.0000
  C   C164      1.0  0.56861  0.77335  0.36913  1.0000
  H   H102      1.0  0.55936  0.76478  0.42873  1.0000
  C   C165      1.0  0.29513  0.85773  0.34664  1.0000
  C   C166      1.0  0.27233  0.84353  0.41394  1.0000
  C   C167      1.0  0.24384  0.81750  0.39406  1.0000
  O   O17       1.0  0.22241  0.80569  0.46058  1.0000
  H   H103      1.0  0.22719  0.79236  0.49675  1.0000
  O   O18       1.0  0.27701  0.85534  0.49891  1.0000
  H   H104      1.0  0.28437  0.84403  0.53490  1.0000
  C   C168      1.0  0.32373  0.88215  0.36961  1.0000
  H   H105      1.0  0.33233  0.88157  0.42918  1.0000
  C   C169      1.0  0.83168  0.59860  0.34691  1.0000
  C   C170      1.0  0.81729  0.60704  0.41406  1.0000
  C   C171      1.0  0.79113  0.60925  0.39402  1.0000
  O   O19       1.0  0.77913  0.61876  0.46038  1.0000
  H   H106      1.0  0.76587  0.60062  0.49663  1.0000
  O   O20       1.0  0.82902  0.61428  0.49903  1.0000
  H   H107      1.0  0.81779  0.59561  0.53514  1.0000
  C   C172      1.0  0.85622  0.59465  0.37006  1.0000
  H   H108      1.0  0.85567  0.58553  0.42971  1.0000
  C   C173      1.0  0.49842  0.31993  0.34596  1.0000
  C   C174      1.0  0.48998  0.29716  0.41313  1.0000
  C   C175      1.0  0.48777  0.26878  0.39313  1.0000
  O   O21       1.0  0.47827  0.24735  0.45952  1.0000
  H   H109      1.0  0.49640  0.25226  0.49579  1.0000
  O   O22       1.0  0.48273  0.30175  0.49810  1.0000
  H   H110      1.0  0.50140  0.30923  0.53421  1.0000
  C   C176      1.0  0.50238  0.34844  0.36911  1.0000
  H   H111      1.0  0.51154  0.35709  0.42871  1.0000
  C   C177      1.0  0.77711  0.26534  0.34655  1.0000
  C   C178      1.0  0.79984  0.27972  0.41383  1.0000
  C   C179      1.0  0.82823  0.30589  0.39397  1.0000
  O   O23       1.0  0.84962  0.31787  0.46045  1.0000
  H   H112      1.0  0.84468  0.33111  0.49670  1.0000
  O   O24       1.0  0.79521  0.26795  0.49878  1.0000
  H   H113      1.0  0.78770  0.27917  0.53485  1.0000
  C   C180      1.0  0.74858  0.24080  0.36955  1.0000
  H   H114      1.0  0.73991  0.24135  0.42914  1.0000
