data_image0
_chemical_formula_structural       C3NC3NC5NC5NC36H26C4H4C3NH2NH2NHC3NH2NH2NHC16H20C3NH2NH2NHC3NH2NH2NH
_chemical_formula_sum              "C84 N16 H70"
_cell_length_a       34.1744
_cell_length_b       34.1724
_cell_length_c       14.9885
_cell_angle_alpha    90
_cell_angle_beta     90
_cell_angle_gamma    90.0773

_space_group_name_H-M_alt    "P 1"
_space_group_IT_number       1

loop_
  _space_group_symop_operation_xyz
  'x, y, z'

loop_
  _atom_site_type_symbol
  _atom_site_label
  _atom_site_symmetry_multiplicity
  _atom_site_fract_x
  _atom_site_fract_y
  _atom_site_fract_z
  _atom_site_occupancy
  C   C1        1.0  0.07984  0.09920  0.33101  1.0000
  C   C2        1.0  0.10724  0.06957  0.33029  1.0000
  C   C3        1.0  0.08740  0.03379  0.32987  1.0000
  N   N1        1.0  0.04884  0.04305  0.33003  1.0000
  C   C4        1.0  0.04260  0.08222  0.33057  1.0000
  C   C5        1.0  0.00673  0.10332  0.33095  1.0000
  C   C6        1.0  0.96894  0.08603  0.33093  1.0000
  N   N2        1.0  0.95991  0.04753  0.33055  1.0000
  C   C7        1.0  0.92084  0.04150  0.33094  1.0000
  C   C8        1.0  0.90366  0.07858  0.33155  1.0000
  C   C9        1.0  0.93332  0.10603  0.33130  1.0000
  C   C10       1.0  0.90069  0.00515  0.33099  1.0000
  C   C11       1.0  0.91892  0.96775  0.33065  1.0000
  N   N3        1.0  0.95748  0.95850  0.33088  1.0000
  C   C12       1.0  0.96371  0.91934  0.32989  1.0000
  C   C13       1.0  0.92648  0.90234  0.32921  1.0000
  C   C14       1.0  0.89907  0.93196  0.32959  1.0000
  C   C15       1.0  0.99958  0.89824  0.32948  1.0000
  C   C16       1.0  0.03737  0.91551  0.32973  1.0000
  N   N4        1.0  0.04639  0.95400  0.33019  1.0000
  C   C17       1.0  0.08547  0.96003  0.32946  1.0000
  C   C18       1.0  0.10263  0.92295  0.32878  1.0000
  C   C19       1.0  0.07298  0.89550  0.32884  1.0000
  C   C20       1.0  0.10561  0.99638  0.32923  1.0000
  C   C21       1.0  0.14723  0.99507  0.32668  1.0000
  C   C22       1.0  0.23051  0.98993  0.32097  1.0000
  C   C23       1.0  0.20801  0.98995  0.24153  1.0000
  C   C24       1.0  0.16696  0.99246  0.24420  1.0000
  C   C25       1.0  0.27215  0.98622  0.31785  1.0000
  C   C26       1.0  0.29464  0.00702  0.25416  1.0000
  C   C27       1.0  0.33543  0.00209  0.24863  1.0000
  C   C28       1.0  0.35524  0.97639  0.30701  1.0000
  C   C29       1.0  0.99754  0.85666  0.32676  1.0000
  C   C30       1.0  0.99180  0.77341  0.32071  1.0000
  C   C31       1.0  0.99204  0.79596  0.24136  1.0000
  C   C32       1.0  0.99486  0.83700  0.24418  1.0000
  C   C33       1.0  0.98803  0.73176  0.31744  1.0000
  C   C34       1.0  0.97834  0.64863  0.30667  1.0000
  C   C35       1.0  0.00414  0.66852  0.24852  1.0000
  C   C36       1.0  0.00900  0.70934  0.25402  1.0000
  C   C37       1.0  0.85906  0.00642  0.33227  1.0000
  C   C38       1.0  0.83769  0.01066  0.25229  1.0000
  C   C39       1.0  0.79659  0.01294  0.25417  1.0000
  C   C40       1.0  0.77571  0.01107  0.33578  1.0000
  C   C41       1.0  0.73402  0.01464  0.33783  1.0000
  C   C42       1.0  0.65072  0.02344  0.34017  1.0000
  C   C43       1.0  0.66916  0.99997  0.27498  1.0000
  C   C44       1.0  0.71010  0.99551  0.27410  1.0000
  C   C45       1.0  0.00872  0.14493  0.33248  1.0000
  C   C46       1.0  0.01326  0.16633  0.25261  1.0000
  C   C47       1.0  0.01389  0.22829  0.33623  1.0000
  C   C48       1.0  0.01582  0.20742  0.25462  1.0000
  C   C49       1.0  0.01746  0.27000  0.33839  1.0000
  C   C50       1.0  0.99852  0.29389  0.27439  1.0000
  C   C51       1.0  0.00289  0.33485  0.27550  1.0000
  C   C52       1.0  0.02607  0.35337  0.34119  1.0000
  H   H1        1.0  0.98902  0.35113  0.22777  1.0000
  H   H2        1.0  0.98102  0.28170  0.22643  1.0000
  H   H3        1.0  0.02012  0.22189  0.19566  1.0000
  H   H4        1.0  0.01515  0.15212  0.19263  1.0000
  H   H5        1.0  0.08655  0.12836  0.33163  1.0000
  H   H6        1.0  0.13684  0.07396  0.33038  1.0000
  H   H7        1.0  0.02821  0.02397  0.32945  1.0000
  H   H8        1.0  0.97810  0.97758  0.33178  1.0000
  H   H9        1.0  0.92911  0.13564  0.33155  1.0000
  H   H10       1.0  0.87448  0.08507  0.33207  1.0000
  H   H11       1.0  0.85193  0.01264  0.19236  1.0000
  H   H12       1.0  0.78214  0.01712  0.19518  1.0000
  H   H13       1.0  0.86949  0.92756  0.32886  1.0000
  H   H14       1.0  0.91978  0.87318  0.32836  1.0000
  H   H15       1.0  0.13182  0.91645  0.32812  1.0000
  H   H16       1.0  0.07716  0.86589  0.32815  1.0000
  H   H17       1.0  0.99454  0.85245  0.18566  1.0000
  H   H18       1.0  0.98921  0.78277  0.18040  1.0000
  H   H19       1.0  0.02817  0.72252  0.21100  1.0000
  H   H20       1.0  0.01927  0.65344  0.20074  1.0000
  H   H21       1.0  0.15155  0.99183  0.18563  1.0000
  H   H22       1.0  0.22124  0.98700  0.18066  1.0000
  H   H23       1.0  0.35055  0.01709  0.20061  1.0000
  H   H24       1.0  0.28151  0.02609  0.21089  1.0000
  H   H25       1.0  0.72224  0.97784  0.22649  1.0000
  H   H26       1.0  0.65285  0.98597  0.22745  1.0000
  C   C53       1.0  0.97223  0.60566  0.29751  1.0000
  C   C54       1.0  0.39816  0.97014  0.29776  1.0000
  C   C55       1.0  0.03148  0.39658  0.34031  1.0000
  C   C56       1.0  0.60754  0.02894  0.33903  1.0000
  H   H27       1.0  0.96266  0.59960  0.22938  1.0000
  H   H28       1.0  0.40411  0.96039  0.22972  1.0000
  H   H29       1.0  0.59994  0.04344  0.27634  1.0000
  H   H30       1.0  0.04621  0.40429  0.27796  1.0000
  C   C57       1.0  0.00417  0.54160  0.32476  1.0000
  C   C58       1.0  0.99948  0.51827  0.24654  1.0000
  C   C59       1.0  0.99168  0.47744  0.25606  1.0000
  N   N5        1.0  0.00363  0.53482  0.16392  1.0000
  H   H31       1.0  0.01123  0.56190  0.15605  1.0000
  H   H32       1.0  0.00569  0.51913  0.11032  1.0000
  N   N6        1.0  0.97991  0.45518  0.18495  1.0000
  H   H33       1.0  0.97301  0.42776  0.19154  1.0000
  H   H34       1.0  0.97163  0.46682  0.12919  1.0000
  N   N7        1.0  0.00812  0.58308  0.31988  1.0000
  H   H35       1.0  0.03214  0.59095  0.28298  1.0000
  C   C60       1.0  0.46240  0.00197  0.32438  1.0000
  C   C61       1.0  0.48566  0.99702  0.24615  1.0000
  C   C62       1.0  0.52645  0.98913  0.25569  1.0000
  N   N8        1.0  0.46909  0.00099  0.16353  1.0000
  H   H36       1.0  0.44205  0.00864  0.15563  1.0000
  H   H37       1.0  0.48476  0.00287  0.10986  1.0000
  N   N9        1.0  0.54863  0.97710  0.18474  1.0000
  H   H38       1.0  0.57605  0.97026  0.19111  1.0000
  H   H39       1.0  0.53692  0.96879  0.12901  1.0000
  N   N10       1.0  0.42095  0.00603  0.31958  1.0000
  H   H40       1.0  0.41319  0.02998  0.28236  1.0000
  C   C63       1.0  0.16927  0.99533  0.40631  1.0000
  C   C64       1.0  0.21034  0.99279  0.40334  1.0000
  C   C65       1.0  0.33298  0.95582  0.37124  1.0000
  C   C66       1.0  0.29217  0.96069  0.37661  1.0000
  C   C67       1.0  0.99749  0.83457  0.40631  1.0000
  C   C68       1.0  0.99464  0.79351  0.40318  1.0000
  C   C69       1.0  0.96237  0.71168  0.37587  1.0000
  C   C70       1.0  0.95758  0.67083  0.37057  1.0000
  C   C71       1.0  0.79754  0.00643  0.41548  1.0000
  C   C72       1.0  0.83862  0.00417  0.41392  1.0000
  C   C73       1.0  0.71532  0.03815  0.40292  1.0000
  C   C74       1.0  0.67440  0.04241  0.40424  1.0000
  C   C75       1.0  0.00652  0.16534  0.41416  1.0000
  C   C76       1.0  0.00903  0.20642  0.41584  1.0000
  C   C77       1.0  0.04486  0.32972  0.40552  1.0000
  C   C78       1.0  0.04069  0.28877  0.40398  1.0000
  H   H41       1.0  0.06232  0.34208  0.45331  1.0000
  H   H42       1.0  0.05572  0.27271  0.45027  1.0000
  H   H43       1.0  0.00686  0.22026  0.47617  1.0000
  H   H44       1.0  0.00314  0.15044  0.47293  1.0000
  H   H45       1.0  0.85352  0.00108  0.47277  1.0000
  H   H46       1.0  0.78368  0.00435  0.47581  1.0000
  H   H47       1.0  0.99939  0.84823  0.46695  1.0000
  H   H48       1.0  0.99507  0.77836  0.46205  1.0000
  H   H49       1.0  0.93829  0.65750  0.41304  1.0000
  H   H50       1.0  0.94594  0.72675  0.42142  1.0000
  H   H51       1.0  0.27704  0.94434  0.42228  1.0000
  H   H52       1.0  0.34625  0.93659  0.41390  1.0000
  H   H53       1.0  0.22544  0.99335  0.46227  1.0000
  H   H54       1.0  0.15555  0.99713  0.46690  1.0000
  H   H55       1.0  0.73143  0.05330  0.44900  1.0000
  H   H56       1.0  0.66209  0.06006  0.45167  1.0000
  H   H57       1.0  0.94867  0.59598  0.34181  1.0000
  H   H58       1.0  0.40776  0.94667  0.34230  1.0000
  H   H59       1.0  0.59829  0.04833  0.39304  1.0000
  H   H60       1.0  0.05063  0.40589  0.39477  1.0000
  C   C79       1.0  0.99623  0.45964  0.34133  1.0000
  C   C80       1.0  0.00411  0.48255  0.41894  1.0000
  C   C81       1.0  0.00524  0.52422  0.41117  1.0000
  N   N11       1.0  0.00682  0.54787  0.48493  1.0000
  H   H61       1.0  0.00282  0.53798  0.54472  1.0000
  H   H62       1.0  0.00693  0.57621  0.48057  1.0000
  N   N12       1.0  0.01052  0.46441  0.49904  1.0000
  H   H63       1.0  0.00984  0.43624  0.50575  1.0000
  H   H64       1.0  0.02051  0.47824  0.55057  1.0000
  N   N13       1.0  0.99370  0.41803  0.34517  1.0000
  H   H65       1.0  0.97523  0.40833  0.39447  1.0000
  C   C82       1.0  0.54432  0.99387  0.34083  1.0000
  C   C83       1.0  0.52150  0.00202  0.41839  1.0000
  C   C84       1.0  0.47982  0.00320  0.41073  1.0000
  N   N14       1.0  0.45625  0.00500  0.48458  1.0000
  H   H66       1.0  0.46620  0.00083  0.54424  1.0000
  H   H67       1.0  0.42791  0.00496  0.48023  1.0000
  N   N15       1.0  0.53968  0.00867  0.49835  1.0000
  H   H68       1.0  0.56786  0.00803  0.50489  1.0000
  H   H69       1.0  0.52593  0.01894  0.54965  1.0000
  N   N16       1.0  0.58591  0.99123  0.34462  1.0000
  H   H70       1.0  0.59552  0.97291  0.39424  1.0000
