data_image0
_chemical_formula_structural       C3NC3NC5NC5NC20H18N4C6H6C6H6C8H8NC12H6C3H3NC12H6C3H3C3NC3NC5NC5NC20H18N4C6H6C6H6C8H8NC12H6C3H3NC12H6C3H3
_chemical_formula_sum              "C172 N20 H112"
_cell_length_a       31.7328
_cell_length_b       48.0747
_cell_length_c       14.968
_cell_angle_alpha    89.9312
_cell_angle_beta     90.0522
_cell_angle_gamma    89.9536

_space_group_name_H-M_alt    "P 1"
_space_group_IT_number       1

loop_
  _space_group_symop_operation_xyz
  'x, y, z'

loop_
  _atom_site_type_symbol
  _atom_site_label
  _atom_site_symmetry_multiplicity
  _atom_site_fract_x
  _atom_site_fract_y
  _atom_site_fract_z
  _atom_site_occupancy
  C   C1        1.0  0.98784  0.08833  0.30838  1.0000
  C   C2        1.0  0.94437  0.08887  0.30845  1.0000
  C   C3        1.0  0.92977  0.06151  0.30244  1.0000
  N   N1        1.0  0.96491  0.04547  0.29895  1.0000
  C   C4        1.0  0.00090  0.06061  0.30286  1.0000
  C   C5        1.0  0.04366  0.05164  0.30187  1.0000
  C   C6        1.0  0.05697  0.02346  0.29980  1.0000
  N   N2        1.0  0.03253  0.00046  0.30039  1.0000
  C   C7        1.0  0.05577  0.47689  0.29959  1.0000
  C   C8        1.0  0.09787  0.48534  0.29805  1.0000
  C   C9        1.0  0.09861  0.01405  0.29842  1.0000
  C   C10       1.0  0.04104  0.44902  0.30125  1.0000
  C   C11       1.0  0.99781  0.44113  0.30257  1.0000
  N   N3        1.0  0.96266  0.45718  0.29898  1.0000
  C   C12       1.0  0.92667  0.44203  0.30295  1.0000
  C   C13       1.0  0.93974  0.41432  0.30862  1.0000
  C   C14       1.0  0.98321  0.41377  0.30878  1.0000
  C   C15       1.0  0.88391  0.45100  0.30186  1.0000
  C   C16       1.0  0.87060  0.47918  0.29965  1.0000
  N   N4        1.0  0.89503  0.00219  0.30027  1.0000
  C   C17       1.0  0.87180  0.02575  0.29946  1.0000
  C   C18       1.0  0.82970  0.01731  0.29793  1.0000
  C   C19       1.0  0.82896  0.48860  0.29831  1.0000
  C   C20       1.0  0.88653  0.05362  0.30122  1.0000
  C   C21       1.0  0.85577  0.07520  0.30630  1.0000
  C   C22       1.0  0.79846  0.12064  0.31999  1.0000
  C   C23       1.0  0.81625  0.11328  0.23686  1.0000
  C   C24       1.0  0.84470  0.09090  0.22994  1.0000
  C   C25       1.0  0.85203  0.43019  0.30617  1.0000
  C   C26       1.0  0.79244  0.38610  0.31526  1.0000
  C   C27       1.0  0.80605  0.39652  0.23195  1.0000
  C   C28       1.0  0.83537  0.41843  0.22726  1.0000
  C   C29       1.0  0.07180  0.42744  0.30641  1.0000
  C   C30       1.0  0.08280  0.41178  0.23009  1.0000
  C   C31       1.0  0.11124  0.38938  0.23707  1.0000
  C   C32       1.0  0.12912  0.38199  0.32020  1.0000
  C   C33       1.0  0.07554  0.07246  0.30611  1.0000
  C   C34       1.0  0.09206  0.08430  0.22717  1.0000
  C   C35       1.0  0.13507  0.11658  0.31511  1.0000
  C   C36       1.0  0.12137  0.10622  0.23182  1.0000
  H   H1        1.0  0.13226  0.11485  0.17369  1.0000
  H   H2        1.0  0.08214  0.07747  0.16589  1.0000
  H   H3        1.0  0.00643  0.10564  0.31253  1.0000
  H   H4        1.0  0.92677  0.10664  0.31283  1.0000
  H   H5        1.0  0.96438  0.02558  0.29322  1.0000
  H   H6        1.0  0.96318  0.47707  0.29282  1.0000
  H   H7        1.0  0.12539  0.02586  0.29803  1.0000
  H   H8        1.0  0.12404  0.47293  0.29725  1.0000
  H   H9        1.0  0.06958  0.41626  0.16933  1.0000
  H   H10       1.0  0.11812  0.37807  0.18101  1.0000
  H   H11       1.0  0.00081  0.39601  0.31329  1.0000
  H   H12       1.0  0.92115  0.39701  0.31300  1.0000
  H   H13       1.0  0.80353  0.02972  0.29727  1.0000
  H   H14       1.0  0.80218  0.47679  0.29803  1.0000
  H   H15       1.0  0.84519  0.42532  0.16596  1.0000
  H   H16       1.0  0.79504  0.38796  0.17383  1.0000
  H   H17       1.0  0.85784  0.08643  0.16917  1.0000
  H   H18       1.0  0.80931  0.12463  0.18078  1.0000
  N   N5        1.0  0.76689  0.36415  0.31506  1.0000
  N   N6        1.0  0.15465  0.35994  0.32195  1.0000
  N   N7        1.0  0.16062  0.13852  0.31492  1.0000
  N   N8        1.0  0.77293  0.14268  0.32171  1.0000
  C   C37       1.0  0.24168  0.29305  0.28111  1.0000
  C   C38       1.0  0.21557  0.31653  0.29157  1.0000
  C   C39       1.0  0.22847  0.21403  0.27558  1.0000
  C   C40       1.0  0.20699  0.18852  0.28272  1.0000
  C   C41       1.0  0.34114  0.24505  0.26567  1.0000
  C   C42       1.0  0.38532  0.24769  0.26518  1.0000
  H   H19       1.0  0.25636  0.28969  0.22126  1.0000
  H   H20       1.0  0.21217  0.32982  0.23857  1.0000
  H   H21       1.0  0.22470  0.22591  0.21938  1.0000
  H   H22       1.0  0.18813  0.18252  0.23070  1.0000
  H   H23       1.0  0.32611  0.23759  0.21015  1.0000
  H   H24       1.0  0.40162  0.24218  0.20888  1.0000
  C   C43       1.0  0.68591  0.20965  0.28100  1.0000
  C   C44       1.0  0.71207  0.18617  0.29139  1.0000
  C   C45       1.0  0.69906  0.28866  0.27565  1.0000
  C   C46       1.0  0.72058  0.31415  0.28288  1.0000
  C   C47       1.0  0.58640  0.25763  0.26564  1.0000
  C   C48       1.0  0.54222  0.25498  0.26511  1.0000
  H   H25       1.0  0.67117  0.21306  0.22116  1.0000
  H   H26       1.0  0.71545  0.17294  0.23836  1.0000
  H   H27       1.0  0.70284  0.27681  0.21949  1.0000
  H   H28       1.0  0.73943  0.32018  0.23091  1.0000
  H   H29       1.0  0.60139  0.26515  0.21015  1.0000
  H   H30       1.0  0.52588  0.26055  0.20883  1.0000
  C   C49       1.0  0.83739  0.08208  0.38928  1.0000
  C   C50       1.0  0.80893  0.10443  0.39592  1.0000
  C   C51       1.0  0.83864  0.41977  0.38972  1.0000
  C   C52       1.0  0.80928  0.39790  0.39417  1.0000
  C   C53       1.0  0.11872  0.39817  0.39610  1.0000
  C   C54       1.0  0.09026  0.42052  0.38940  1.0000
  C   C55       1.0  0.08907  0.08279  0.38964  1.0000
  C   C56       1.0  0.11843  0.10466  0.39405  1.0000
  H   H31       1.0  0.12649  0.11237  0.45536  1.0000
  H   H32       1.0  0.07680  0.07496  0.44771  1.0000
  H   H33       1.0  0.08265  0.43147  0.44578  1.0000
  H   H34       1.0  0.13144  0.39374  0.45722  1.0000
  H   H35       1.0  0.85100  0.42754  0.44776  1.0000
  H   H36       1.0  0.80127  0.39015  0.45548  1.0000
  H   H37       1.0  0.79628  0.10883  0.45705  1.0000
  H   H38       1.0  0.84506  0.07111  0.44569  1.0000
  N   N9        1.0  0.27309  0.25023  0.34103  1.0000
  C   C57       1.0  0.25406  0.22363  0.34614  1.0000
  C   C58       1.0  0.24742  0.27412  0.35212  1.0000
  C   C59       1.0  0.31758  0.25279  0.34158  1.0000
  C   C60       1.0  0.19445  0.32169  0.37336  1.0000
  C   C61       1.0  0.20071  0.30258  0.44433  1.0000
  C   C62       1.0  0.22678  0.27916  0.43392  1.0000
  C   C63       1.0  0.21046  0.17187  0.36071  1.0000
  C   C64       1.0  0.23689  0.18155  0.43048  1.0000
  C   C65       1.0  0.25833  0.20706  0.42340  1.0000
  C   C66       1.0  0.40679  0.25822  0.34074  1.0000
  C   C67       1.0  0.38315  0.26610  0.41659  1.0000
  C   C68       1.0  0.33902  0.26318  0.41721  1.0000
  H   H39       1.0  0.18611  0.30543  0.50466  1.0000
  H   H40       1.0  0.23058  0.26571  0.48632  1.0000
  H   H41       1.0  0.27628  0.21385  0.47581  1.0000
  H   H42       1.0  0.24008  0.17039  0.48843  1.0000
  H   H43       1.0  0.39785  0.27394  0.47205  1.0000
  H   H44       1.0  0.32250  0.26889  0.47289  1.0000
  C   C69       1.0  0.45007  0.26194  0.33968  1.0000
  C   C70       1.0  0.18792  0.14722  0.37204  1.0000
  C   C71       1.0  0.16826  0.34461  0.38639  1.0000
  H   H45       1.0  0.46077  0.28140  0.34141  1.0000
  H   H46       1.0  0.19248  0.13616  0.42746  1.0000
  H   H47       1.0  0.15848  0.34868  0.44809  1.0000
  N   N10       1.0  0.65451  0.25239  0.34103  1.0000
  C   C72       1.0  0.67353  0.27900  0.34618  1.0000
  C   C73       1.0  0.68021  0.22850  0.35206  1.0000
  C   C74       1.0  0.61002  0.24982  0.34154  1.0000
  C   C75       1.0  0.73327  0.18095  0.37317  1.0000
  C   C76       1.0  0.72704  0.19998  0.44419  1.0000
  C   C77       1.0  0.70092  0.22339  0.43384  1.0000
  C   C78       1.0  0.71717  0.33073  0.36090  1.0000
  C   C79       1.0  0.69079  0.32099  0.43062  1.0000
  C   C80       1.0  0.66931  0.29550  0.42346  1.0000
  C   C81       1.0  0.52081  0.24438  0.34065  1.0000
  C   C82       1.0  0.54451  0.23643  0.41649  1.0000
  C   C83       1.0  0.58864  0.23936  0.41714  1.0000
  H   H48       1.0  0.74170  0.19709  0.50451  1.0000
  H   H49       1.0  0.69715  0.23679  0.48628  1.0000
  H   H50       1.0  0.65141  0.28865  0.47585  1.0000
  H   H51       1.0  0.68762  0.33210  0.48858  1.0000
  H   H52       1.0  0.52986  0.22853  0.47193  1.0000
  H   H53       1.0  0.60521  0.23358  0.47280  1.0000
  C   C84       1.0  0.47754  0.24065  0.33956  1.0000
  C   C85       1.0  0.73974  0.35536  0.37230  1.0000
  C   C86       1.0  0.75953  0.15804  0.38614  1.0000
  H   H54       1.0  0.46684  0.22120  0.34093  1.0000
  H   H55       1.0  0.73532  0.36632  0.42786  1.0000
  H   H56       1.0  0.76951  0.15398  0.44777  1.0000
  C   C87       1.0  0.98783  0.58833  0.30838  1.0000
  C   C88       1.0  0.94437  0.58888  0.30845  1.0000
  C   C89       1.0  0.92977  0.56152  0.30244  1.0000
  N   N11       1.0  0.96491  0.54547  0.29895  1.0000
  C   C90       1.0  0.00090  0.56061  0.30286  1.0000
  C   C91       1.0  0.04366  0.55164  0.30187  1.0000
  C   C92       1.0  0.05697  0.52346  0.29980  1.0000
  N   N12       1.0  0.03253  0.50046  0.30039  1.0000
  C   C93       1.0  0.05577  0.97689  0.29959  1.0000
  C   C94       1.0  0.09787  0.98534  0.29805  1.0000
  C   C95       1.0  0.09861  0.51405  0.29842  1.0000
  C   C96       1.0  0.04104  0.94902  0.30125  1.0000
  C   C97       1.0  0.99781  0.94113  0.30257  1.0000
  N   N13       1.0  0.96266  0.95718  0.29898  1.0000
  C   C98       1.0  0.92667  0.94203  0.30295  1.0000
  C   C99       1.0  0.93974  0.91431  0.30862  1.0000
  C   C100      1.0  0.98321  0.91377  0.30878  1.0000
  C   C101      1.0  0.88391  0.95100  0.30186  1.0000
  C   C102      1.0  0.87060  0.97918  0.29965  1.0000
  N   N14       1.0  0.89504  0.50219  0.30027  1.0000
  C   C103      1.0  0.87180  0.52575  0.29946  1.0000
  C   C104      1.0  0.82970  0.51731  0.29793  1.0000
  C   C105      1.0  0.82896  0.98859  0.29831  1.0000
  C   C106      1.0  0.88653  0.55362  0.30122  1.0000
  C   C107      1.0  0.85577  0.57520  0.30630  1.0000
  C   C108      1.0  0.79847  0.62064  0.31999  1.0000
  C   C109      1.0  0.81624  0.61328  0.23686  1.0000
  C   C110      1.0  0.84470  0.59090  0.22994  1.0000
  C   C111      1.0  0.85203  0.93019  0.30617  1.0000
  C   C112      1.0  0.79244  0.88610  0.31526  1.0000
  C   C113      1.0  0.80606  0.89651  0.23195  1.0000
  C   C114      1.0  0.83537  0.91843  0.22726  1.0000
  C   C115      1.0  0.07180  0.92744  0.30641  1.0000
  C   C116      1.0  0.08280  0.91178  0.23009  1.0000
  C   C117      1.0  0.11124  0.88938  0.23707  1.0000
  C   C118      1.0  0.12912  0.88199  0.32020  1.0000
  C   C119      1.0  0.07554  0.57246  0.30611  1.0000
  C   C120      1.0  0.09206  0.58430  0.22717  1.0000
  C   C121      1.0  0.13507  0.61658  0.31511  1.0000
  C   C122      1.0  0.12137  0.60622  0.23182  1.0000
  H   H57       1.0  0.13226  0.61485  0.17369  1.0000
  H   H58       1.0  0.08214  0.57747  0.16589  1.0000
  H   H59       1.0  0.00643  0.60564  0.31253  1.0000
  H   H60       1.0  0.92677  0.60664  0.31283  1.0000
  H   H61       1.0  0.96438  0.52558  0.29322  1.0000
  H   H62       1.0  0.96318  0.97707  0.29282  1.0000
  H   H63       1.0  0.12539  0.52586  0.29803  1.0000
  H   H64       1.0  0.12404  0.97293  0.29725  1.0000
  H   H65       1.0  0.06958  0.91627  0.16933  1.0000
  H   H66       1.0  0.11812  0.87807  0.18101  1.0000
  H   H67       1.0  0.00081  0.89601  0.31329  1.0000
  H   H68       1.0  0.92115  0.89701  0.31300  1.0000
  H   H69       1.0  0.80353  0.52972  0.29727  1.0000
  H   H70       1.0  0.80218  0.97679  0.29803  1.0000
  H   H71       1.0  0.84519  0.92532  0.16596  1.0000
  H   H72       1.0  0.79504  0.88796  0.17383  1.0000
  H   H73       1.0  0.85784  0.58643  0.16917  1.0000
  H   H74       1.0  0.80931  0.62463  0.18078  1.0000
  N   N15       1.0  0.76689  0.86415  0.31506  1.0000
  N   N16       1.0  0.15465  0.85995  0.32195  1.0000
  N   N17       1.0  0.16062  0.63852  0.31492  1.0000
  N   N18       1.0  0.77293  0.64268  0.32171  1.0000
  C   C123      1.0  0.24168  0.79304  0.28111  1.0000
  C   C124      1.0  0.21557  0.81653  0.29157  1.0000
  C   C125      1.0  0.22847  0.71403  0.27558  1.0000
  C   C126      1.0  0.20699  0.68852  0.28272  1.0000
  C   C127      1.0  0.34113  0.74505  0.26567  1.0000
  C   C128      1.0  0.38533  0.74769  0.26518  1.0000
  H   H75       1.0  0.25636  0.78969  0.22126  1.0000
  H   H76       1.0  0.21217  0.82982  0.23857  1.0000
  H   H77       1.0  0.22470  0.72591  0.21938  1.0000
  H   H78       1.0  0.18813  0.68252  0.23070  1.0000
  H   H79       1.0  0.32611  0.73759  0.21015  1.0000
  H   H80       1.0  0.40162  0.74218  0.20888  1.0000
  C   C129      1.0  0.68591  0.70965  0.28100  1.0000
  C   C130      1.0  0.71207  0.68617  0.29139  1.0000
  C   C131      1.0  0.69906  0.78866  0.27565  1.0000
  C   C132      1.0  0.72058  0.81416  0.28288  1.0000
  C   C133      1.0  0.58641  0.75763  0.26564  1.0000
  C   C134      1.0  0.54222  0.75498  0.26511  1.0000
  H   H81       1.0  0.67117  0.71306  0.22116  1.0000
  H   H82       1.0  0.71544  0.67294  0.23836  1.0000
  H   H83       1.0  0.70284  0.77681  0.21949  1.0000
  H   H84       1.0  0.73943  0.82019  0.23091  1.0000
  H   H85       1.0  0.60139  0.76515  0.21015  1.0000
  H   H86       1.0  0.52588  0.76055  0.20883  1.0000
  C   C135      1.0  0.83739  0.58208  0.38928  1.0000
  C   C136      1.0  0.80893  0.60443  0.39592  1.0000
  C   C137      1.0  0.83864  0.91977  0.38972  1.0000
  C   C138      1.0  0.80928  0.89790  0.39417  1.0000
  C   C139      1.0  0.11873  0.89817  0.39610  1.0000
  C   C140      1.0  0.09026  0.92051  0.38940  1.0000
  C   C141      1.0  0.08907  0.58279  0.38964  1.0000
  C   C142      1.0  0.11843  0.60466  0.39405  1.0000
  H   H87       1.0  0.12649  0.61237  0.45536  1.0000
  H   H88       1.0  0.07680  0.57496  0.44771  1.0000
  H   H89       1.0  0.08265  0.93147  0.44578  1.0000
  H   H90       1.0  0.13144  0.89374  0.45722  1.0000
  H   H91       1.0  0.85100  0.92754  0.44776  1.0000
  H   H92       1.0  0.80128  0.89015  0.45548  1.0000
  H   H93       1.0  0.79628  0.60883  0.45705  1.0000
  H   H94       1.0  0.84507  0.57111  0.44569  1.0000
  N   N19       1.0  0.27309  0.75023  0.34103  1.0000
  C   C143      1.0  0.25406  0.72363  0.34614  1.0000
  C   C144      1.0  0.24742  0.77412  0.35212  1.0000
  C   C145      1.0  0.31758  0.75279  0.34158  1.0000
  C   C146      1.0  0.19445  0.82169  0.37336  1.0000
  C   C147      1.0  0.20071  0.80258  0.44433  1.0000
  C   C148      1.0  0.22678  0.77916  0.43392  1.0000
  C   C149      1.0  0.21046  0.67187  0.36071  1.0000
  C   C150      1.0  0.23689  0.68155  0.43048  1.0000
  C   C151      1.0  0.25833  0.70706  0.42340  1.0000
  C   C152      1.0  0.40680  0.75822  0.34074  1.0000
  C   C153      1.0  0.38316  0.76609  0.41659  1.0000
  C   C154      1.0  0.33902  0.76318  0.41721  1.0000
  H   H95       1.0  0.18611  0.80543  0.50466  1.0000
  H   H96       1.0  0.23058  0.76571  0.48632  1.0000
  H   H97       1.0  0.27628  0.71385  0.47581  1.0000
  H   H98       1.0  0.24008  0.67039  0.48843  1.0000
  H   H99       1.0  0.39785  0.77394  0.47205  1.0000
  H   H100      1.0  0.32250  0.76889  0.47289  1.0000
  C   C155      1.0  0.45007  0.76195  0.33968  1.0000
  C   C156      1.0  0.18792  0.64722  0.37204  1.0000
  C   C157      1.0  0.16826  0.84461  0.38639  1.0000
  H   H101      1.0  0.46077  0.78140  0.34141  1.0000
  H   H102      1.0  0.19248  0.63616  0.42746  1.0000
  H   H103      1.0  0.15848  0.84868  0.44809  1.0000
  N   N20       1.0  0.65451  0.75240  0.34103  1.0000
  C   C158      1.0  0.67353  0.77900  0.34618  1.0000
  C   C159      1.0  0.68021  0.72851  0.35206  1.0000
  C   C160      1.0  0.61003  0.74982  0.34154  1.0000
  C   C161      1.0  0.73327  0.68095  0.37317  1.0000
  C   C162      1.0  0.72704  0.69998  0.44419  1.0000
  C   C163      1.0  0.70092  0.72339  0.43384  1.0000
  C   C164      1.0  0.71717  0.83072  0.36090  1.0000
  C   C165      1.0  0.69079  0.82099  0.43062  1.0000
  C   C166      1.0  0.66930  0.79550  0.42346  1.0000
  C   C167      1.0  0.52081  0.74438  0.34065  1.0000
  C   C168      1.0  0.54451  0.73643  0.41649  1.0000
  C   C169      1.0  0.58864  0.73936  0.41714  1.0000
  H   H104      1.0  0.74170  0.69709  0.50451  1.0000
  H   H105      1.0  0.69715  0.73679  0.48628  1.0000
  H   H106      1.0  0.65141  0.78866  0.47585  1.0000
  H   H107      1.0  0.68762  0.83210  0.48858  1.0000
  H   H108      1.0  0.52986  0.72853  0.47193  1.0000
  H   H109      1.0  0.60521  0.73359  0.47280  1.0000
  C   C170      1.0  0.47754  0.74065  0.33956  1.0000
  C   C171      1.0  0.73974  0.85536  0.37230  1.0000
  C   C172      1.0  0.75952  0.65804  0.38614  1.0000
  H   H110      1.0  0.46684  0.72120  0.34093  1.0000
  H   H111      1.0  0.73532  0.86632  0.42786  1.0000
  H   H112      1.0  0.76951  0.65398  0.44777  1.0000
