data_image0
_chemical_formula_structural       C3NC3NC5NC5NC20H18N4C3NC3NC5NC5NC20H18N4C3NC3NC5NC5NC20H18N5C2OCH3CHNC2OCH3CHNC2OCH3CHNC2OCH3CHNC2OCH3CHNC2OCH3CHC8H8C8H8C8H8CNCOCH3CHCNCOCH3CHCNCOCH3CHCNCOCH3CHCNCOCH3CHCNCOCH3CH
_chemical_formula_sum              "C180 N36 H126 O12"
_cell_length_a       50.5046
_cell_length_b       50.5045
_cell_length_c       14.8311
_cell_angle_alpha    90.0974
_cell_angle_beta     89.9026
_cell_angle_gamma    120

_space_group_name_H-M_alt    "P 1"
_space_group_IT_number       1

loop_
  _space_group_symop_operation_xyz
  'x, y, z'

loop_
  _atom_site_type_symbol
  _atom_site_label
  _atom_site_symmetry_multiplicity
  _atom_site_fract_x
  _atom_site_fract_y
  _atom_site_fract_z
  _atom_site_occupancy
  C   C1        1.0  0.05203  0.65361  0.33179  1.0000
  C   C2        1.0  0.02040  0.63772  0.33013  1.0000
  C   C3        1.0  0.01043  0.60647  0.32652  1.0000
  N   N1        1.0  0.03638  0.60467  0.32577  1.0000
  C   C4        1.0  0.06221  0.63249  0.32896  1.0000
  C   C5        1.0  0.09343  0.64003  0.32905  1.0000
  C   C6        1.0  0.10338  0.61817  0.32650  1.0000
  N   N2        1.0  0.08621  0.58728  0.32654  1.0000
  C   C7        1.0  0.10355  0.57376  0.32402  1.0000
  C   C8        1.0  0.13387  0.59761  0.32191  1.0000
  C   C9        1.0  0.13377  0.62486  0.32376  1.0000
  C   C10       1.0  0.09382  0.54200  0.32434  1.0000
  C   C11       1.0  0.06265  0.51819  0.32653  1.0000
  N   N3        1.0  0.03671  0.51999  0.32580  1.0000
  C   C12       1.0  0.01088  0.49218  0.32903  1.0000
  C   C13       1.0  0.02105  0.47106  0.33193  1.0000
  C   C14       1.0  0.05268  0.48694  0.33022  1.0000
  C   C15       1.0  0.97965  0.48464  0.32907  1.0000
  C   C16       1.0  0.96970  0.50649  0.32650  1.0000
  N   N4        1.0  0.98688  0.53738  0.32656  1.0000
  C   C17       1.0  0.96953  0.55090  0.32404  1.0000
  C   C18       1.0  0.93921  0.52704  0.32194  1.0000
  C   C19       1.0  0.93932  0.49979  0.32380  1.0000
  C   C20       1.0  0.97926  0.58266  0.32443  1.0000
  C   C21       1.0  0.95581  0.59074  0.32461  1.0000
  C   C22       1.0  0.90299  0.59786  0.32314  1.0000
  C   C23       1.0  0.91836  0.59892  0.24235  1.0000
  C   C24       1.0  0.94422  0.59516  0.24280  1.0000
  C   C25       1.0  0.95635  0.45307  0.33200  1.0000
  C   C26       1.0  0.90355  0.39315  0.33637  1.0000
  C   C27       1.0  0.91756  0.40716  0.25357  1.0000
  C   C28       1.0  0.94354  0.43667  0.25138  1.0000
  C   C29       1.0  0.11727  0.53392  0.32457  1.0000
  C   C30       1.0  0.12893  0.52945  0.24279  1.0000
  C   C31       1.0  0.15475  0.52562  0.24243  1.0000
  C   C32       1.0  0.16994  0.52655  0.32331  1.0000
  C   C33       1.0  0.11674  0.67160  0.33187  1.0000
  C   C34       1.0  0.12956  0.68794  0.25123  1.0000
  C   C35       1.0  0.16963  0.73145  0.33607  1.0000
  C   C36       1.0  0.15559  0.71742  0.25332  1.0000
  H   H1        1.0  0.16497  0.72792  0.19341  1.0000
  H   H2        1.0  0.12084  0.67791  0.19013  1.0000
  H   H3        1.0  0.06521  0.67690  0.33453  1.0000
  H   H4        1.0  0.00710  0.64771  0.33176  1.0000
  H   H5        1.0  0.03646  0.58572  0.32238  1.0000
  H   H6        1.0  0.03663  0.53894  0.32212  1.0000
  H   H7        1.0  0.15301  0.64597  0.32273  1.0000
  H   H8        1.0  0.15320  0.59591  0.31970  1.0000
  H   H9        1.0  0.11932  0.53001  0.18261  1.0000
  H   H10       1.0  0.16305  0.52315  0.18188  1.0000
  H   H11       1.0  0.06599  0.47696  0.33183  1.0000
  H   H12       1.0  0.00787  0.44777  0.33465  1.0000
  H   H13       1.0  0.91988  0.52874  0.31979  1.0000
  H   H14       1.0  0.92008  0.47869  0.32281  1.0000
  H   H15       1.0  0.95227  0.44665  0.19026  1.0000
  H   H16       1.0  0.90823  0.39658  0.19369  1.0000
  H   H17       1.0  0.95396  0.59469  0.18267  1.0000
  H   H18       1.0  0.91012  0.60135  0.18178  1.0000
  N   N5        1.0  0.87739  0.36640  0.34308  1.0000
  N   N6        1.0  0.19517  0.52416  0.31711  1.0000
  N   N7        1.0  0.19587  0.75813  0.34276  1.0000
  N   N8        1.0  0.87770  0.60013  0.31688  1.0000
  C   C37       1.0  0.44481  0.48564  0.33067  1.0000
  C   C38       1.0  0.46069  0.46990  0.32892  1.0000
  C   C39       1.0  0.49194  0.49117  0.32536  1.0000
  N   N9        1.0  0.49375  0.51892  0.32468  1.0000
  C   C40       1.0  0.46593  0.51694  0.32791  1.0000
  C   C41       1.0  0.45839  0.54063  0.32807  1.0000
  C   C42       1.0  0.48025  0.57243  0.32550  1.0000
  N   N10       1.0  0.51114  0.58614  0.32547  1.0000
  C   C43       1.0  0.52466  0.61701  0.32301  1.0000
  C   C44       1.0  0.50080  0.62347  0.32100  1.0000
  C   C45       1.0  0.47355  0.59612  0.32283  1.0000
  C   C46       1.0  0.55642  0.63904  0.32333  1.0000
  C   C47       1.0  0.58023  0.63168  0.32540  1.0000
  N   N11       1.0  0.57842  0.60393  0.32468  1.0000
  C   C48       1.0  0.60624  0.60592  0.32793  1.0000
  C   C49       1.0  0.62736  0.63722  0.33073  1.0000
  C   C50       1.0  0.61147  0.65296  0.32900  1.0000
  C   C51       1.0  0.61378  0.58223  0.32807  1.0000
  C   C52       1.0  0.59193  0.55043  0.32550  1.0000
  N   N12       1.0  0.56104  0.53671  0.32546  1.0000
  C   C53       1.0  0.54752  0.50585  0.32298  1.0000
  C   C54       1.0  0.57138  0.49939  0.32099  1.0000
  C   C55       1.0  0.59862  0.52674  0.32286  1.0000
  C   C56       1.0  0.51576  0.48382  0.32325  1.0000
  C   C57       1.0  0.50769  0.45229  0.32344  1.0000
  C   C58       1.0  0.50053  0.39234  0.32217  1.0000
  C   C59       1.0  0.49965  0.40662  0.24128  1.0000
  C   C60       1.0  0.50340  0.43624  0.24163  1.0000
  C   C61       1.0  0.64534  0.59051  0.33106  1.0000
  C   C62       1.0  0.70528  0.59768  0.33569  1.0000
  C   C63       1.0  0.69130  0.59758  0.25283  1.0000
  C   C64       1.0  0.66179  0.59405  0.25052  1.0000
  C   C65       1.0  0.56450  0.67057  0.32357  1.0000
  C   C66       1.0  0.56895  0.68661  0.24179  1.0000
  C   C67       1.0  0.57279  0.71627  0.24146  1.0000
  C   C68       1.0  0.57186  0.73061  0.32236  1.0000
  C   C69       1.0  0.42683  0.53237  0.33100  1.0000
  C   C70       1.0  0.41046  0.52878  0.25042  1.0000
  C   C71       1.0  0.36699  0.52544  0.33548  1.0000
  C   C72       1.0  0.38101  0.52540  0.25266  1.0000
  H   H19       1.0  0.37047  0.52419  0.19279  1.0000
  H   H20       1.0  0.42047  0.53006  0.18927  1.0000
  H   H21       1.0  0.42152  0.47553  0.33341  1.0000
  H   H22       1.0  0.45071  0.44661  0.33053  1.0000
  H   H23       1.0  0.51270  0.53796  0.32131  1.0000
  H   H24       1.0  0.55947  0.58490  0.32129  1.0000
  H   H25       1.0  0.45245  0.59425  0.32198  1.0000
  H   H26       1.0  0.50250  0.64450  0.31893  1.0000
  H   H27       1.0  0.56838  0.67639  0.18160  1.0000
  H   H28       1.0  0.57523  0.72697  0.18092  1.0000
  H   H29       1.0  0.62145  0.67625  0.33066  1.0000
  H   H30       1.0  0.65065  0.64733  0.33349  1.0000
  H   H31       1.0  0.56968  0.47836  0.31881  1.0000
  H   H32       1.0  0.61973  0.52861  0.32191  1.0000
  H   H33       1.0  0.65184  0.59274  0.18935  1.0000
  H   H34       1.0  0.70190  0.59878  0.19299  1.0000
  H   H35       1.0  0.50400  0.44642  0.18146  1.0000
  H   H36       1.0  0.49729  0.39589  0.18072  1.0000
  N   N13       1.0  0.73201  0.59822  0.34253  1.0000
  N   N14       1.0  0.57425  0.75822  0.31619  1.0000
  N   N15       1.0  0.34031  0.52500  0.34229  1.0000
  N   N16       1.0  0.49826  0.36477  0.31602  1.0000
  C   C73       1.0  0.61276  0.04638  0.33099  1.0000
  C   C74       1.0  0.62851  0.07801  0.32932  1.0000
  C   C75       1.0  0.60724  0.08799  0.32569  1.0000
  N   N17       1.0  0.57949  0.06205  0.32488  1.0000
  C   C76       1.0  0.58147  0.03621  0.32808  1.0000
  C   C77       1.0  0.55777  0.00499  0.32811  1.0000
  C   C78       1.0  0.52598  0.99505  0.32554  1.0000
  N   N18       1.0  0.51226  0.01222  0.32564  1.0000
  C   C79       1.0  0.48139  0.99488  0.32316  1.0000
  C   C80       1.0  0.47493  0.96456  0.32107  1.0000
  C   C81       1.0  0.50228  0.96466  0.32283  1.0000
  C   C82       1.0  0.45937  0.00462  0.32358  1.0000
  C   C83       1.0  0.46673  0.03579  0.32571  1.0000
  N   N19       1.0  0.49449  0.06173  0.32494  1.0000
  C   C84       1.0  0.49251  0.08757  0.32819  1.0000
  C   C85       1.0  0.46121  0.07740  0.33107  1.0000
  C   C86       1.0  0.44546  0.04577  0.32937  1.0000
  C   C87       1.0  0.51620  0.11879  0.32829  1.0000
  C   C88       1.0  0.54800  0.12873  0.32573  1.0000
  N   N20       1.0  0.56171  0.11155  0.32578  1.0000
  C   C89       1.0  0.59258  0.12890  0.32329  1.0000
  C   C90       1.0  0.59905  0.15921  0.32120  1.0000
  C   C91       1.0  0.57169  0.15912  0.32300  1.0000
  C   C92       1.0  0.61460  0.11916  0.32364  1.0000
  C   C93       1.0  0.64613  0.14261  0.32388  1.0000
  C   C94       1.0  0.70609  0.19542  0.32269  1.0000
  C   C95       1.0  0.69188  0.18009  0.24182  1.0000
  C   C96       1.0  0.66226  0.15422  0.24214  1.0000
  C   C97       1.0  0.50793  0.14209  0.33118  1.0000
  C   C98       1.0  0.50075  0.19485  0.33560  1.0000
  C   C99       1.0  0.50083  0.18085  0.25279  1.0000
  C   C100      1.0  0.50435  0.15486  0.25058  1.0000
  C   C101      1.0  0.42784  0.98118  0.32390  1.0000
  C   C102      1.0  0.41177  0.96946  0.24219  1.0000
  C   C103      1.0  0.38210  0.94366  0.24198  1.0000
  C   C104      1.0  0.36780  0.92849  0.32292  1.0000
  C   C105      1.0  0.56602  0.98168  0.33094  1.0000
  C   C106      1.0  0.56962  0.96885  0.25029  1.0000
  C   C107      1.0  0.57295  0.92877  0.33515  1.0000
  C   C108      1.0  0.57304  0.94281  0.25240  1.0000
  H   H37       1.0  0.57429  0.93347  0.19249  1.0000
  H   H38       1.0  0.56841  0.97759  0.18919  1.0000
  H   H39       1.0  0.62287  0.03320  0.33378  1.0000
  H   H40       1.0  0.65180  0.09131  0.33109  1.0000
  H   H41       1.0  0.56046  0.06197  0.32133  1.0000
  H   H42       1.0  0.51352  0.06181  0.32149  1.0000
  H   H43       1.0  0.50414  0.94541  0.32184  1.0000
  H   H44       1.0  0.45390  0.94524  0.31892  1.0000
  H   H45       1.0  0.42195  0.97907  0.18197  1.0000
  H   H46       1.0  0.37137  0.93532  0.18147  1.0000
  H   H47       1.0  0.42218  0.03247  0.33106  1.0000
  H   H48       1.0  0.45110  0.09058  0.33385  1.0000
  H   H49       1.0  0.62007  0.17854  0.31898  1.0000
  H   H50       1.0  0.56983  0.17836  0.32202  1.0000
  H   H51       1.0  0.50570  0.14616  0.18945  1.0000
  H   H52       1.0  0.49965  0.19019  0.19293  1.0000
  H   H53       1.0  0.65213  0.14450  0.18197  1.0000
  H   H54       1.0  0.70266  0.18833  0.18130  1.0000
  N   N21       1.0  0.50017  0.22102  0.34233  1.0000
  N   N22       1.0  0.34019  0.90326  0.31685  1.0000
  N   N23       1.0  0.57339  0.90253  0.34184  1.0000
  N   N24       1.0  0.73366  0.22069  0.31656  1.0000
  N   N25       1.0  0.24769  0.52193  0.26596  1.0000
  C   C109      1.0  0.27192  0.51880  0.24072  1.0000
  C   C110      1.0  0.29254  0.52002  0.30760  1.0000
  O   O1        1.0  0.27511  0.51404  0.15146  1.0000
  C   C111      1.0  0.29216  0.54201  0.10163  1.0000
  H   H55       1.0  0.29482  0.53620  0.03268  1.0000
  H   H56       1.0  0.31501  0.55642  0.12972  1.0000
  H   H57       1.0  0.28005  0.55488  0.09961  1.0000
  C   C112      1.0  0.31796  0.51725  0.28696  1.0000
  H   H58       1.0  0.31917  0.50962  0.22621  1.0000
  N   N26       1.0  0.57645  0.81293  0.26518  1.0000
  C   C113      1.0  0.57958  0.84027  0.24002  1.0000
  C   C114      1.0  0.57838  0.85973  0.30698  1.0000
  O   O2        1.0  0.58433  0.84815  0.15078  1.0000
  C   C115      1.0  0.55634  0.83719  0.10101  1.0000
  H   H59       1.0  0.56214  0.84561  0.03207  1.0000
  H   H60       1.0  0.54195  0.84565  0.12919  1.0000
  H   H61       1.0  0.54348  0.81222  0.09894  1.0000
  C   C116      1.0  0.58114  0.88790  0.28644  1.0000
  H   H62       1.0  0.58879  0.89671  0.22572  1.0000
  N   N27       1.0  0.28544  0.85074  0.26601  1.0000
  C   C117      1.0  0.25810  0.82651  0.24090  1.0000
  C   C118      1.0  0.23867  0.80588  0.30787  1.0000
  O   O3        1.0  0.25016  0.82330  0.15170  1.0000
  C   C119      1.0  0.26111  0.80626  0.10170  1.0000
  H   H63       1.0  0.25267  0.80361  0.03282  1.0000
  H   H64       1.0  0.25267  0.78342  0.12977  1.0000
  H   H65       1.0  0.28608  0.81837  0.09955  1.0000
  C   C120      1.0  0.21049  0.78047  0.28738  1.0000
  H   H66       1.0  0.20167  0.77924  0.22667  1.0000
  N   N28       1.0  0.82496  0.60195  0.26578  1.0000
  C   C121      1.0  0.80070  0.60501  0.24080  1.0000
  C   C122      1.0  0.77996  0.60361  0.30782  1.0000
  O   O4        1.0  0.79756  0.60987  0.15168  1.0000
  C   C123      1.0  0.78052  0.58195  0.10147  1.0000
  H   H67       1.0  0.77790  0.58784  0.03268  1.0000
  H   H68       1.0  0.75766  0.56753  0.12954  1.0000
  H   H69       1.0  0.79262  0.56907  0.09903  1.0000
  C   C124      1.0  0.75451  0.60630  0.28743  1.0000
  H   H70       1.0  0.75341  0.61416  0.22704  1.0000
  N   N29       1.0  0.49631  0.31009  0.26527  1.0000
  C   C125      1.0  0.49326  0.28274  0.24040  1.0000
  C   C126      1.0  0.49475  0.26353  0.30745  1.0000
  O   O5        1.0  0.48831  0.27459  0.15134  1.0000
  C   C127      1.0  0.51618  0.28539  0.10087  1.0000
  H   H71       1.0  0.51022  0.27677  0.03214  1.0000
  H   H72       1.0  0.53063  0.27700  0.12882  1.0000
  H   H73       1.0  0.52905  0.31035  0.09831  1.0000
  C   C128      1.0  0.49208  0.23537  0.28717  1.0000
  H   H74       1.0  0.48423  0.22633  0.22678  1.0000
  N   N30       1.0  0.78834  0.27342  0.26581  1.0000
  C   C129      1.0  0.81571  0.29769  0.24102  1.0000
  C   C130      1.0  0.83490  0.31843  0.30814  1.0000
  O   O6        1.0  0.82389  0.30082  0.15198  1.0000
  C   C131      1.0  0.81314  0.31789  0.10154  1.0000
  H   H75       1.0  0.82178  0.32049  0.03283  1.0000
  H   H76       1.0  0.82154  0.34075  0.12955  1.0000
  H   H77       1.0  0.78818  0.30581  0.09889  1.0000
  C   C132      1.0  0.86307  0.34390  0.28792  1.0000
  H   H78       1.0  0.87215  0.34503  0.22760  1.0000
  C   C133      1.0  0.94107  0.59057  0.40589  1.0000
  C   C134      1.0  0.91517  0.59422  0.40518  1.0000
  C   C135      1.0  0.94262  0.43906  0.41480  1.0000
  C   C136      1.0  0.91660  0.40957  0.41675  1.0000
  C   C137      1.0  0.15769  0.53024  0.40531  1.0000
  C   C138      1.0  0.13185  0.53401  0.40592  1.0000
  C   C139      1.0  0.13048  0.68565  0.41463  1.0000
  C   C140      1.0  0.15654  0.71511  0.41649  1.0000
  H   H79       1.0  0.16652  0.72422  0.47733  1.0000
  H   H80       1.0  0.12236  0.67398  0.47396  1.0000
  H   H81       1.0  0.12430  0.53776  0.46608  1.0000
  H   H82       1.0  0.16775  0.53077  0.46550  1.0000
  H   H83       1.0  0.95075  0.45076  0.47411  1.0000
  H   H84       1.0  0.90667  0.40045  0.47764  1.0000
  H   H85       1.0  0.90497  0.59360  0.46531  1.0000
  H   H86       1.0  0.94853  0.58679  0.46605  1.0000
  C   C141      1.0  0.50767  0.43776  0.40482  1.0000
  C   C142      1.0  0.50403  0.40820  0.40419  1.0000
  C   C143      1.0  0.65932  0.59086  0.41392  1.0000
  C   C144      1.0  0.68881  0.59433  0.41598  1.0000
  C   C145      1.0  0.56819  0.71474  0.40435  1.0000
  C   C146      1.0  0.56443  0.68515  0.40494  1.0000
  C   C147      1.0  0.41280  0.53212  0.41384  1.0000
  C   C148      1.0  0.38335  0.52873  0.41583  1.0000
  H   H87       1.0  0.37425  0.52963  0.47673  1.0000
  H   H88       1.0  0.42448  0.53570  0.47311  1.0000
  H   H89       1.0  0.56067  0.67389  0.46509  1.0000
  H   H90       1.0  0.56766  0.72433  0.46455  1.0000
  H   H91       1.0  0.64758  0.58727  0.47317  1.0000
  H   H92       1.0  0.69788  0.59352  0.47692  1.0000
  H   H93       1.0  0.50450  0.39864  0.46439  1.0000
  H   H94       1.0  0.51135  0.44904  0.46498  1.0000
  C   C149      1.0  0.66059  0.15731  0.40524  1.0000
  C   C150      1.0  0.69015  0.18320  0.40466  1.0000
  C   C151      1.0  0.50759  0.15583  0.41400  1.0000
  C   C152      1.0  0.50407  0.18182  0.41597  1.0000
  C   C153      1.0  0.38370  0.94079  0.40485  1.0000
  C   C154      1.0  0.41330  0.96661  0.40531  1.0000
  C   C155      1.0  0.56625  0.96794  0.41371  1.0000
  C   C156      1.0  0.56960  0.94185  0.41556  1.0000
  H   H95       1.0  0.56870  0.93189  0.47641  1.0000
  H   H96       1.0  0.56263  0.97605  0.47301  1.0000
  H   H97       1.0  0.42458  0.97419  0.46543  1.0000
  H   H98       1.0  0.37415  0.93073  0.46509  1.0000
  H   H99       1.0  0.51112  0.14771  0.47330  1.0000
  H   H100      1.0  0.50487  0.19178  0.47686  1.0000
  H   H101      1.0  0.69966  0.19337  0.46484  1.0000
  H   H102      1.0  0.64927  0.14982  0.46536  1.0000
  C   C157      1.0  0.24182  0.52650  0.35247  1.0000
  N   N31       1.0  0.28669  0.52463  0.39408  1.0000
  C   C158      1.0  0.26239  0.52760  0.41939  1.0000
  O   O7        1.0  0.25940  0.53269  0.50853  1.0000
  C   C159      1.0  0.24191  0.50487  0.55871  1.0000
  H   H103      1.0  0.25354  0.49155  0.56089  1.0000
  H   H104      1.0  0.21897  0.49082  0.53080  1.0000
  H   H105      1.0  0.23948  0.51092  0.62759  1.0000
  C   C160      1.0  0.21717  0.53058  0.37272  1.0000
  H   H106      1.0  0.21687  0.53933  0.43247  1.0000
  C   C161      1.0  0.57190  0.80256  0.35167  1.0000
  N   N32       1.0  0.57379  0.84934  0.39344  1.0000
  C   C162      1.0  0.57081  0.82207  0.41866  1.0000
  O   O8        1.0  0.56577  0.81409  0.50779  1.0000
  C   C163      1.0  0.59361  0.82446  0.55785  1.0000
  H   H107      1.0  0.60693  0.84941  0.56006  1.0000
  H   H108      1.0  0.60765  0.81555  0.52983  1.0000
  H   H109      1.0  0.58760  0.81604  0.62673  1.0000
  C   C164      1.0  0.56783  0.77385  0.37184  1.0000
  H   H110      1.0  0.55907  0.76484  0.43157  1.0000
  C   C165      1.0  0.29585  0.85662  0.35245  1.0000
  N   N33       1.0  0.24910  0.81175  0.39429  1.0000
  C   C166      1.0  0.27637  0.83606  0.41946  1.0000
  O   O9        1.0  0.28441  0.83905  0.50854  1.0000
  C   C167      1.0  0.27406  0.85653  0.55887  1.0000
  H   H111      1.0  0.24910  0.84488  0.56119  1.0000
  H   H112      1.0  0.28294  0.87946  0.53098  1.0000
  H   H113      1.0  0.28250  0.85896  0.62769  1.0000
  C   C168      1.0  0.32458  0.88128  0.37255  1.0000
  H   H114      1.0  0.33359  0.88161  0.43229  1.0000
  C   C169      1.0  0.83077  0.59729  0.35214  1.0000
  N   N34       1.0  0.78576  0.59892  0.39416  1.0000
  C   C170      1.0  0.81010  0.59601  0.41920  1.0000
  O   O10       1.0  0.81304  0.59086  0.50821  1.0000
  C   C171      1.0  0.83055  0.61863  0.55868  1.0000
  H   H115      1.0  0.83295  0.61253  0.62740  1.0000
  H   H116      1.0  0.81894  0.63197  0.56126  1.0000
  H   H117      1.0  0.85349  0.63268  0.53074  1.0000
  C   C172      1.0  0.85546  0.59328  0.37213  1.0000
  H   H118      1.0  0.85559  0.58423  0.43141  1.0000
  C   C173      1.0  0.50105  0.32071  0.35157  1.0000
  N   N35       1.0  0.49952  0.27417  0.39373  1.0000
  C   C174      1.0  0.50242  0.30145  0.41867  1.0000
  O   O11       1.0  0.50768  0.30970  0.50761  1.0000
  C   C175      1.0  0.47997  0.29949  0.55839  1.0000
  H   H119      1.0  0.46665  0.27454  0.56113  1.0000
  H   H120      1.0  0.46586  0.30831  0.53061  1.0000
  H   H121      1.0  0.48615  0.30811  0.62705  1.0000
  C   C176      1.0  0.50505  0.34943  0.37144  1.0000
  H   H122      1.0  0.51405  0.35868  0.43076  1.0000
  C   C177      1.0  0.77770  0.26761  0.35207  1.0000
  N   N36       1.0  0.82424  0.31264  0.39438  1.0000
  C   C178      1.0  0.79694  0.28829  0.41924  1.0000
  O   O12       1.0  0.78866  0.28536  0.50816  1.0000
  C   C179      1.0  0.79878  0.26781  0.55886  1.0000
  H   H123      1.0  0.79014  0.26543  0.62750  1.0000
  H   H124      1.0  0.82373  0.27938  0.56166  1.0000
  H   H125      1.0  0.78990  0.24486  0.53096  1.0000
  C   C180      1.0  0.74895  0.24293  0.37187  1.0000
  H   H126      1.0  0.73965  0.24280  0.43103  1.0000
