data_image0
_chemical_formula_structural       NCOC2NCHNCHCHCNCNCNC18H12CNCNCNC18H12C2NC2O2HC2NC2O2HCNOH
_chemical_formula_sum              "N12 C57 O6 H30"
_cell_length_a       29.3213
_cell_length_b       29.3214
_cell_length_c       14.9344
_cell_angle_alpha    90
_cell_angle_beta     90
_cell_angle_gamma    120

_space_group_name_H-M_alt    "P 1"
_space_group_IT_number       1

loop_
  _space_group_symop_operation_xyz
  'x, y, z'

loop_
  _atom_site_type_symbol
  _atom_site_label
  _atom_site_symmetry_multiplicity
  _atom_site_fract_x
  _atom_site_fract_y
  _atom_site_fract_z
  _atom_site_occupancy
  N   N1        1.0  0.03216  0.51663  0.26673  1.0000
  C   C1        1.0  0.02811  0.51461  0.42725  1.0000
  O   O1        1.0  0.01496  0.50803  0.57748  1.0000
  C   C2        1.0  0.04674  0.52393  0.51585  1.0000
  C   C3        1.0  0.05811  0.52960  0.34646  1.0000
  N   N2        1.0  0.48886  0.51663  0.26673  1.0000
  C   C4        1.0  0.51543  0.49006  0.25901  1.0000
  H   H1        1.0  0.52395  0.48154  0.19700  1.0000
  N   N3        1.0  0.48887  0.97333  0.26673  1.0000
  C   C5        1.0  0.51545  0.02648  0.25902  1.0000
  H   H2        1.0  0.52397  0.04351  0.19701  1.0000
  C   C6        1.0  0.97901  0.49005  0.25902  1.0000
  H   H3        1.0  0.96198  0.48153  0.19700  1.0000
  C   C7        1.0  0.36383  0.72327  0.33084  1.0000
  N   N4        1.0  0.38934  0.69522  0.33099  1.0000
  C   C8        1.0  0.36383  0.64166  0.33085  1.0000
  N   N5        1.0  0.31027  0.61615  0.33099  1.0000
  C   C9        1.0  0.28222  0.64166  0.33083  1.0000
  N   N6        1.0  0.31027  0.69521  0.33098  1.0000
  C   C10       1.0  0.39196  0.61353  0.33235  1.0000
  C   C11       1.0  0.44781  0.64040  0.33368  1.0000
  C   C12       1.0  0.47560  0.61279  0.33729  1.0000
  C   C13       1.0  0.44821  0.55728  0.34013  1.0000
  C   C14       1.0  0.39270  0.52989  0.33729  1.0000
  C   C15       1.0  0.36510  0.55768  0.33367  1.0000
  C   C16       1.0  0.39196  0.77953  0.33233  1.0000
  C   C17       1.0  0.44781  0.80852  0.33364  1.0000
  C   C18       1.0  0.47560  0.86391  0.33724  1.0000
  C   C19       1.0  0.44821  0.89202  0.34012  1.0000
  C   C20       1.0  0.39270  0.86391  0.33729  1.0000
  C   C21       1.0  0.36509  0.80852  0.33367  1.0000
  C   C22       1.0  0.22597  0.61353  0.33233  1.0000
  C   C23       1.0  0.19697  0.64040  0.33367  1.0000
  C   C24       1.0  0.14158  0.61279  0.33725  1.0000
  C   C25       1.0  0.11347  0.55728  0.34011  1.0000
  C   C26       1.0  0.14158  0.52989  0.33726  1.0000
  C   C27       1.0  0.19697  0.55768  0.33365  1.0000
  H   H4        1.0  0.51591  0.88347  0.33926  1.0000
  H   H5        1.0  0.46920  0.78964  0.33283  1.0000
  H   H6        1.0  0.37196  0.88347  0.33930  1.0000
  H   H7        1.0  0.32483  0.78964  0.33286  1.0000
  H   H8        1.0  0.21585  0.68066  0.33283  1.0000
  H   H9        1.0  0.12201  0.63353  0.33927  1.0000
  H   H10       1.0  0.21585  0.53629  0.33285  1.0000
  H   H11       1.0  0.12201  0.48958  0.33928  1.0000
  H   H12       1.0  0.32483  0.53629  0.33285  1.0000
  H   H13       1.0  0.37196  0.48958  0.33928  1.0000
  H   H14       1.0  0.51591  0.63353  0.33928  1.0000
  H   H15       1.0  0.46920  0.68066  0.33285  1.0000
  C   C28       1.0  0.64276  0.28113  0.33782  1.0000
  N   N7        1.0  0.61725  0.30917  0.33780  1.0000
  C   C29       1.0  0.64276  0.36273  0.33782  1.0000
  N   N8        1.0  0.69631  0.38824  0.33780  1.0000
  C   C30       1.0  0.72436  0.36273  0.33782  1.0000
  N   N9        1.0  0.69632  0.30917  0.33780  1.0000
  C   C31       1.0  0.61463  0.39086  0.33758  1.0000
  C   C32       1.0  0.55877  0.36400  0.33746  1.0000
  C   C33       1.0  0.53097  0.39164  0.33715  1.0000
  C   C34       1.0  0.55833  0.44715  0.33665  1.0000
  C   C35       1.0  0.61385  0.47452  0.33715  1.0000
  C   C36       1.0  0.64149  0.44672  0.33746  1.0000
  C   C37       1.0  0.61463  0.22487  0.33758  1.0000
  C   C38       1.0  0.55877  0.19586  0.33747  1.0000
  C   C39       1.0  0.53097  0.14043  0.33716  1.0000
  C   C40       1.0  0.55834  0.11228  0.33666  1.0000
  C   C41       1.0  0.61385  0.14043  0.33715  1.0000
  C   C42       1.0  0.64149  0.19586  0.33746  1.0000
  C   C43       1.0  0.78062  0.39086  0.33758  1.0000
  C   C44       1.0  0.80963  0.36400  0.33747  1.0000
  C   C45       1.0  0.86506  0.39164  0.33715  1.0000
  C   C46       1.0  0.89321  0.44715  0.33666  1.0000
  C   C47       1.0  0.86506  0.47452  0.33715  1.0000
  C   C48       1.0  0.80963  0.44672  0.33747  1.0000
  H   H16       1.0  0.49065  0.12083  0.33733  1.0000
  H   H17       1.0  0.53739  0.21474  0.33773  1.0000
  H   H18       1.0  0.63458  0.12083  0.33732  1.0000
  H   H19       1.0  0.68175  0.21474  0.33772  1.0000
  H   H20       1.0  0.79075  0.32374  0.33772  1.0000
  H   H21       1.0  0.88466  0.37091  0.33732  1.0000
  H   H22       1.0  0.79075  0.46811  0.33773  1.0000
  H   H23       1.0  0.88466  0.51485  0.33733  1.0000
  H   H24       1.0  0.68175  0.46811  0.33772  1.0000
  H   H25       1.0  0.63458  0.51485  0.33732  1.0000
  H   H26       1.0  0.49064  0.37091  0.33731  1.0000
  H   H27       1.0  0.53739  0.32374  0.33772  1.0000
  C   C49       1.0  0.47589  0.52960  0.34647  1.0000
  C   C50       1.0  0.53062  0.47487  0.33764  1.0000
  N   N10       1.0  0.51762  0.48787  0.41692  1.0000
  C   C51       1.0  0.49089  0.51460  0.42725  1.0000
  C   C52       1.0  0.48158  0.52392  0.51586  1.0000
  O   O2        1.0  0.49748  0.50804  0.57748  1.0000
  O   O3        1.0  0.45861  0.54688  0.54290  1.0000
  H   H28       1.0  0.44419  0.56126  0.51059  1.0000
  C   C53       1.0  0.47589  0.94738  0.34646  1.0000
  C   C54       1.0  0.53063  0.05685  0.33765  1.0000
  N   N11       1.0  0.51761  0.03084  0.41693  1.0000
  C   C55       1.0  0.49088  0.97738  0.42725  1.0000
  C   C56       1.0  0.48155  0.95875  0.51586  1.0000
  O   O4        1.0  0.49740  0.99052  0.57748  1.0000
  O   O5        1.0  0.45862  0.91281  0.54289  1.0000
  H   H29       1.0  0.44431  0.88402  0.51057  1.0000
  C   C57       1.0  0.94864  0.47487  0.33764  1.0000
  N   N12       1.0  0.97465  0.48788  0.41692  1.0000
  O   O6        1.0  0.09268  0.54689  0.54288  1.0000
  H   H30       1.0  0.12147  0.56128  0.51057  1.0000
