data_image0
_chemical_formula_structural       C3OHC2H2C3HC2HCHC4OH3C6O2H4C6O2H4C5H3C6H4C4H3C6H4C6H4C6H4C3HO2C3HOC3OHC3HOC3OHC2H2C2HC2H2C4H2CHC4H2C2H2C4H2C2H2C4H2C2H2C4H2
_chemical_formula_sum              "C108 O12 H66"
_cell_length_a       31.6483
_cell_length_b       31.6482
_cell_length_c       14.837
_cell_angle_alpha    90
_cell_angle_beta     90
_cell_angle_gamma    120

_space_group_name_H-M_alt    "P 1"
_space_group_IT_number       1

loop_
  _space_group_symop_operation_xyz
  'x, y, z'

loop_
  _atom_site_type_symbol
  _atom_site_label
  _atom_site_symmetry_multiplicity
  _atom_site_fract_x
  _atom_site_fract_y
  _atom_site_fract_z
  _atom_site_occupancy
  C   C1        1.0  0.03501  0.51949  0.34166  1.0000
  C   C2        1.0  0.06269  0.57075  0.32211  1.0000
  C   C3        1.0  0.11440  0.59757  0.32876  1.0000
  O   O1        1.0  0.04129  0.59626  0.29199  1.0000
  H   H1        1.0  0.03374  0.58784  0.22794  1.0000
  C   C4        1.0  0.11444  0.52164  0.36222  1.0000
  C   C5        1.0  0.06289  0.49671  0.36335  1.0000
  H   H2        1.0  0.04582  0.46096  0.38239  1.0000
  H   H3        1.0  0.12620  0.46946  0.23538  1.0000
  C   C6        1.0  0.14211  0.64959  0.32420  1.0000
  C   C7        1.0  0.13997  0.57242  0.34600  1.0000
  C   C8        1.0  0.14152  0.49681  0.36913  1.0000
  H   H4        1.0  0.12863  0.66041  0.45990  1.0000
  C   C9        1.0  0.14743  0.47468  0.29103  1.0000
  C   C10       1.0  0.17396  0.67278  0.25093  1.0000
  H   H5        1.0  0.17165  0.65320  0.19434  1.0000
  C   C11       1.0  0.17431  0.50694  0.44138  1.0000
  H   H6        1.0  0.17293  0.52566  0.49654  1.0000
  C   C12       1.0  0.14925  0.67686  0.40383  1.0000
  C   C13       1.0  0.98147  0.49145  0.34166  1.0000
  C   C14       1.0  0.90210  0.41335  0.32881  1.0000
  C   C15       1.0  0.95380  0.44019  0.32209  1.0000
  O   O2        1.0  0.97521  0.41470  0.29193  1.0000
  H   H7        1.0  0.98275  0.42313  0.22788  1.0000
  H   H8        1.0  0.81515  0.41605  0.28909  1.0000
  H   H9        1.0  0.20137  0.59485  0.28933  1.0000
  C   C16       1.0  0.52226  0.49277  0.34166  1.0000
  C   C17       1.0  0.60035  0.49148  0.32876  1.0000
  C   C18       1.0  0.57351  0.51635  0.32201  1.0000
  C   C19       1.0  0.49423  0.51828  0.34166  1.0000
  C   C20       1.0  0.44297  0.49470  0.32204  1.0000
  C   C21       1.0  0.41614  0.51958  0.32874  1.0000
  O   O3        1.0  0.59901  0.56326  0.29190  1.0000
  O   O4        1.0  0.41746  0.44777  0.29200  1.0000
  H   H10       1.0  0.59058  0.56239  0.22785  1.0000
  H   H11       1.0  0.42587  0.44862  0.22794  1.0000
  H   H12       1.0  0.59764  0.40182  0.28907  1.0000
  H   H13       1.0  0.41885  0.60927  0.28926  1.0000
  C   C22       1.0  0.52100  0.03228  0.34164  1.0000
  C   C23       1.0  0.52229  0.11166  0.32883  1.0000
  C   C24       1.0  0.49742  0.05995  0.32211  1.0000
  C   C25       1.0  0.49549  0.97873  0.34166  1.0000
  C   C26       1.0  0.51908  0.95106  0.32206  1.0000
  C   C27       1.0  0.49421  0.89936  0.32877  1.0000
  O   O5        1.0  0.45049  0.03854  0.29207  1.0000
  O   O6        1.0  0.56598  0.97247  0.29189  1.0000
  H   H14       1.0  0.45133  0.03100  0.22801  1.0000
  H   H15       1.0  0.56509  0.98001  0.22784  1.0000
  H   H16       1.0  0.61196  0.19862  0.28920  1.0000
  H   H17       1.0  0.40453  0.81240  0.28909  1.0000
  C   C28       1.0  0.36412  0.49526  0.32415  1.0000
  C   C29       1.0  0.34094  0.50395  0.25091  1.0000
  C   C30       1.0  0.29285  0.49523  0.25893  1.0000
  C   C31       1.0  0.26612  0.47768  0.34037  1.0000
  C   C32       1.0  0.18643  0.46531  0.28380  1.0000
  H   H18       1.0  0.19091  0.45187  0.22406  1.0000
  H   H19       1.0  0.36052  0.52125  0.19434  1.0000
  H   H20       1.0  0.27936  0.50632  0.20710  1.0000
  C   C33       1.0  0.51851  0.87164  0.32397  1.0000
  C   C34       1.0  0.50989  0.83982  0.25068  1.0000
  C   C35       1.0  0.51849  0.80038  0.25886  1.0000
  C   C36       1.0  0.53598  0.79118  0.34035  1.0000
  C   C37       1.0  0.54838  0.72387  0.28370  1.0000
  C   C38       1.0  0.53896  0.67549  0.29087  1.0000
  H   H21       1.0  0.56195  0.74187  0.22407  1.0000
  H   H22       1.0  0.54439  0.65954  0.23536  1.0000
  H   H23       1.0  0.49260  0.84213  0.19415  1.0000
  H   H24       1.0  0.50749  0.77585  0.20695  1.0000
  C   C39       1.0  0.21333  0.72086  0.25893  1.0000
  C   C40       1.0  0.22255  0.74759  0.34038  1.0000
  C   C41       1.0  0.28981  0.82730  0.28378  1.0000
  C   C42       1.0  0.33818  0.86630  0.29095  1.0000
  H   H25       1.0  0.27183  0.82283  0.22411  1.0000
  H   H26       1.0  0.35414  0.88754  0.23530  1.0000
  H   H27       1.0  0.23788  0.73437  0.20706  1.0000
  C   C43       1.0  0.65236  0.51578  0.32390  1.0000
  C   C44       1.0  0.67560  0.50720  0.25064  1.0000
  C   C45       1.0  0.72364  0.51580  0.25881  1.0000
  C   C46       1.0  0.75031  0.53323  0.34033  1.0000
  C   C47       1.0  0.83005  0.54570  0.28371  1.0000
  C   C48       1.0  0.86900  0.53627  0.29085  1.0000
  H   H28       1.0  0.82564  0.55934  0.22414  1.0000
  H   H29       1.0  0.89040  0.54176  0.23534  1.0000
  H   H30       1.0  0.65602  0.48995  0.19406  1.0000
  H   H31       1.0  0.73719  0.50484  0.20687  1.0000
  C   C49       1.0  0.49797  0.13936  0.32426  1.0000
  C   C50       1.0  0.50661  0.17120  0.25096  1.0000
  C   C51       1.0  0.49790  0.21057  0.25896  1.0000
  C   C52       1.0  0.48042  0.21980  0.34042  1.0000
  C   C53       1.0  0.46799  0.28708  0.28382  1.0000
  C   C54       1.0  0.47737  0.33545  0.29099  1.0000
  H   H32       1.0  0.45448  0.26911  0.22415  1.0000
  H   H33       1.0  0.47209  0.35142  0.23535  1.0000
  H   H34       1.0  0.52387  0.16888  0.19436  1.0000
  H   H35       1.0  0.50895  0.23512  0.20708  1.0000
  C   C55       1.0  0.87439  0.36133  0.32401  1.0000
  C   C56       1.0  0.84259  0.33813  0.25070  1.0000
  C   C57       1.0  0.80316  0.29009  0.25885  1.0000
  C   C58       1.0  0.79393  0.26340  0.34035  1.0000
  C   C59       1.0  0.72665  0.18369  0.28367  1.0000
  C   C60       1.0  0.67827  0.14473  0.29079  1.0000
  H   H36       1.0  0.74468  0.18811  0.22408  1.0000
  H   H37       1.0  0.66234  0.12334  0.23527  1.0000
  H   H38       1.0  0.84492  0.35774  0.19415  1.0000
  H   H39       1.0  0.77864  0.27655  0.20691  1.0000
  C   C61       1.0  0.95357  0.51421  0.36335  1.0000
  C   C62       1.0  0.90202  0.48926  0.36224  1.0000
  C   C63       1.0  0.87650  0.43849  0.34595  1.0000
  H   H40       1.0  0.97063  0.54997  0.38229  1.0000
  O   O7        1.0  0.82657  0.41316  0.34921  1.0000
  O   O8        1.0  0.18990  0.59773  0.34941  1.0000
  C   C64       1.0  0.49949  0.44212  0.36338  1.0000
  C   C65       1.0  0.52444  0.41551  0.36224  1.0000
  C   C66       1.0  0.57521  0.44075  0.34592  1.0000
  H   H41       1.0  0.46374  0.42343  0.38238  1.0000
  O   O9        1.0  0.60053  0.41614  0.34919  1.0000
  C   C67       1.0  0.44128  0.57030  0.34595  1.0000
  C   C68       1.0  0.49206  0.59555  0.36218  1.0000
  C   C69       1.0  0.51700  0.56894  0.36335  1.0000
  O   O10       1.0  0.41596  0.59491  0.34933  1.0000
  H   H42       1.0  0.55275  0.58763  0.38235  1.0000
  C   C70       1.0  0.57167  0.06017  0.36327  1.0000
  C   C71       1.0  0.59828  0.11172  0.36214  1.0000
  C   C72       1.0  0.57302  0.13724  0.34595  1.0000
  H   H43       1.0  0.59037  0.04311  0.38225  1.0000
  O   O11       1.0  0.59763  0.18717  0.34930  1.0000
  C   C73       1.0  0.44348  0.87377  0.34592  1.0000
  C   C74       1.0  0.41823  0.89929  0.36219  1.0000
  C   C75       1.0  0.44484  0.95084  0.36336  1.0000
  O   O12       1.0  0.41887  0.82383  0.34920  1.0000
  H   H44       1.0  0.42614  0.96790  0.38235  1.0000
  C   C76       1.0  0.28870  0.46627  0.41143  1.0000
  C   C77       1.0  0.33684  0.47508  0.40375  1.0000
  H   H45       1.0  0.27129  0.45415  0.47200  1.0000
  H   H46       1.0  0.35329  0.47088  0.45980  1.0000
  C   C78       1.0  0.22125  0.47809  0.35377  1.0000
  C   C79       1.0  0.21326  0.49755  0.43391  1.0000
  H   H47       1.0  0.23848  0.50971  0.48475  1.0000
  C   C80       1.0  0.54737  0.82515  0.41143  1.0000
  C   C81       1.0  0.53852  0.86446  0.40375  1.0000
  H   H48       1.0  0.55950  0.81988  0.47201  1.0000
  H   H49       1.0  0.54279  0.88519  0.45971  1.0000
  C   C82       1.0  0.53563  0.74593  0.35371  1.0000
  C   C83       1.0  0.51689  0.64747  0.36900  1.0000
  C   C84       1.0  0.50669  0.67009  0.44124  1.0000
  C   C85       1.0  0.51612  0.71844  0.43383  1.0000
  H   H50       1.0  0.48802  0.65001  0.49647  1.0000
  H   H51       1.0  0.50394  0.73151  0.48462  1.0000
  C   C86       1.0  0.18859  0.72500  0.41150  1.0000
  H   H52       1.0  0.19392  0.74240  0.47208  1.0000
  C   C87       1.0  0.26782  0.79245  0.35374  1.0000
  C   C88       1.0  0.36632  0.87221  0.36889  1.0000
  C   C89       1.0  0.34367  0.83939  0.44116  1.0000
  C   C90       1.0  0.29534  0.80044  0.43379  1.0000
  H   H53       1.0  0.36381  0.84077  0.49628  1.0000
  H   H54       1.0  0.28231  0.77522  0.48462  1.0000
  C   C91       1.0  0.72769  0.54455  0.41145  1.0000
  C   C92       1.0  0.67954  0.53570  0.40374  1.0000
  H   H55       1.0  0.74507  0.55663  0.47206  1.0000
  H   H56       1.0  0.66307  0.53994  0.45971  1.0000
  C   C93       1.0  0.79520  0.53287  0.35368  1.0000
  C   C94       1.0  0.87492  0.51408  0.36881  1.0000
  C   C95       1.0  0.84207  0.50384  0.44105  1.0000
  C   C96       1.0  0.80316  0.51329  0.43372  1.0000
  H   H57       1.0  0.84346  0.48514  0.49624  1.0000
  H   H58       1.0  0.77790  0.50107  0.48448  1.0000
  C   C97       1.0  0.46906  0.18586  0.41154  1.0000
  C   C98       1.0  0.47786  0.14651  0.40389  1.0000
  H   H59       1.0  0.45699  0.19120  0.47214  1.0000
  H   H60       1.0  0.47370  0.12591  0.45997  1.0000
  C   C99       1.0  0.48084  0.26509  0.35377  1.0000
  C   C100      1.0  0.49961  0.36360  0.36892  1.0000
  C   C101      1.0  0.50979  0.34095  0.44119  1.0000
  C   C102      1.0  0.50039  0.29261  0.43382  1.0000
  H   H61       1.0  0.52855  0.36108  0.49631  1.0000
  H   H62       1.0  0.51259  0.27958  0.48465  1.0000
  C   C103      1.0  0.82787  0.28599  0.41147  1.0000
  C   C104      1.0  0.86718  0.33415  0.40381  1.0000
  H   H63       1.0  0.82258  0.26859  0.47205  1.0000
  H   H64       1.0  0.88789  0.35061  0.45978  1.0000
  C   C105      1.0  0.74868  0.21850  0.35368  1.0000
  C   C106      1.0  0.65021  0.13881  0.36881  1.0000
  C   C107      1.0  0.67279  0.17162  0.44109  1.0000
  C   C108      1.0  0.72115  0.21053  0.43375  1.0000
  H   H65       1.0  0.65270  0.17021  0.49630  1.0000
  H   H66       1.0  0.73420  0.23578  0.48453  1.0000
