data_image0
_chemical_formula_structural       C4OC4OH4N2C4OC4OH4N2C4OC4OH4N2C3NOCHCHC3NOCHCHC3NOCHCHC3NOCHCHC3NOCHCHC3NOCHCHC2HC2HN2C2HC2HN2C2HC2HN2C3NOCHCHC3NOCHCHC3NOCHCHC3NOCHCHC3NOCHCHC3NOCHCH
_chemical_formula_sum              "C96 O18 H42 N24"
_cell_length_a       31.9635
_cell_length_b       31.9635
_cell_length_c       15.0559
_cell_angle_alpha    90
_cell_angle_beta     90
_cell_angle_gamma    120

_space_group_name_H-M_alt    "P 1"
_space_group_IT_number       1

loop_
  _space_group_symop_operation_xyz
  'x, y, z'

loop_
  _atom_site_type_symbol
  _atom_site_label
  _atom_site_symmetry_multiplicity
  _atom_site_fract_x
  _atom_site_fract_y
  _atom_site_fract_z
  _atom_site_occupancy
  C   C1        1.0  0.97144  0.48454  0.32706  1.0000
  C   C2        1.0  0.86821  0.43037  0.32869  1.0000
  C   C3        1.0  0.89512  0.40634  0.33525  1.0000
  C   C4        1.0  0.94566  0.43385  0.34303  1.0000
  O   O1        1.0  0.81894  0.40484  0.32719  1.0000
  C   C5        1.0  0.02305  0.51178  0.32703  1.0000
  C   C6        1.0  0.04883  0.56248  0.34293  1.0000
  C   C7        1.0  0.09939  0.58997  0.33528  1.0000
  C   C8        1.0  0.12628  0.56591  0.32877  1.0000
  O   O2        1.0  0.17555  0.59142  0.32739  1.0000
  H   H1        1.0  0.80831  0.39221  0.38758  1.0000
  H   H2        1.0  0.18614  0.60406  0.38780  1.0000
  H   H3        1.0  0.96342  0.41543  0.35603  1.0000
  H   H4        1.0  0.03107  0.58088  0.35600  1.0000
  N   N1        1.0  0.12098  0.63874  0.33766  1.0000
  N   N2        1.0  0.87354  0.35757  0.33767  1.0000
  C   C9        1.0  0.51084  0.48596  0.32705  1.0000
  C   C10       1.0  0.56499  0.43689  0.32876  1.0000
  C   C11       1.0  0.58902  0.48783  0.33528  1.0000
  C   C12       1.0  0.56153  0.51088  0.34303  1.0000
  O   O3        1.0  0.59052  0.41314  0.32729  1.0000
  C   C13       1.0  0.48359  0.51033  0.32701  1.0000
  C   C14       1.0  0.43290  0.48541  0.34291  1.0000
  C   C15       1.0  0.40540  0.50845  0.33520  1.0000
  C   C16       1.0  0.42943  0.55939  0.32865  1.0000
  O   O4        1.0  0.40390  0.58314  0.32721  1.0000
  H   H5        1.0  0.60316  0.41517  0.38768  1.0000
  H   H6        1.0  0.39125  0.58110  0.38760  1.0000
  H   H7        1.0  0.57995  0.54706  0.35600  1.0000
  H   H8        1.0  0.41449  0.44924  0.35602  1.0000
  N   N3        1.0  0.35663  0.48126  0.33763  1.0000
  N   N4        1.0  0.63779  0.51499  0.33772  1.0000
  C   C17       1.0  0.50940  0.02396  0.32703  1.0000
  C   C18       1.0  0.55848  0.12719  0.32873  1.0000
  C   C19       1.0  0.50754  0.10028  0.33524  1.0000
  C   C20       1.0  0.48449  0.04973  0.34299  1.0000
  O   O5        1.0  0.58222  0.17646  0.32725  1.0000
  C   C21       1.0  0.48502  0.97235  0.32696  1.0000
  C   C22       1.0  0.50993  0.94656  0.34291  1.0000
  C   C23       1.0  0.48686  0.89601  0.33522  1.0000
  C   C24       1.0  0.43592  0.86912  0.32862  1.0000
  O   O6        1.0  0.41215  0.81984  0.32723  1.0000
  H   H9        1.0  0.58018  0.18708  0.38762  1.0000
  H   H10       1.0  0.41417  0.80925  0.38764  1.0000
  H   H11       1.0  0.44830  0.03197  0.35595  1.0000
  H   H12       1.0  0.54609  0.96431  0.35604  1.0000
  N   N5        1.0  0.51403  0.87441  0.33767  1.0000
  N   N6        1.0  0.48035  0.12186  0.33765  1.0000
  C   C25       1.0  0.27916  0.47475  0.30451  1.0000
  C   C26       1.0  0.24709  0.47377  0.23864  1.0000
  C   C27       1.0  0.20558  0.47549  0.26125  1.0000
  N   N7        1.0  0.18621  0.47928  0.18546  1.0000
  O   O7        1.0  0.25360  0.47564  0.14889  1.0000
  C   C28       1.0  0.21404  0.47767  0.12046  1.0000
  H   H13       1.0  0.20803  0.48124  0.05504  1.0000
  C   C29       1.0  0.32623  0.48611  0.28168  1.0000
  H   H14       1.0  0.33949  0.50206  0.22122  1.0000
  C   C30       1.0  0.52054  0.80345  0.30454  1.0000
  C   C31       1.0  0.52150  0.77235  0.23866  1.0000
  C   C32       1.0  0.51993  0.72920  0.26123  1.0000
  N   N8        1.0  0.51618  0.70609  0.18539  1.0000
  O   O8        1.0  0.51958  0.77696  0.14892  1.0000
  C   C33       1.0  0.51828  0.73573  0.12036  1.0000
  H   H15       1.0  0.51335  0.72555  0.05520  1.0000
  C   C34       1.0  0.50917  0.83915  0.28173  1.0000
  H   H16       1.0  0.49324  0.83649  0.22126  1.0000
  C   C35       1.0  0.19191  0.71626  0.30441  1.0000
  C   C36       1.0  0.22290  0.74836  0.23848  1.0000
  C   C37       1.0  0.26616  0.78977  0.26105  1.0000
  N   N9        1.0  0.28921  0.80929  0.18524  1.0000
  O   O9        1.0  0.21840  0.74173  0.14875  1.0000
  C   C38       1.0  0.25957  0.78175  0.12020  1.0000
  H   H17       1.0  0.26971  0.78709  0.05502  1.0000
  C   C39       1.0  0.15630  0.66911  0.28178  1.0000
  H   H18       1.0  0.15897  0.65583  0.22135  1.0000
  C   C40       1.0  0.71515  0.52127  0.30451  1.0000
  C   C41       1.0  0.74719  0.52225  0.23857  1.0000
  C   C42       1.0  0.78860  0.52036  0.26115  1.0000
  N   N10       1.0  0.80826  0.51706  0.18534  1.0000
  O   O10       1.0  0.74079  0.52060  0.14880  1.0000
  C   C43       1.0  0.78047  0.51877  0.12038  1.0000
  H   H19       1.0  0.78671  0.51563  0.05489  1.0000
  C   C44       1.0  0.66816  0.51015  0.28166  1.0000
  H   H20       1.0  0.65487  0.49426  0.22118  1.0000
  C   C45       1.0  0.47386  0.19283  0.30452  1.0000
  C   C46       1.0  0.47289  0.22392  0.23864  1.0000
  C   C47       1.0  0.47460  0.26714  0.26124  1.0000
  N   N11       1.0  0.47839  0.29030  0.18544  1.0000
  O   O11       1.0  0.47475  0.21928  0.14889  1.0000
  C   C48       1.0  0.47678  0.26086  0.12045  1.0000
  H   H21       1.0  0.48033  0.27043  0.05503  1.0000
  C   C49       1.0  0.48521  0.15712  0.28169  1.0000
  H   H22       1.0  0.50115  0.15979  0.22124  1.0000
  C   C50       1.0  0.80256  0.28012  0.30454  1.0000
  C   C51       1.0  0.77145  0.24805  0.23868  1.0000
  C   C52       1.0  0.72829  0.20649  0.26126  1.0000
  N   N12       1.0  0.70518  0.18713  0.18542  1.0000
  O   O12       1.0  0.77606  0.25459  0.14893  1.0000
  C   C53       1.0  0.73482  0.21466  0.12038  1.0000
  H   H23       1.0  0.72463  0.20940  0.05523  1.0000
  C   C54       1.0  0.83828  0.32717  0.28172  1.0000
  H   H24       1.0  0.83562  0.34044  0.22125  1.0000
  C   C55       1.0  0.94305  0.50669  0.31113  1.0000
  C   C56       1.0  0.89245  0.48112  0.31942  1.0000
  H   H25       1.0  0.95893  0.54271  0.29740  1.0000
  C   C57       1.0  0.10203  0.51517  0.31947  1.0000
  C   C58       1.0  0.05144  0.48962  0.31102  1.0000
  H   H26       1.0  0.03554  0.45358  0.29746  1.0000
  N   N13       1.0  0.12541  0.48968  0.31770  1.0000
  N   N14       1.0  0.86903  0.50657  0.31756  1.0000
  C   C59       1.0  0.48868  0.43541  0.31114  1.0000
  C   C60       1.0  0.51424  0.41038  0.31947  1.0000
  H   H27       1.0  0.45265  0.41527  0.29740  1.0000
  C   C61       1.0  0.48018  0.58590  0.31940  1.0000
  C   C62       1.0  0.50574  0.56088  0.31099  1.0000
  H   H28       1.0  0.54179  0.58103  0.29746  1.0000
  N   N15       1.0  0.50566  0.63478  0.31766  1.0000
  N   N16       1.0  0.48876  0.36151  0.31768  1.0000
  C   C63       1.0  0.55996  0.05235  0.31117  1.0000
  C   C64       1.0  0.58499  0.10295  0.31949  1.0000
  H   H29       1.0  0.58010  0.03646  0.29748  1.0000
  C   C65       1.0  0.40944  0.89338  0.31928  1.0000
  C   C66       1.0  0.43449  0.94397  0.31087  1.0000
  H   H30       1.0  0.41435  0.95987  0.29729  1.0000
  N   N17       1.0  0.36056  0.87000  0.31747  1.0000
  N   N18       1.0  0.63387  0.12634  0.31774  1.0000
  C   C67       1.0  0.19500  0.48091  0.35027  1.0000
  C   C68       1.0  0.22534  0.47879  0.41639  1.0000
  C   C69       1.0  0.26550  0.47463  0.39390  1.0000
  N   N19       1.0  0.28894  0.47831  0.46930  1.0000
  O   O13       1.0  0.22298  0.48456  0.50565  1.0000
  C   C70       1.0  0.26244  0.48235  0.53414  1.0000
  H   H31       1.0  0.27333  0.48767  0.59892  1.0000
  C   C71       1.0  0.16231  0.49661  0.37116  1.0000
  H   H32       1.0  0.16604  0.51367  0.43073  1.0000
  C   C72       1.0  0.51442  0.71312  0.35020  1.0000
  C   C73       1.0  0.51643  0.74553  0.41634  1.0000
  C   C74       1.0  0.52061  0.78988  0.39394  1.0000
  N   N20       1.0  0.51694  0.80963  0.46934  1.0000
  O   O14       1.0  0.51073  0.73741  0.50561  1.0000
  C   C75       1.0  0.51269  0.77896  0.53410  1.0000
  H   H33       1.0  0.50788  0.78471  0.59905  1.0000
  C   C76       1.0  0.49869  0.66473  0.37110  1.0000
  H   H34       1.0  0.48158  0.65139  0.43063  1.0000
  C   C77       1.0  0.28217  0.80050  0.35004  1.0000
  C   C78       1.0  0.24970  0.77016  0.41618  1.0000
  C   C79       1.0  0.20528  0.73007  0.39382  1.0000
  N   N21       1.0  0.18585  0.70642  0.46919  1.0000
  O   O15       1.0  0.25799  0.77237  0.50537  1.0000
  C   C80       1.0  0.21626  0.73306  0.53408  1.0000
  H   H35       1.0  0.21140  0.72150  0.59844  1.0000
  C   C81       1.0  0.33057  0.83311  0.37094  1.0000
  H   H36       1.0  0.34388  0.82939  0.43053  1.0000
  C   C82       1.0  0.79934  0.51516  0.35019  1.0000
  C   C83       1.0  0.76895  0.51721  0.41631  1.0000
  C   C84       1.0  0.72884  0.52146  0.39390  1.0000
  N   N22       1.0  0.70550  0.51792  0.46935  1.0000
  O   O16       1.0  0.77141  0.51160  0.50560  1.0000
  C   C85       1.0  0.73220  0.51423  0.53424  1.0000
  H   H37       1.0  0.72099  0.50824  0.59883  1.0000
  C   C86       1.0  0.83216  0.49965  0.37112  1.0000
  H   H38       1.0  0.82850  0.48265  0.43073  1.0000
  C   C87       1.0  0.48003  0.28316  0.35025  1.0000
  C   C88       1.0  0.47792  0.25071  0.41637  1.0000
  C   C89       1.0  0.47375  0.20638  0.39390  1.0000
  N   N23       1.0  0.47743  0.18662  0.46930  1.0000
  O   O17       1.0  0.48368  0.25883  0.50564  1.0000
  C   C90       1.0  0.48147  0.21717  0.53414  1.0000
  H   H39       1.0  0.48679  0.21160  0.59892  1.0000
  C   C91       1.0  0.49571  0.33154  0.37114  1.0000
  H   H40       1.0  0.51278  0.34488  0.43069  1.0000
  C   C92       1.0  0.71221  0.19593  0.35023  1.0000
  C   C93       1.0  0.74463  0.22633  0.41635  1.0000
  C   C94       1.0  0.78899  0.26649  0.39394  1.0000
  N   N24       1.0  0.80874  0.28991  0.46934  1.0000
  O   O18       1.0  0.73651  0.22392  0.50563  1.0000
  C   C95       1.0  0.77807  0.26351  0.53411  1.0000
  H   H41       1.0  0.78383  0.27407  0.59906  1.0000
  C   C96       1.0  0.66383  0.16328  0.37115  1.0000
  H   H42       1.0  0.65049  0.16706  0.43066  1.0000
