data_image0
_chemical_formula_structural       C3NC3NC5NC5NC20H18C4H4C7H4NC7H4NC8H8CN3CN3
_chemical_formula_sum              "C64 N12 H38"
_cell_length_a       25.4816
_cell_length_b       25.4814
_cell_length_c       14.5309
_cell_angle_alpha    90
_cell_angle_beta     90
_cell_angle_gamma    90.0372

_space_group_name_H-M_alt    "P 1"
_space_group_IT_number       1

loop_
  _space_group_symop_operation_xyz
  'x, y, z'

loop_
  _atom_site_type_symbol
  _atom_site_label
  _atom_site_symmetry_multiplicity
  _atom_site_fract_x
  _atom_site_fract_y
  _atom_site_fract_z
  _atom_site_occupancy
  C   C1        1.0  0.92010  0.87790  0.35256  1.0000
  C   C2        1.0  0.88071  0.91507  0.35287  1.0000
  C   C3        1.0  0.90380  0.96486  0.35334  1.0000
  N   N1        1.0  0.95630  0.95581  0.35529  1.0000
  C   C4        1.0  0.96838  0.90391  0.35426  1.0000
  C   C5        1.0  0.01828  0.87869  0.35349  1.0000
  C   C6        1.0  0.06723  0.90562  0.35444  1.0000
  N   N2        1.0  0.07599  0.95800  0.35565  1.0000
  C   C7        1.0  0.12780  0.96973  0.35477  1.0000
  C   C8        1.0  0.15403  0.92164  0.35310  1.0000
  C   C9        1.0  0.11683  0.88225  0.35379  1.0000
  C   C10       1.0  0.15176  0.02014  0.35391  1.0000
  C   C11       1.0  0.12359  0.06850  0.35444  1.0000
  N   N3        1.0  0.07109  0.07756  0.35552  1.0000
  C   C12       1.0  0.05902  0.12946  0.35352  1.0000
  C   C13       1.0  0.10731  0.15545  0.35225  1.0000
  C   C14       1.0  0.14669  0.11828  0.35365  1.0000
  C   C15       1.0  0.00913  0.15467  0.35153  1.0000
  C   C16       1.0  0.96017  0.12775  0.35201  1.0000
  N   N4        1.0  0.95141  0.07537  0.35374  1.0000
  C   C17       1.0  0.89960  0.06363  0.35232  1.0000
  C   C18       1.0  0.87338  0.11171  0.34960  1.0000
  C   C19       1.0  0.91058  0.15111  0.35031  1.0000
  C   C20       1.0  0.87564  0.01322  0.35175  1.0000
  C   C21       1.0  0.81960  0.01093  0.34518  1.0000
  C   C22       1.0  0.70821  0.00028  0.33276  1.0000
  C   C23       1.0  0.74062  0.99080  0.25547  1.0000
  C   C24       1.0  0.79545  0.99654  0.26131  1.0000
  C   C25       1.0  0.00778  0.21074  0.34482  1.0000
  C   C26       1.0  0.99801  0.32218  0.33226  1.0000
  C   C27       1.0  0.98908  0.28987  0.25464  1.0000
  C   C28       1.0  0.99441  0.23500  0.26055  1.0000
  C   C29       1.0  0.20782  0.02240  0.34764  1.0000
  C   C30       1.0  0.23208  0.03637  0.26365  1.0000
  C   C31       1.0  0.28692  0.04206  0.25796  1.0000
  C   C32       1.0  0.31921  0.03283  0.33548  1.0000
  C   C33       1.0  0.01969  0.82261  0.34717  1.0000
  C   C34       1.0  0.03343  0.79821  0.26320  1.0000
  C   C35       1.0  0.02992  0.71121  0.33550  1.0000
  C   C36       1.0  0.03898  0.74336  0.25773  1.0000
  H   H1        1.0  0.05044  0.72717  0.19641  1.0000
  H   H2        1.0  0.04113  0.82041  0.20604  1.0000
  H   H3        1.0  0.91372  0.83831  0.35105  1.0000
  H   H4        1.0  0.84158  0.90631  0.35199  1.0000
  H   H5        1.0  0.98217  0.98323  0.35581  1.0000
  H   H6        1.0  0.04522  0.05015  0.35573  1.0000
  H   H7        1.0  0.12532  0.84306  0.35303  1.0000
  H   H8        1.0  0.19364  0.91548  0.35153  1.0000
  H   H9        1.0  0.20980  0.04401  0.20657  1.0000
  H   H10       1.0  0.30301  0.05354  0.19656  1.0000
  H   H11       1.0  0.18583  0.12702  0.35318  1.0000
  H   H12       1.0  0.11371  0.19502  0.35012  1.0000
  H   H13       1.0  0.83378  0.11786  0.34735  1.0000
  H   H14       1.0  0.90209  0.19029  0.34891  1.0000
  H   H15       1.0  0.98688  0.21271  0.20343  1.0000
  H   H16       1.0  0.97797  0.30595  0.19304  1.0000
  H   H17       1.0  0.81781  0.98872  0.20440  1.0000
  H   H18       1.0  0.72462  0.97903  0.19416  1.0000
  C   C37       1.0  0.98889  0.37568  0.32553  1.0000
  C   C38       1.0  0.37270  0.04203  0.32887  1.0000
  C   C39       1.0  0.03938  0.65777  0.32933  1.0000
  C   C40       1.0  0.65472  0.99101  0.32614  1.0000
  H   H19       1.0  0.95666  0.38737  0.29249  1.0000
  H   H20       1.0  0.38441  0.07466  0.29703  1.0000
  H   H21       1.0  0.07218  0.64621  0.29794  1.0000
  H   H22       1.0  0.64305  0.95860  0.29354  1.0000
  C   C41       1.0  0.01851  0.46205  0.34360  1.0000
  C   C42       1.0  0.01752  0.48906  0.25799  1.0000
  C   C43       1.0  0.01153  0.54485  0.25832  1.0000
  C   C44       1.0  0.00780  0.57177  0.17319  1.0000
  C   C45       1.0  0.01179  0.54465  0.08933  1.0000
  C   C46       1.0  0.01969  0.49019  0.08904  1.0000
  C   C47       1.0  0.02248  0.46261  0.17260  1.0000
  H   H23       1.0  0.00194  0.61141  0.17084  1.0000
  H   H24       1.0  0.00931  0.56463  0.02843  1.0000
  H   H25       1.0  0.02305  0.47056  0.02795  1.0000
  H   H26       1.0  0.02842  0.42300  0.16984  1.0000
  N   N5        1.0  0.02231  0.41018  0.35320  1.0000
  C   C48       1.0  0.56834  0.02072  0.34357  1.0000
  C   C49       1.0  0.54134  0.01928  0.25797  1.0000
  C   C50       1.0  0.48552  0.01345  0.25841  1.0000
  C   C51       1.0  0.45859  0.00928  0.17334  1.0000
  C   C52       1.0  0.48573  0.01269  0.08942  1.0000
  C   C53       1.0  0.54022  0.02045  0.08900  1.0000
  C   C54       1.0  0.56781  0.02366  0.17249  1.0000
  H   H27       1.0  0.41893  0.00352  0.17110  1.0000
  H   H28       1.0  0.46574  0.00992  0.02857  1.0000
  H   H29       1.0  0.55987  0.02340  0.02785  1.0000
  H   H30       1.0  0.60745  0.02948  0.16964  1.0000
  N   N6        1.0  0.62022  0.02455  0.35314  1.0000
  C   C55       1.0  0.78727  0.02096  0.42234  1.0000
  C   C56       1.0  0.73224  0.01603  0.41609  1.0000
  C   C57       1.0  0.01729  0.24297  0.42231  1.0000
  C   C58       1.0  0.01276  0.29803  0.41602  1.0000
  C   C59       1.0  0.29508  0.01752  0.41895  1.0000
  C   C60       1.0  0.24004  0.01266  0.42506  1.0000
  C   C61       1.0  0.00998  0.79053  0.42478  1.0000
  C   C62       1.0  0.01470  0.73547  0.41891  1.0000
  H   H31       1.0  0.00882  0.71341  0.47689  1.0000
  H   H32       1.0  0.00052  0.80718  0.48669  1.0000
  H   H33       1.0  0.22350  0.00286  0.48691  1.0000
  H   H34       1.0  0.31724  0.01138  0.47671  1.0000
  H   H35       1.0  0.02652  0.22643  0.48442  1.0000
  H   H36       1.0  0.01861  0.32019  0.47389  1.0000
  H   H37       1.0  0.71002  0.02230  0.47374  1.0000
  H   H38       1.0  0.80372  0.03101  0.48415  1.0000
  C   C63       1.0  0.00933  0.57141  0.34429  1.0000
  N   N7        1.0  0.01125  0.54210  0.42217  1.0000
  N   N8        1.0  0.01551  0.49096  0.42184  1.0000
  N   N9        1.0  0.00534  0.62323  0.35438  1.0000
  C   C64       1.0  0.45896  0.01185  0.34440  1.0000
  N   N10       1.0  0.48827  0.01415  0.42226  1.0000
  N   N11       1.0  0.53942  0.01828  0.42185  1.0000
  N   N12       1.0  0.40712  0.00808  0.35457  1.0000
