data_image0
_chemical_formula_structural       C3NC3NC5NC5NC20H18N4C2NOCH3CHC2NOCH3CHC8H8C2NHCHC2NHCH
_chemical_formula_sum              "C58 N12 H38 O2"
_cell_length_a       25.6442
_cell_length_b       25.6421
_cell_length_c       14.7029
_cell_angle_alpha    90
_cell_angle_beta     90
_cell_angle_gamma    89.97

_space_group_name_H-M_alt    "P 1"
_space_group_IT_number       1

loop_
  _space_group_symop_operation_xyz
  'x, y, z'

loop_
  _atom_site_type_symbol
  _atom_site_label
  _atom_site_symmetry_multiplicity
  _atom_site_fract_x
  _atom_site_fract_y
  _atom_site_fract_z
  _atom_site_occupancy
  C   C1        1.0  0.91264  0.14534  0.33912  1.0000
  C   C2        1.0  0.87438  0.10746  0.33953  1.0000
  C   C3        1.0  0.89855  0.05860  0.33859  1.0000
  N   N1        1.0  0.95051  0.06882  0.33826  1.0000
  C   C4        1.0  0.96126  0.12067  0.33869  1.0000
  C   C5        1.0  0.01025  0.14692  0.33830  1.0000
  C   C6        1.0  0.05951  0.12142  0.33674  1.0000
  N   N2        1.0  0.06943  0.06958  0.33565  1.0000
  C   C7        1.0  0.12117  0.05915  0.33445  1.0000
  C   C8        1.0  0.14608  0.10758  0.33448  1.0000
  C   C9        1.0  0.10819  0.14585  0.33641  1.0000
  C   C10       1.0  0.14617  0.00962  0.33298  1.0000
  C   C11       1.0  0.11940  0.96091  0.33244  1.0000
  N   N3        1.0  0.06743  0.95069  0.33313  1.0000
  C   C12       1.0  0.05667  0.89884  0.33268  1.0000
  C   C13       1.0  0.10527  0.87417  0.33125  1.0000
  C   C14       1.0  0.14355  0.91204  0.33163  1.0000
  C   C15       1.0  0.00768  0.87259  0.33306  1.0000
  C   C16       1.0  0.95841  0.89808  0.33442  1.0000
  N   N4        1.0  0.94851  0.94992  0.33578  1.0000
  C   C17       1.0  0.89678  0.96036  0.33726  1.0000
  C   C18       1.0  0.87185  0.91194  0.33657  1.0000
  C   C19       1.0  0.90974  0.87366  0.33530  1.0000
  C   C20       1.0  0.87181  0.00988  0.33857  1.0000
  C   C21       1.0  0.81600  0.01059  0.33933  1.0000
  C   C22       1.0  0.70446  0.01119  0.34045  1.0000
  C   C23       1.0  0.73269  0.01947  0.25887  1.0000
  C   C24       1.0  0.78763  0.01902  0.25825  1.0000
  C   C25       1.0  0.00781  0.81677  0.33206  1.0000
  C   C26       1.0  0.00767  0.70528  0.32993  1.0000
  C   C27       1.0  0.99902  0.73415  0.24952  1.0000
  C   C28       1.0  0.99914  0.78910  0.25032  1.0000
  C   C29       1.0  0.20199  0.00890  0.33202  1.0000
  C   C30       1.0  0.22959  0.00056  0.25009  1.0000
  C   C31       1.0  0.28454  0.00018  0.24915  1.0000
  C   C32       1.0  0.31350  0.00830  0.32964  1.0000
  C   C33       1.0  0.01007  0.20274  0.33902  1.0000
  C   C34       1.0  0.01800  0.23121  0.25791  1.0000
  C   C35       1.0  0.00997  0.31429  0.34037  1.0000
  C   C36       1.0  0.01811  0.28616  0.25863  1.0000
  H   H1        1.0  0.02455  0.30530  0.19875  1.0000
  H   H2        1.0  0.02399  0.21206  0.19771  1.0000
  H   H3        1.0  0.90539  0.18453  0.33922  1.0000
  H   H4        1.0  0.83527  0.11511  0.34024  1.0000
  H   H5        1.0  0.97683  0.04223  0.33805  1.0000
  H   H6        1.0  0.04112  0.97728  0.33378  1.0000
  H   H7        1.0  0.11561  0.18500  0.33718  1.0000
  H   H8        1.0  0.18529  0.11462  0.33346  1.0000
  H   H9        1.0  0.20982  0.99480  0.19045  1.0000
  H   H10       1.0  0.30338  0.99415  0.18866  1.0000
  H   H11       1.0  0.18265  0.90437  0.33131  1.0000
  H   H12       1.0  0.11252  0.83498  0.33040  1.0000
  H   H13       1.0  0.83263  0.90492  0.33708  1.0000
  H   H14       1.0  0.90231  0.83450  0.33497  1.0000
  H   H15       1.0  0.99280  0.80881  0.19080  1.0000
  H   H16       1.0  0.99263  0.71524  0.18919  1.0000
  H   H17       1.0  0.80686  0.02499  0.19813  1.0000
  H   H18       1.0  0.71363  0.02614  0.19899  1.0000
  N   N5        1.0  0.00733  0.65335  0.32271  1.0000
  N   N6        1.0  0.36543  0.00798  0.32226  1.0000
  N   N7        1.0  0.00996  0.36635  0.34683  1.0000
  N   N8        1.0  0.65240  0.01117  0.34674  1.0000
  C   C37       1.0  0.01209  0.54460  0.26084  1.0000
  C   C38       1.0  0.01000  0.45539  0.31092  1.0000
  N   N9        1.0  0.01127  0.49221  0.24459  1.0000
  O   O1        1.0  0.01460  0.57988  0.19024  1.0000
  C   C39       1.0  0.00919  0.56182  0.09816  1.0000
  H   H19       1.0  0.04091  0.53530  0.08024  1.0000
  H   H20       1.0  0.01088  0.59544  0.05294  1.0000
  H   H21       1.0  0.97175  0.54232  0.08826  1.0000
  C   C40       1.0  0.00957  0.40318  0.28726  1.0000
  H   H22       1.0  0.00880  0.39423  0.22153  1.0000
  C   C41       1.0  0.47422  0.01344  0.26047  1.0000
  C   C42       1.0  0.56340  0.01127  0.31064  1.0000
  N   N10       1.0  0.52662  0.01290  0.24427  1.0000
  O   O2        1.0  0.43903  0.01673  0.18984  1.0000
  C   C43       1.0  0.45666  0.00789  0.09830  1.0000
  H   H23       1.0  0.48468  0.03772  0.07774  1.0000
  H   H24       1.0  0.42309  0.01007  0.05301  1.0000
  H   H25       1.0  0.47428  0.96929  0.09146  1.0000
  C   C44       1.0  0.61562  0.01103  0.28708  1.0000
  H   H26       1.0  0.62462  0.01053  0.22136  1.0000
  C   C45       1.0  0.78802  0.00273  0.42101  1.0000
  C   C46       1.0  0.73305  0.00310  0.42136  1.0000
  C   C47       1.0  0.01638  0.78808  0.41280  1.0000
  C   C48       1.0  0.01643  0.73311  0.41172  1.0000
  C   C49       1.0  0.28574  0.01666  0.41164  1.0000
  C   C50       1.0  0.23078  0.01685  0.41283  1.0000
  C   C51       1.0  0.00229  0.23063  0.42083  1.0000
  C   C52       1.0  0.00231  0.28560  0.42129  1.0000
  H   H27       1.0  0.99658  0.30467  0.48166  1.0000
  H   H28       1.0  0.99662  0.21106  0.48069  1.0000
  H   H29       1.0  0.21184  0.02305  0.47316  1.0000
  H   H30       1.0  0.30517  0.02275  0.47134  1.0000
  H   H31       1.0  0.02273  0.80709  0.47301  1.0000
  H   H32       1.0  0.02290  0.71373  0.47136  1.0000
  H   H33       1.0  0.71392  0.99719  0.48161  1.0000
  H   H34       1.0  0.80751  0.99659  0.48082  1.0000
  C   C53       1.0  0.01203  0.56261  0.35237  1.0000
  C   C54       1.0  0.01077  0.52347  0.42050  1.0000
  N   N11       1.0  0.00983  0.47204  0.39857  1.0000
  H   H35       1.0  0.01073  0.53307  0.48803  1.0000
  C   C55       1.0  0.01426  0.61515  0.37829  1.0000
  H   H36       1.0  0.02157  0.62343  0.44307  1.0000
  C   C56       1.0  0.45616  0.01287  0.35196  1.0000
  C   C57       1.0  0.49527  0.01127  0.42012  1.0000
  N   N12       1.0  0.54670  0.01054  0.39825  1.0000
  H   H37       1.0  0.48563  0.01087  0.48764  1.0000
  C   C58       1.0  0.40362  0.01502  0.37782  1.0000
  H   H38       1.0  0.39532  0.02244  0.44257  1.0000
