data_image0
_chemical_formula_structural       C4ONC30H17NHNHNHC30H17NHNHNHC3H2CO2HCH2C3H2CO2HCH2C2H2OHCH10C3NC2NOHCH2C3NC2NOHCH2C2NCOHCH2
_chemical_formula_sum              "C93 O9 N12 H72"
_cell_length_a       45.0079
_cell_length_b       45.0078
_cell_length_c       14.9773
_cell_angle_alpha    90
_cell_angle_beta     90
_cell_angle_gamma    120

_space_group_name_H-M_alt    "P 1"
_space_group_IT_number       1

loop_
  _space_group_symop_operation_xyz
  'x, y, z'

loop_
  _atom_site_type_symbol
  _atom_site_label
  _atom_site_symmetry_multiplicity
  _atom_site_fract_x
  _atom_site_fract_y
  _atom_site_fract_z
  _atom_site_occupancy
  C   C1        1.0  0.01348  0.51343  0.43519  1.0000
  C   C2        1.0  0.00570  0.50923  0.59427  1.0000
  C   C3        1.0  0.02258  0.51738  0.27530  1.0000
  C   C4        1.0  0.02056  0.51406  0.01119  1.0000
  O   O1        1.0  0.01754  0.48923  0.05424  1.0000
  N   N1        1.0  0.02559  0.51802  0.52015  1.0000
  C   C5        1.0  0.13260  0.56754  0.31511  1.0000
  C   C6        1.0  0.15243  0.59969  0.35735  1.0000
  C   C7        1.0  0.18799  0.61372  0.36902  1.0000
  C   C8        1.0  0.20445  0.59587  0.33851  1.0000
  C   C9        1.0  0.18455  0.56353  0.29732  1.0000
  C   C10       1.0  0.14902  0.54969  0.28506  1.0000
  C   C11       1.0  0.23952  0.60970  0.34823  1.0000
  C   C12       1.0  0.26253  0.63731  0.30194  1.0000
  C   C13       1.0  0.29801  0.65183  0.30832  1.0000
  C   C14       1.0  0.31394  0.63154  0.30761  1.0000
  C   C15       1.0  0.35007  0.64656  0.30816  1.0000
  C   C16       1.0  0.37036  0.68279  0.30753  1.0000
  C   C17       1.0  0.35534  0.70389  0.30817  1.0000
  C   C18       1.0  0.31911  0.68795  0.30765  1.0000
  C   C19       1.0  0.37629  0.73937  0.30179  1.0000
  C   C20       1.0  0.37171  0.76238  0.34814  1.0000
  C   C21       1.0  0.39295  0.79745  0.33843  1.0000
  C   C22       1.0  0.38052  0.81735  0.29719  1.0000
  C   C23       1.0  0.42726  0.81390  0.36896  1.0000
  C   C24       1.0  0.44879  0.84947  0.35735  1.0000
  C   C25       1.0  0.43647  0.86929  0.31507  1.0000
  C   C26       1.0  0.40220  0.85288  0.28500  1.0000
  C   C27       1.0  0.36459  0.62560  0.30177  1.0000
  C   C28       1.0  0.39220  0.63020  0.34808  1.0000
  C   C29       1.0  0.40602  0.60896  0.33838  1.0000
  C   C30       1.0  0.38816  0.57465  0.36892  1.0000
  C   C31       1.0  0.43835  0.62138  0.29712  1.0000
  C   C32       1.0  0.45219  0.59969  0.28493  1.0000
  C   C33       1.0  0.43433  0.56542  0.31501  1.0000
  C   C34       1.0  0.40219  0.55311  0.35729  1.0000
  H   H1        1.0  0.14109  0.61329  0.37834  1.0000
  H   H2        1.0  0.20179  0.63720  0.39908  1.0000
  H   H3        1.0  0.30788  0.70292  0.30463  1.0000
  H   H4        1.0  0.29898  0.60535  0.30460  1.0000
  H   H5        1.0  0.39655  0.69402  0.30447  1.0000
  H   H6        1.0  0.36469  0.56498  0.39902  1.0000
  H   H7        1.0  0.35580  0.80606  0.27419  1.0000
  H   H8        1.0  0.47372  0.86079  0.37831  1.0000
  H   H9        1.0  0.43693  0.80009  0.39903  1.0000
  H   H10       1.0  0.38859  0.52818  0.37830  1.0000
  H   H11       1.0  0.45178  0.64609  0.27411  1.0000
  H   H12       1.0  0.35195  0.75441  0.38977  1.0000
  H   H13       1.0  0.39630  0.74809  0.26053  1.0000
  H   H14       1.0  0.24749  0.59789  0.38977  1.0000
  H   H15       1.0  0.25381  0.64862  0.26074  1.0000
  H   H16       1.0  0.40399  0.64997  0.38967  1.0000
  H   H17       1.0  0.35329  0.60558  0.26055  1.0000
  N   N2        1.0  0.45777  0.90481  0.29816  1.0000
  H   H18       1.0  0.47913  0.90824  0.26436  1.0000
  N   N3        1.0  0.09709  0.55332  0.29818  1.0000
  H   H19       1.0  0.09366  0.57125  0.26436  1.0000
  N   N4        1.0  0.44855  0.54412  0.29813  1.0000
  H   H20       1.0  0.43062  0.52276  0.26433  1.0000
  C   C35       1.0  0.87012  0.42695  0.34061  1.0000
  C   C36       1.0  0.85301  0.41562  0.25785  1.0000
  C   C37       1.0  0.81723  0.40157  0.25231  1.0000
  C   C38       1.0  0.79772  0.39839  0.32944  1.0000
  C   C39       1.0  0.81503  0.41001  0.41208  1.0000
  C   C40       1.0  0.85077  0.42380  0.41765  1.0000
  C   C41       1.0  0.76258  0.38557  0.32225  1.0000
  C   C42       1.0  0.73916  0.36087  0.37549  1.0000
  C   C43       1.0  0.70398  0.34789  0.36866  1.0000
  C   C44       1.0  0.68988  0.36981  0.36932  1.0000
  C   C45       1.0  0.65400  0.35648  0.36869  1.0000
  C   C46       1.0  0.63209  0.32046  0.36932  1.0000
  C   C47       1.0  0.64542  0.29791  0.36870  1.0000
  C   C48       1.0  0.68144  0.31201  0.36931  1.0000
  C   C49       1.0  0.62322  0.26273  0.37557  1.0000
  C   C50       1.0  0.62449  0.23932  0.32231  1.0000
  C   C51       1.0  0.60218  0.20418  0.32949  1.0000
  C   C52       1.0  0.59647  0.18685  0.41213  1.0000
  C   C53       1.0  0.58584  0.18466  0.25235  1.0000
  C   C54       1.0  0.56412  0.14888  0.25787  1.0000
  C   C55       1.0  0.55834  0.13178  0.34063  1.0000
  C   C56       1.0  0.57451  0.15112  0.41768  1.0000
  C   C57       1.0  0.64102  0.37867  0.37553  1.0000
  C   C58       1.0  0.61632  0.37739  0.32229  1.0000
  C   C59       1.0  0.60349  0.39970  0.32947  1.0000
  C   C60       1.0  0.60031  0.41604  0.25234  1.0000
  C   C61       1.0  0.59188  0.40540  0.41211  1.0000
  C   C62       1.0  0.57809  0.42735  0.41768  1.0000
  C   C63       1.0  0.57493  0.44354  0.34064  1.0000
  C   C64       1.0  0.58626  0.43776  0.25787  1.0000
  H   H21       1.0  0.86662  0.41761  0.20128  1.0000
  H   H22       1.0  0.80557  0.39365  0.19135  1.0000
  H   H23       1.0  0.69138  0.29591  0.37221  1.0000
  H   H24       1.0  0.70598  0.39586  0.37219  1.0000
  H   H25       1.0  0.60604  0.31051  0.37225  1.0000
  H   H26       1.0  0.60823  0.41229  0.19138  1.0000
  H   H27       1.0  0.60846  0.20006  0.46895  1.0000
  H   H28       1.0  0.55251  0.13528  0.20130  1.0000
  H   H29       1.0  0.58960  0.19632  0.19139  1.0000
  H   H30       1.0  0.58426  0.44938  0.20131  1.0000
  H   H31       1.0  0.59310  0.39342  0.46893  1.0000
  H   H32       1.0  0.64186  0.24734  0.27360  1.0000
  H   H33       1.0  0.60502  0.25475  0.42209  1.0000
  H   H34       1.0  0.75455  0.39491  0.27355  1.0000
  H   H35       1.0  0.74714  0.35065  0.42204  1.0000
  H   H36       1.0  0.60698  0.36002  0.27359  1.0000
  H   H37       1.0  0.65124  0.39687  0.42207  1.0000
  N   N5        1.0  0.53698  0.09581  0.34901  1.0000
  H   H38       1.0  0.51371  0.08830  0.31927  1.0000
  N   N6        1.0  0.90608  0.44156  0.34900  1.0000
  H   H39       1.0  0.91359  0.42579  0.31929  1.0000
  N   N7        1.0  0.56032  0.46490  0.34902  1.0000
  H   H40       1.0  0.57610  0.48818  0.31930  1.0000
  C   C65       1.0  0.50946  0.47187  0.33398  1.0000
  C   C66       1.0  0.49983  0.48540  0.26155  1.0000
  C   C67       1.0  0.48449  0.50556  0.27529  1.0000
  H   H41       1.0  0.47797  0.51451  0.22044  1.0000
  H   H42       1.0  0.50363  0.48039  0.19722  1.0000
  C   C68       1.0  0.48782  0.50689  0.01118  1.0000
  O   O2        1.0  0.46105  0.50692  0.02472  1.0000
  O   O3        1.0  0.51265  0.52869  0.05424  1.0000
  H   H43       1.0  0.53415  0.53342  0.04754  1.0000
  C   C69       1.0  0.52470  0.44970  0.31452  1.0000
  H   H44       1.0  0.52473  0.44502  0.24277  1.0000
  H   H45       1.0  0.50839  0.42473  0.34583  1.0000
  C   C70       1.0  0.53002  0.03798  0.33398  1.0000
  C   C71       1.0  0.51650  0.01482  0.26155  1.0000
  C   C72       1.0  0.49633  0.97931  0.27530  1.0000
  H   H46       1.0  0.48738  0.96384  0.22045  1.0000
  H   H47       1.0  0.52150  0.02362  0.19721  1.0000
  C   C73       1.0  0.49501  0.98132  0.01119  1.0000
  O   O4        1.0  0.49499  0.95454  0.02474  1.0000
  O   O5        1.0  0.47321  0.98435  0.05425  1.0000
  H   H48       1.0  0.46848  0.00112  0.04754  1.0000
  C   C74       1.0  0.55219  0.07539  0.31451  1.0000
  H   H49       1.0  0.55687  0.08010  0.24275  1.0000
  H   H50       1.0  0.57715  0.08405  0.34581  1.0000
  C   C75       1.0  0.96392  0.49242  0.33396  1.0000
  C   C76       1.0  0.98708  0.50205  0.26155  1.0000
  H   H51       1.0  0.03806  0.52390  0.22046  1.0000
  H   H52       1.0  0.97828  0.49825  0.19721  1.0000
  O   O6        1.0  0.04735  0.54083  0.02475  1.0000
  H   H53       1.0  0.00077  0.46773  0.04753  1.0000
  C   C77       1.0  0.92651  0.47718  0.31449  1.0000
  H   H54       1.0  0.92180  0.47715  0.24274  1.0000
  H   H55       1.0  0.91785  0.49349  0.34578  1.0000
  H   H56       1.0  0.13514  0.52652  0.25369  1.0000
  H   H57       1.0  0.19584  0.55011  0.27427  1.0000
  H   H58       1.0  0.39293  0.86676  0.25362  1.0000
  H   H59       1.0  0.47535  0.60896  0.25356  1.0000
  H   H60       1.0  0.86274  0.43215  0.47801  1.0000
  H   H61       1.0  0.80182  0.40880  0.46889  1.0000
  H   H62       1.0  0.57090  0.13914  0.47804  1.0000
  H   H63       1.0  0.56974  0.43097  0.47805  1.0000
  C   C78       1.0  0.47807  0.51320  0.36216  1.0000
  C   C79       1.0  0.48845  0.50043  0.43518  1.0000
  C   C80       1.0  0.50374  0.47957  0.42252  1.0000
  N   N8        1.0  0.51207  0.46782  0.49765  1.0000
  C   C81       1.0  0.50728  0.47585  0.58206  1.0000
  C   C82       1.0  0.49264  0.49685  0.59426  1.0000
  N   N9        1.0  0.48386  0.50795  0.52014  1.0000
  O   O7        1.0  0.51645  0.46342  0.65285  1.0000
  H   H64       1.0  0.52196  0.45304  0.49232  1.0000
  C   C83       1.0  0.46067  0.53368  0.37833  1.0000
  H   H65       1.0  0.47882  0.55692  0.41432  1.0000
  H   H66       1.0  0.43866  0.51862  0.42206  1.0000
  C   C84       1.0  0.48870  0.96526  0.36217  1.0000
  C   C85       1.0  0.50147  0.98842  0.43518  1.0000
  C   C86       1.0  0.52232  0.02456  0.42252  1.0000
  N   N10       1.0  0.53407  0.04464  0.49764  1.0000
  C   C87       1.0  0.52605  0.03183  0.58206  1.0000
  C   C88       1.0  0.50505  0.99619  0.59427  1.0000
  N   N11       1.0  0.49395  0.97630  0.52015  1.0000
  O   O8        1.0  0.53848  0.05343  0.65283  1.0000
  H   H67       1.0  0.54885  0.06931  0.49230  1.0000
  C   C89       1.0  0.46821  0.92738  0.37836  1.0000
  H   H68       1.0  0.44498  0.92229  0.41435  1.0000
  H   H69       1.0  0.48328  0.92043  0.42208  1.0000
  C   C90       1.0  0.03663  0.52380  0.36218  1.0000
  C   C91       1.0  0.97733  0.49814  0.42251  1.0000
  N   N12       1.0  0.95725  0.48981  0.49763  1.0000
  C   C92       1.0  0.97005  0.49460  0.58205  1.0000
  O   O9        1.0  0.94846  0.48543  0.65283  1.0000
  H   H70       1.0  0.93258  0.47993  0.49229  1.0000
  C   C93       1.0  0.07452  0.54120  0.37837  1.0000
  H   H71       1.0  0.07960  0.52306  0.41438  1.0000
  H   H72       1.0  0.08147  0.56321  0.42208  1.0000
