data_image0
_chemical_formula_structural       C3NC3NC5NC5NC36H26N4C3NC3NC5NC5NC36H26N4C3NC3NC5NC5NC36H26N5C2OCH3CHNC2OCH3CHNC2OCH3CHNC2OCH3CHNC2OCH3CHNC2OCH3CHC16H16C16H16C16H16CNCOCH3CHCNCOCH3CHCNCOCH3CHCNCOCH3CHCNCOCH3CHCNCOCH3CH
_chemical_formula_sum              "C252 N36 H174 O12"
_cell_length_a       67.4465
_cell_length_b       67.4466
_cell_length_c       14.8658
_cell_angle_alpha    89.8352
_cell_angle_beta     90.1648
_cell_angle_gamma    120

_space_group_name_H-M_alt    "P 1"
_space_group_IT_number       1

loop_
  _space_group_symop_operation_xyz
  'x, y, z'

loop_
  _atom_site_type_symbol
  _atom_site_label
  _atom_site_symmetry_multiplicity
  _atom_site_fract_x
  _atom_site_fract_y
  _atom_site_fract_z
  _atom_site_occupancy
  C   C1        1.0  0.04858  0.50748  0.32445  1.0000
  C   C2        1.0  0.02492  0.49557  0.32661  1.0000
  C   C3        1.0  0.01725  0.51136  0.32317  1.0000
  N   N1        1.0  0.03657  0.53221  0.32004  1.0000
  C   C4        1.0  0.05600  0.53087  0.32081  1.0000
  C   C5        1.0  0.07932  0.54870  0.31806  1.0000
  C   C6        1.0  0.08666  0.57248  0.31781  1.0000
  N   N2        1.0  0.07369  0.58261  0.32083  1.0000
  C   C7        1.0  0.08656  0.60573  0.32046  1.0000
  C   C8        1.0  0.10930  0.61074  0.31670  1.0000
  C   C9        1.0  0.10937  0.59032  0.31554  1.0000
  C   C10       1.0  0.07909  0.62207  0.32316  1.0000
  C   C11       1.0  0.05568  0.61635  0.32332  1.0000
  N   N3        1.0  0.03637  0.59551  0.32011  1.0000
  C   C12       1.0  0.01694  0.59684  0.32099  1.0000
  C   C13       1.0  0.02436  0.62022  0.32482  1.0000
  C   C14       1.0  0.04802  0.63213  0.32697  1.0000
  C   C15       1.0  0.99362  0.57902  0.31814  1.0000
  C   C16       1.0  0.98628  0.55524  0.31779  1.0000
  N   N4        1.0  0.99925  0.54511  0.32075  1.0000
  C   C17       1.0  0.98638  0.52198  0.32048  1.0000
  C   C18       1.0  0.96364  0.51699  0.31688  1.0000
  C   C19       1.0  0.96357  0.53741  0.31568  1.0000
  C   C20       1.0  0.99385  0.50564  0.32315  1.0000
  C   C21       1.0  0.97650  0.48196  0.32674  1.0000
  C   C22       1.0  0.93874  0.43590  0.33009  1.0000
  C   C23       1.0  0.95185  0.44537  0.25099  1.0000
  C   C24       1.0  0.97028  0.46808  0.24901  1.0000
  C   C25       1.0  0.91922  0.41324  0.33095  1.0000
  C   C26       1.0  0.92015  0.39443  0.29346  1.0000
  C   C27       1.0  0.90099  0.37212  0.29568  1.0000
  C   C28       1.0  0.88005  0.36797  0.33320  1.0000
  C   C29       1.0  0.97619  0.58522  0.31617  1.0000
  C   C30       1.0  0.93815  0.59311  0.31388  1.0000
  C   C31       1.0  0.94663  0.58881  0.23350  1.0000
  C   C32       1.0  0.96532  0.58495  0.23447  1.0000
  C   C33       1.0  0.91843  0.59599  0.31322  1.0000
  C   C34       1.0  0.87843  0.60095  0.31456  1.0000
  C   C35       1.0  0.87936  0.58422  0.26080  1.0000
  C   C36       1.0  0.89895  0.58181  0.25997  1.0000
  C   C37       1.0  0.09642  0.64575  0.32662  1.0000
  C   C38       1.0  0.10231  0.65975  0.24912  1.0000
  C   C39       1.0  0.12057  0.68255  0.25114  1.0000
  C   C40       1.0  0.13382  0.69197  0.33005  1.0000
  C   C41       1.0  0.15311  0.71476  0.33100  1.0000
  C   C42       1.0  0.19178  0.76030  0.33360  1.0000
  C   C43       1.0  0.17064  0.75591  0.29705  1.0000
  C   C44       1.0  0.15171  0.73347  0.29464  1.0000
  C   C45       1.0  0.09677  0.54253  0.31604  1.0000
  C   C46       1.0  0.10750  0.54280  0.23422  1.0000
  C   C47       1.0  0.13514  0.53516  0.31368  1.0000
  C   C48       1.0  0.12635  0.53918  0.23323  1.0000
  C   C49       1.0  0.15508  0.53263  0.31300  1.0000
  C   C50       1.0  0.17436  0.54694  0.25913  1.0000
  C   C51       1.0  0.19416  0.54490  0.25997  1.0000
  C   C52       1.0  0.19553  0.52846  0.31444  1.0000
  H   H1        1.0  0.20781  0.55582  0.22097  1.0000
  H   H2        1.0  0.17445  0.55953  0.22025  1.0000
  H   H3        1.0  0.13368  0.53963  0.17257  1.0000
  H   H4        1.0  0.10203  0.54622  0.17497  1.0000
  H   H5        1.0  0.05854  0.50001  0.32604  1.0000
  H   H6        1.0  0.01513  0.47814  0.32973  1.0000
  H   H7        1.0  0.03650  0.54638  0.31598  1.0000
  H   H8        1.0  0.03644  0.58133  0.31579  1.0000
  H   H9        1.0  0.12382  0.58903  0.31329  1.0000
  H   H10       1.0  0.12370  0.62652  0.31479  1.0000
  H   H11       1.0  0.09364  0.65327  0.19007  1.0000
  H   H12       1.0  0.12471  0.69194  0.19303  1.0000
  H   H13       1.0  0.05781  0.64956  0.33021  1.0000
  H   H14       1.0  0.01441  0.62770  0.32644  1.0000
  H   H15       1.0  0.94923  0.50121  0.31509  1.0000
  H   H16       1.0  0.94912  0.53870  0.31359  1.0000
  H   H17       1.0  0.97061  0.58140  0.17524  1.0000
  H   H18       1.0  0.93921  0.58840  0.17290  1.0000
  H   H19       1.0  0.89854  0.56904  0.22160  1.0000
  H   H20       1.0  0.86555  0.57338  0.22224  1.0000
  H   H21       1.0  0.97880  0.47462  0.18977  1.0000
  H   H22       1.0  0.94745  0.43610  0.19267  1.0000
  H   H23       1.0  0.90237  0.35890  0.26898  1.0000
  H   H24       1.0  0.93506  0.39671  0.26606  1.0000
  H   H25       1.0  0.13663  0.73100  0.26805  1.0000
  H   H26       1.0  0.16893  0.76906  0.27120  1.0000
  N   N5        1.0  0.86235  0.34657  0.33594  1.0000
  N   N6        1.0  0.21522  0.52813  0.31308  1.0000
  N   N7        1.0  0.20925  0.78181  0.33646  1.0000
  N   N8        1.0  0.85893  0.60164  0.31319  1.0000
  C   C53       1.0  0.59442  0.63545  0.32632  1.0000
  C   C54       1.0  0.60634  0.62370  0.32835  1.0000
  C   C55       1.0  0.59055  0.60026  0.32506  1.0000
  N   N9        1.0  0.56970  0.59873  0.32205  1.0000
  C   C56       1.0  0.57103  0.61949  0.32285  1.0000
  C   C57       1.0  0.55321  0.62499  0.32019  1.0000
  C   C58       1.0  0.52942  0.60855  0.31990  1.0000
  N   N10       1.0  0.51929  0.58544  0.32284  1.0000
  C   C59       1.0  0.49616  0.57519  0.32243  1.0000
  C   C60       1.0  0.49116  0.59294  0.31872  1.0000
  C   C61       1.0  0.51158  0.61342  0.31764  1.0000
  C   C62       1.0  0.47981  0.55138  0.32504  1.0000
  C   C63       1.0  0.48554  0.53370  0.32521  1.0000
  N   N11       1.0  0.50639  0.53523  0.32207  1.0000
  C   C64       1.0  0.50505  0.51447  0.32296  1.0000
  C   C65       1.0  0.48167  0.49850  0.32666  1.0000
  C   C66       1.0  0.46976  0.51025  0.32883  1.0000
  C   C67       1.0  0.52287  0.50897  0.32016  1.0000
  C   C68       1.0  0.54665  0.52541  0.31981  1.0000
  N   N12       1.0  0.55679  0.54851  0.32271  1.0000
  C   C69       1.0  0.57992  0.55876  0.32242  1.0000
  C   C70       1.0  0.58491  0.54101  0.31888  1.0000
  C   C71       1.0  0.56449  0.52053  0.31775  1.0000
  C   C72       1.0  0.59627  0.58257  0.32502  1.0000
  C   C73       1.0  0.61995  0.58890  0.32843  1.0000
  C   C74       1.0  0.66601  0.59719  0.33143  1.0000
  C   C75       1.0  0.65649  0.60088  0.25237  1.0000
  C   C76       1.0  0.63378  0.59662  0.25058  1.0000
  C   C77       1.0  0.68867  0.60033  0.33210  1.0000
  C   C78       1.0  0.70745  0.62009  0.29432  1.0000
  C   C79       1.0  0.72976  0.62324  0.29640  1.0000
  C   C80       1.0  0.73394  0.60643  0.33396  1.0000
  C   C81       1.0  0.51668  0.48535  0.31821  1.0000
  C   C82       1.0  0.50878  0.43941  0.31597  1.0000
  C   C83       1.0  0.51311  0.45230  0.23558  1.0000
  C   C84       1.0  0.51696  0.47485  0.23652  1.0000
  C   C85       1.0  0.50590  0.41681  0.31534  1.0000
  C   C86       1.0  0.50093  0.37186  0.31672  1.0000
  C   C87       1.0  0.51768  0.38958  0.26303  1.0000
  C   C88       1.0  0.52011  0.41159  0.26223  1.0000
  C   C89       1.0  0.45612  0.54502  0.32835  1.0000
  C   C90       1.0  0.44216  0.53703  0.25076  1.0000
  C   C91       1.0  0.41937  0.53252  0.25259  1.0000
  C   C92       1.0  0.40989  0.53620  0.33143  1.0000
  C   C93       1.0  0.38710  0.53270  0.33221  1.0000
  C   C94       1.0  0.34153  0.52582  0.33436  1.0000
  C   C95       1.0  0.34596  0.50914  0.29778  1.0000
  C   C96       1.0  0.36841  0.51265  0.29563  1.0000
  C   C97       1.0  0.55938  0.64861  0.31818  1.0000
  C   C98       1.0  0.55912  0.65919  0.23638  1.0000
  C   C99       1.0  0.56675  0.69436  0.31587  1.0000
  C   C100      1.0  0.56274  0.68165  0.23541  1.0000
  C   C101      1.0  0.56926  0.71682  0.31522  1.0000
  C   C102      1.0  0.55496  0.72186  0.26129  1.0000
  C   C103      1.0  0.55699  0.74370  0.26212  1.0000
  C   C104      1.0  0.57342  0.76145  0.31665  1.0000
  H   H27       1.0  0.54608  0.74647  0.22306  1.0000
  H   H28       1.0  0.54239  0.70942  0.22234  1.0000
  H   H29       1.0  0.56231  0.68863  0.17476  1.0000
  H   H30       1.0  0.55571  0.65038  0.17711  1.0000
  H   H31       1.0  0.60190  0.65289  0.32772  1.0000
  H   H32       1.0  0.62377  0.63134  0.33126  1.0000
  H   H33       1.0  0.55552  0.58448  0.31838  1.0000
  H   H34       1.0  0.52056  0.54947  0.31782  1.0000
  H   H35       1.0  0.51287  0.62917  0.31542  1.0000
  H   H36       1.0  0.47538  0.59156  0.31678  1.0000
  H   H37       1.0  0.44866  0.53492  0.19176  1.0000
  H   H38       1.0  0.40999  0.52732  0.19444  1.0000
  H   H39       1.0  0.45233  0.50261  0.33196  1.0000
  H   H40       1.0  0.47419  0.48107  0.32830  1.0000
  H   H41       1.0  0.60069  0.54238  0.31713  1.0000
  H   H42       1.0  0.56319  0.50478  0.31571  1.0000
  H   H43       1.0  0.52054  0.48376  0.17731  1.0000
  H   H44       1.0  0.51354  0.44537  0.17501  1.0000
  H   H45       1.0  0.53288  0.42400  0.22387  1.0000
  H   H46       1.0  0.52853  0.38666  0.22457  1.0000
  H   H47       1.0  0.62721  0.59865  0.19138  1.0000
  H   H48       1.0  0.66574  0.60583  0.19399  1.0000
  H   H49       1.0  0.74297  0.63786  0.26951  1.0000
  H   H50       1.0  0.70516  0.63274  0.26694  1.0000
  H   H51       1.0  0.37089  0.50010  0.26889  1.0000
  H   H52       1.0  0.33283  0.49433  0.27170  1.0000
  N   N13       1.0  0.75533  0.61012  0.33653  1.0000
  N   N14       1.0  0.57374  0.78147  0.31524  1.0000
  N   N15       1.0  0.32002  0.52177  0.33701  1.0000
  N   N16       1.0  0.50023  0.35167  0.31541  1.0000
  C   C105      1.0  0.46640  0.05349  0.32730  1.0000
  C   C106      1.0  0.47819  0.07715  0.32950  1.0000
  C   C107      1.0  0.50164  0.08476  0.32684  1.0000
  N   N17       1.0  0.50312  0.06542  0.32429  1.0000
  C   C108      1.0  0.48233  0.04601  0.32453  1.0000
  C   C109      1.0  0.47678  0.02267  0.32181  1.0000
  C   C110      1.0  0.49320  0.01530  0.32188  1.0000
  N   N18       1.0  0.51631  0.02824  0.32459  1.0000
  C   C111      1.0  0.52653  0.01533  0.32449  1.0000
  C   C112      1.0  0.50876  0.99260  0.32133  1.0000
  C   C113      1.0  0.48829  0.99258  0.32029  1.0000
  C   C114      1.0  0.55034  0.02275  0.32685  1.0000
  C   C115      1.0  0.56805  0.04615  0.32670  1.0000
  N   N19       1.0  0.56656  0.06549  0.32344  1.0000
  C   C116      1.0  0.58734  0.08489  0.32418  1.0000
  C   C117      1.0  0.60328  0.07743  0.32790  1.0000
  C   C118      1.0  0.59149  0.05377  0.33020  1.0000
  C   C119      1.0  0.59290  0.10823  0.32135  1.0000
  C   C120      1.0  0.57649  0.11561  0.32122  1.0000
  N   N20       1.0  0.55338  0.10267  0.32426  1.0000
  C   C121      1.0  0.54316  0.11558  0.32412  1.0000
  C   C122      1.0  0.56094  0.13831  0.32050  1.0000
  C   C123      1.0  0.58140  0.13834  0.31916  1.0000
  C   C124      1.0  0.51936  0.10815  0.32679  1.0000
  C   C125      1.0  0.51307  0.12552  0.33008  1.0000
  C   C126      1.0  0.50475  0.16325  0.33314  1.0000
  C   C127      1.0  0.50114  0.15021  0.25397  1.0000
  C   C128      1.0  0.50542  0.13177  0.25216  1.0000
  C   C129      1.0  0.50159  0.18275  0.33388  1.0000
  C   C130      1.0  0.48183  0.18182  0.29596  1.0000
  C   C131      1.0  0.47867  0.20096  0.29809  1.0000
  C   C132      1.0  0.49544  0.22189  0.33591  1.0000
  C   C133      1.0  0.61653  0.12564  0.31909  1.0000
  C   C134      1.0  0.66246  0.16370  0.31616  1.0000
  C   C135      1.0  0.64951  0.15517  0.23596  1.0000
  C   C136      1.0  0.62696  0.13647  0.23723  1.0000
  C   C137      1.0  0.68506  0.18343  0.31517  1.0000
  C   C138      1.0  0.73001  0.22344  0.31571  1.0000
  C   C139      1.0  0.71223  0.22247  0.26219  1.0000
  C   C140      1.0  0.69023  0.20288  0.26177  1.0000
  C   C141      1.0  0.55667  0.00539  0.33020  1.0000
  C   C142      1.0  0.56472  0.99954  0.25271  1.0000
  C   C143      1.0  0.56929  0.98129  0.25462  1.0000
  C   C144      1.0  0.56557  0.96802  0.33344  1.0000
  C   C145      1.0  0.56911  0.94875  0.33428  1.0000
  C   C146      1.0  0.57604  0.91009  0.33644  1.0000
  C   C147      1.0  0.59274  0.93127  0.30005  1.0000
  C   C148      1.0  0.58919  0.95018  0.29784  1.0000
  C   C149      1.0  0.45314  0.00526  0.31890  1.0000
  C   C150      1.0  0.44301  0.99398  0.23735  1.0000
  C   C151      1.0  0.40739  0.96682  0.31557  1.0000
  C   C152      1.0  0.42057  0.97512  0.23589  1.0000
  C   C153      1.0  0.38494  0.94682  0.31462  1.0000
  C   C154      1.0  0.38011  0.92740  0.26203  1.0000
  C   C155      1.0  0.35829  0.90756  0.26252  1.0000
  C   C156      1.0  0.34035  0.90628  0.31547  1.0000
  H   H53       1.0  0.35567  0.89383  0.22440  1.0000
  H   H54       1.0  0.39268  0.92721  0.22438  1.0000
  H   H55       1.0  0.41397  0.96739  0.17542  1.0000
  H   H56       1.0  0.45217  0.99904  0.17873  1.0000
  H   H57       1.0  0.44896  0.04358  0.32810  1.0000
  H   H58       1.0  0.47059  0.08698  0.33189  1.0000
  H   H59       1.0  0.51735  0.06545  0.32122  1.0000
  H   H60       1.0  0.55233  0.06545  0.31923  1.0000
  H   H61       1.0  0.47254  0.97813  0.31859  1.0000
  H   H62       1.0  0.51010  0.97817  0.31975  1.0000
  H   H63       1.0  0.56684  0.00823  0.19369  1.0000
  H   H64       1.0  0.57451  0.97721  0.19650  1.0000
  H   H65       1.0  0.59911  0.04396  0.33357  1.0000
  H   H66       1.0  0.62071  0.08736  0.32957  1.0000
  H   H67       1.0  0.55958  0.15273  0.31879  1.0000
  H   H68       1.0  0.59715  0.15277  0.31701  1.0000
  H   H69       1.0  0.61800  0.13116  0.17814  1.0000
  H   H70       1.0  0.65638  0.16256  0.17526  1.0000
  H   H71       1.0  0.67778  0.20325  0.22356  1.0000
  H   H72       1.0  0.71510  0.23625  0.22356  1.0000
  H   H73       1.0  0.50343  0.12327  0.19291  1.0000
  H   H74       1.0  0.49622  0.15460  0.19557  1.0000
  H   H75       1.0  0.46406  0.19959  0.27108  1.0000
  H   H76       1.0  0.46922  0.16692  0.26839  1.0000
  H   H77       1.0  0.60175  0.96527  0.27127  1.0000
  H   H78       1.0  0.60756  0.93300  0.27412  1.0000
  N   N21       1.0  0.49173  0.23957  0.33846  1.0000
  N   N22       1.0  0.32036  0.88657  0.31386  1.0000
  N   N23       1.0  0.58010  0.89262  0.33918  1.0000
  N   N24       1.0  0.75020  0.24295  0.31398  1.0000
  N   N25       1.0  0.25625  0.52916  0.26580  1.0000
  C   C157      1.0  0.27798  0.53359  0.25064  1.0000
  C   C158      1.0  0.28956  0.52886  0.31957  1.0000
  O   O1        1.0  0.28801  0.54293  0.16987  1.0000
  C   C159      1.0  0.28485  0.52585  0.10472  1.0000
  H   H79       1.0  0.29332  0.53460  0.04270  1.0000
  H   H80       1.0  0.26672  0.51440  0.09017  1.0000
  H   H81       1.0  0.29256  0.51576  0.12705  1.0000
  C   C160      1.0  0.31242  0.53510  0.31271  1.0000
  H   H82       1.0  0.32316  0.55034  0.28612  1.0000
  N   N26       1.0  0.57266  0.82149  0.26793  1.0000
  C   C161      1.0  0.56825  0.83882  0.25262  1.0000
  C   C162      1.0  0.57302  0.85509  0.32140  1.0000
  O   O2        1.0  0.55890  0.83958  0.17183  1.0000
  C   C163      1.0  0.57597  0.85348  0.10650  1.0000
  H   H83       1.0  0.56722  0.85325  0.04447  1.0000
  H   H84       1.0  0.58737  0.84674  0.09204  1.0000
  H   H85       1.0  0.58612  0.87126  0.12857  1.0000
  C   C164      1.0  0.56684  0.87176  0.31431  1.0000
  H   H86       1.0  0.55166  0.86734  0.28725  1.0000
  N   N27       1.0  0.28033  0.84559  0.26581  1.0000
  C   C165      1.0  0.26303  0.82386  0.25042  1.0000
  C   C166      1.0  0.24677  0.81224  0.31918  1.0000
  O   O3        1.0  0.26227  0.81389  0.16956  1.0000
  C   C167      1.0  0.24831  0.81709  0.10439  1.0000
  H   H87       1.0  0.24854  0.80866  0.04231  1.0000
  H   H88       1.0  0.25499  0.83524  0.08999  1.0000
  H   H89       1.0  0.23054  0.80938  0.12659  1.0000
  C   C168      1.0  0.23013  0.78940  0.31203  1.0000
  H   H90       1.0  0.23459  0.77867  0.28524  1.0000
  N   N28       1.0  0.81819  0.60129  0.26592  1.0000
  C   C169      1.0  0.79655  0.59721  0.25085  1.0000
  C   C170      1.0  0.78531  0.60232  0.31953  1.0000
  O   O4        1.0  0.78629  0.58786  0.17041  1.0000
  C   C171      1.0  0.78973  0.60494  0.10446  1.0000
  H   H91       1.0  0.78108  0.59618  0.04273  1.0000
  H   H92       1.0  0.80790  0.61606  0.08963  1.0000
  H   H93       1.0  0.78240  0.61538  0.12616  1.0000
  C   C172      1.0  0.76255  0.59648  0.31277  1.0000
  H   H94       1.0  0.75156  0.58126  0.28680  1.0000
  N   N29       1.0  0.50052  0.31130  0.26813  1.0000
  C   C173      1.0  0.50460  0.29376  0.25319  1.0000
  C   C174      1.0  0.49954  0.27737  0.32202  1.0000
  O   O5        1.0  0.51393  0.29291  0.17273  1.0000
  C   C175      1.0  0.49683  0.27925  0.10702  1.0000
  H   H95       1.0  0.50557  0.27940  0.04528  1.0000
  H   H96       1.0  0.48565  0.28624  0.09210  1.0000
  H   H97       1.0  0.48646  0.26146  0.12900  1.0000
  C   C176      1.0  0.50544  0.26050  0.31546  1.0000
  H   H98       1.0  0.52074  0.26484  0.29012  1.0000
  N   N30       1.0  0.79055  0.28367  0.26594  1.0000
  C   C177      1.0  0.80808  0.30530  0.25073  1.0000
  C   C178      1.0  0.82455  0.31658  0.31931  1.0000
  O   O6        1.0  0.80886  0.31553  0.17023  1.0000
  C   C179      1.0  0.82249  0.31216  0.10441  1.0000
  H   H99       1.0  0.82227  0.32078  0.04263  1.0000
  H   H100      1.0  0.81551  0.29400  0.08965  1.0000
  H   H101      1.0  0.84029  0.31958  0.12617  1.0000
  C   C180      1.0  0.84145  0.33934  0.31238  1.0000
  H   H102      1.0  0.83716  0.35031  0.28646  1.0000
  C   C181      1.0  0.96390  0.47244  0.40653  1.0000
  C   C182      1.0  0.94528  0.44986  0.40794  1.0000
  C   C183      1.0  0.87898  0.38664  0.37079  1.0000
  C   C184      1.0  0.89823  0.40885  0.36976  1.0000
  C   C185      1.0  0.96810  0.58977  0.39660  1.0000
  C   C186      1.0  0.94949  0.59377  0.39527  1.0000
  C   C187      1.0  0.91743  0.61280  0.36694  1.0000
  C   C188      1.0  0.89787  0.61527  0.36760  1.0000
  C   C189      1.0  0.12764  0.67788  0.40765  1.0000
  C   C190      1.0  0.10918  0.65522  0.40622  1.0000
  C   C191      1.0  0.17430  0.71938  0.36884  1.0000
  C   C192      1.0  0.19332  0.74174  0.37002  1.0000
  C   C193      1.0  0.10516  0.53822  0.39654  1.0000
  C   C194      1.0  0.12393  0.53447  0.39517  1.0000
  C   C195      1.0  0.17630  0.51401  0.36809  1.0000
  C   C196      1.0  0.15652  0.51611  0.36740  1.0000
  H   H103      1.0  0.17650  0.50187  0.40870  1.0000
  H   H104      1.0  0.14297  0.50516  0.40668  1.0000
  H   H105      1.0  0.12996  0.53222  0.45529  1.0000
  H   H106      1.0  0.09807  0.53845  0.45704  1.0000
  H   H107      1.0  0.10548  0.64546  0.46323  1.0000
  H   H108      1.0  0.13655  0.68404  0.46643  1.0000
  H   H109      1.0  0.97531  0.58958  0.45705  1.0000
  H   H110      1.0  0.94368  0.59622  0.45535  1.0000
  H   H111      1.0  0.89799  0.62760  0.40769  1.0000
  H   H112      1.0  0.93114  0.62367  0.40575  1.0000
  H   H113      1.0  0.89664  0.42192  0.39679  1.0000
  H   H114      1.0  0.86417  0.38411  0.39996  1.0000
  H   H115      1.0  0.93647  0.44368  0.46686  1.0000
  H   H116      1.0  0.96781  0.48212  0.46369  1.0000
  H   H117      1.0  0.17622  0.70639  0.39505  1.0000
  H   H118      1.0  0.20830  0.74444  0.39848  1.0000
  C   C197      1.0  0.62952  0.58575  0.40817  1.0000
  C   C198      1.0  0.65210  0.58971  0.40941  1.0000
  C   C199      1.0  0.71530  0.58666  0.37180  1.0000
  C   C200      1.0  0.69308  0.58370  0.37095  1.0000
  C   C201      1.0  0.51212  0.47261  0.39865  1.0000
  C   C202      1.0  0.50811  0.44999  0.39734  1.0000
  C   C203      1.0  0.48907  0.39894  0.36896  1.0000
  C   C204      1.0  0.48659  0.37690  0.36965  1.0000
  C   C205      1.0  0.42395  0.54400  0.40912  1.0000
  C   C206      1.0  0.44662  0.54820  0.40786  1.0000
  C   C207      1.0  0.38244  0.54920  0.37011  1.0000
  C   C208      1.0  0.36007  0.54586  0.37105  1.0000
  C   C209      1.0  0.56368  0.66120  0.39870  1.0000
  C   C210      1.0  0.56743  0.68372  0.39736  1.0000
  C   C211      1.0  0.58785  0.75659  0.37037  1.0000
  C   C212      1.0  0.58577  0.73472  0.36968  1.0000
  H   H119      1.0  0.59998  0.76888  0.41100  1.0000
  H   H120      1.0  0.59671  0.73208  0.40902  1.0000
  H   H121      1.0  0.56966  0.69192  0.45748  1.0000
  H   H122      1.0  0.56344  0.65380  0.45920  1.0000
  H   H123      1.0  0.45635  0.55418  0.46493  1.0000
  H   H124      1.0  0.41777  0.54668  0.46786  1.0000
  H   H125      1.0  0.51227  0.47992  0.45906  1.0000
  H   H126      1.0  0.50562  0.44164  0.45741  1.0000
  H   H127      1.0  0.47424  0.36464  0.40968  1.0000
  H   H128      1.0  0.47818  0.40173  0.40769  1.0000
  H   H129      1.0  0.68003  0.56903  0.39821  1.0000
  H   H130      1.0  0.71785  0.57437  0.40104  1.0000
  H   H131      1.0  0.65831  0.58703  0.46829  1.0000
  H   H132      1.0  0.61986  0.57992  0.46540  1.0000
  H   H133      1.0  0.39541  0.56405  0.39648  1.0000
  H   H134      1.0  0.35735  0.55808  0.39954  1.0000
  C   C213      1.0  0.51615  0.13808  0.40991  1.0000
  C   C214      1.0  0.51218  0.15669  0.41117  1.0000
  C   C215      1.0  0.51519  0.22296  0.37391  1.0000
  C   C216      1.0  0.51817  0.20372  0.37299  1.0000
  C   C217      1.0  0.62934  0.13378  0.39935  1.0000
  C   C218      1.0  0.65195  0.15239  0.39769  1.0000
  C   C219      1.0  0.70299  0.18448  0.36865  1.0000
  C   C220      1.0  0.72502  0.20405  0.36891  1.0000
  C   C221      1.0  0.55771  0.97415  0.41103  1.0000
  C   C222      1.0  0.55346  0.99258  0.40969  1.0000
  C   C223      1.0  0.55262  0.92752  0.37206  1.0000
  C   C224      1.0  0.55598  0.90852  0.37299  1.0000
  C   C225      1.0  0.44007  0.99742  0.39855  1.0000
  C   C226      1.0  0.41756  0.97864  0.39667  1.0000
  C   C227      1.0  0.34499  0.92563  0.36790  1.0000
  C   C228      1.0  0.36683  0.94546  0.36742  1.0000
  H   H135      1.0  0.33255  0.92550  0.40732  1.0000
  H   H136      1.0  0.36929  0.95909  0.40569  1.0000
  H   H137      1.0  0.40903  0.97300  0.45641  1.0000
  H   H138      1.0  0.44711  0.00492  0.45896  1.0000
  H   H139      1.0  0.54746  0.99626  0.46673  1.0000
  H   H140      1.0  0.55501  0.96521  0.46976  1.0000
  H   H141      1.0  0.62207  0.12659  0.45989  1.0000
  H   H142      1.0  0.66035  0.15824  0.45766  1.0000
  H   H143      1.0  0.73732  0.20396  0.40885  1.0000
  H   H144      1.0  0.70024  0.17080  0.40756  1.0000
  H   H145      1.0  0.53284  0.20531  0.40033  1.0000
  H   H146      1.0  0.52746  0.23775  0.40332  1.0000
  H   H147      1.0  0.51481  0.16547  0.47012  1.0000
  H   H148      1.0  0.52195  0.13415  0.46718  1.0000
  H   H149      1.0  0.53774  0.92558  0.39832  1.0000
  H   H150      1.0  0.54376  0.89352  0.40140  1.0000
  C   C229      1.0  0.24453  0.51998  0.34348  1.0000
  N   N31       1.0  0.27789  0.51962  0.39716  1.0000
  C   C230      1.0  0.25604  0.51490  0.41183  1.0000
  O   O7        1.0  0.24604  0.50545  0.49256  1.0000
  C   C231      1.0  0.25025  0.52232  0.56016  1.0000
  H   H151      1.0  0.24170  0.51337  0.62176  1.0000
  H   H152      1.0  0.24329  0.53326  0.54053  1.0000
  H   H153      1.0  0.26853  0.53295  0.57422  1.0000
  C   C232      1.0  0.22241  0.51608  0.35423  1.0000
  H   H154      1.0  0.21224  0.50427  0.39823  1.0000
  C   C233      1.0  0.58186  0.81889  0.34561  1.0000
  N   N32       1.0  0.58230  0.85261  0.39897  1.0000
  C   C234      1.0  0.58700  0.83544  0.41378  1.0000
  O   O8        1.0  0.59649  0.83485  0.49449  1.0000
  C   C235      1.0  0.57966  0.82217  0.56229  1.0000
  H   H155      1.0  0.58864  0.82253  0.62385  1.0000
  H   H156      1.0  0.56869  0.80428  0.54290  1.0000
  H   H157      1.0  0.56906  0.82984  0.57632  1.0000
  C   C236      1.0  0.58576  0.80064  0.35649  1.0000
  H   H158      1.0  0.59752  0.80222  0.40067  1.0000
  C   C237      1.0  0.28291  0.85725  0.34358  1.0000
  N   N33       1.0  0.24924  0.82386  0.39687  1.0000
  C   C238      1.0  0.26638  0.84571  0.41178  1.0000
  O   O9        1.0  0.26696  0.85565  0.49257  1.0000
  C   C239      1.0  0.27976  0.85150  0.56012  1.0000
  H   H159      1.0  0.27939  0.86000  0.62177  1.0000
  H   H160      1.0  0.29765  0.85853  0.54052  1.0000
  H   H161      1.0  0.27220  0.83322  0.57409  1.0000
  C   C240      1.0  0.30111  0.87938  0.35455  1.0000
  H   H162      1.0  0.29944  0.88955  0.39825  1.0000
  C   C241      1.0  0.83011  0.61046  0.34328  1.0000
  N   N34       1.0  0.79720  0.61157  0.39679  1.0000
  C   C242      1.0  0.81896  0.61593  0.41136  1.0000
  O   O10       1.0  0.82920  0.62543  0.49173  1.0000
  C   C243      1.0  0.82483  0.60860  0.56006  1.0000
  H   H163      1.0  0.83358  0.61759  0.62133  1.0000
  H   H164      1.0  0.83146  0.59738  0.54100  1.0000
  H   H165      1.0  0.80654  0.59826  0.57448  1.0000
  C   C244      1.0  0.85212  0.61400  0.35393  1.0000
  H   H166      1.0  0.86250  0.62578  0.39755  1.0000
  C   C245      1.0  0.49139  0.31399  0.34553  1.0000
  N   N35       1.0  0.49035  0.27996  0.39934  1.0000
  C   C246      1.0  0.48598  0.29734  0.41379  1.0000
  O   O11       1.0  0.47654  0.29803  0.49423  1.0000
  C   C247      1.0  0.49342  0.31049  0.56229  1.0000
  H   H167      1.0  0.48449  0.31023  0.62363  1.0000
  H   H168      1.0  0.50461  0.32836  0.54293  1.0000
  H   H169      1.0  0.50380  0.30257  0.57671  1.0000
  C   C248      1.0  0.48784  0.33245  0.35607  1.0000
  H   H170      1.0  0.47603  0.33098  0.39954  1.0000
  C   C249      1.0  0.78793  0.27177  0.34336  1.0000
  N   N36       1.0  0.82204  0.30472  0.39661  1.0000
  C   C250      1.0  0.80467  0.28296  0.41133  1.0000
  O   O12       1.0  0.80406  0.27276  0.49174  1.0000
  C   C251      1.0  0.79165  0.27709  0.55999  1.0000
  H   H171      1.0  0.79199  0.26837  0.62132  1.0000
  H   H172      1.0  0.77375  0.27038  0.54091  1.0000
  H   H173      1.0  0.79954  0.29537  0.57430  1.0000
  C   C252      1.0  0.76949  0.24976  0.35418  1.0000
  H   H174      1.0  0.77102  0.23939  0.39757  1.0000
