data_image0
_chemical_formula_structural       C3NC3NC5NC5NC36H26C4H4C3NC3NC5NC5NC36H26C4H4C3NC3NC5NC5NC36H26C4H4CN6CN3CN6CN3C16H16C16H16C16H16C3HC2H3ONC4HC2H3ONC3HC2H3ONC3HC2H3ONC4HC2H3ONC3HC2H3ON
_chemical_formula_sum              "C252 N36 H162 O6"
_cell_length_a       67.4091
_cell_length_b       67.409
_cell_length_c       14.809
_cell_angle_alpha    89.7164
_cell_angle_beta     90.2836
_cell_angle_gamma    120

_space_group_name_H-M_alt    "P 1"
_space_group_IT_number       1

loop_
  _space_group_symop_operation_xyz
  'x, y, z'

loop_
  _atom_site_type_symbol
  _atom_site_label
  _atom_site_symmetry_multiplicity
  _atom_site_fract_x
  _atom_site_fract_y
  _atom_site_fract_z
  _atom_site_occupancy
  C   C1        1.0  0.05280  0.63625  0.33113  1.0000
  C   C2        1.0  0.02911  0.62425  0.33035  1.0000
  C   C3        1.0  0.02176  0.60084  0.33118  1.0000
  N   N1        1.0  0.04124  0.59958  0.33260  1.0000
  C   C4        1.0  0.06051  0.62049  0.33222  1.0000
  C   C5        1.0  0.08393  0.62625  0.33228  1.0000
  C   C6        1.0  0.09154  0.61001  0.33186  1.0000
  N   N2        1.0  0.07875  0.58687  0.33245  1.0000
  C   C7        1.0  0.09183  0.57683  0.33082  1.0000
  C   C8        1.0  0.11452  0.59477  0.32901  1.0000
  C   C9        1.0  0.11435  0.61514  0.32991  1.0000
  C   C10       1.0  0.08457  0.55305  0.33035  1.0000
  C   C11       1.0  0.06127  0.53514  0.33108  1.0000
  N   N3        1.0  0.04179  0.53640  0.33216  1.0000
  C   C12       1.0  0.02252  0.51550  0.33219  1.0000
  C   C13       1.0  0.03023  0.49973  0.33155  1.0000
  C   C14       1.0  0.05391  0.51174  0.33083  1.0000
  C   C15       1.0  0.99910  0.50973  0.33241  1.0000
  C   C16       1.0  0.99149  0.52597  0.33213  1.0000
  N   N4        1.0  0.00427  0.54911  0.33249  1.0000
  C   C17       1.0  0.99120  0.55915  0.33114  1.0000
  C   C18       1.0  0.96850  0.54121  0.32989  1.0000
  C   C19       1.0  0.96868  0.52084  0.33065  1.0000
  C   C20       1.0  0.99845  0.58293  0.33045  1.0000
  C   C21       1.0  0.98091  0.58895  0.32651  1.0000
  C   C22       1.0  0.97224  0.59107  0.24226  1.0000
  C   C23       1.0  0.95287  0.59381  0.23764  1.0000
  C   C24       1.0  0.94141  0.59441  0.31674  1.0000
  C   C25       1.0  0.92058  0.59528  0.31138  1.0000
  C   C26       1.0  0.87835  0.59624  0.30031  1.0000
  C   C27       1.0  0.88273  0.58225  0.24231  1.0000
  C   C28       1.0  0.90334  0.58176  0.24781  1.0000
  C   C29       1.0  0.98185  0.48604  0.33062  1.0000
  C   C30       1.0  0.97292  0.47486  0.24752  1.0000
  C   C31       1.0  0.95434  0.45225  0.24532  1.0000
  C   C32       1.0  0.94393  0.44000  0.32578  1.0000
  C   C33       1.0  0.92425  0.41734  0.32266  1.0000
  C   C34       1.0  0.92250  0.40108  0.25808  1.0000
  C   C35       1.0  0.90262  0.37940  0.25078  1.0000
  C   C36       1.0  0.88375  0.37296  0.30874  1.0000
  C   C37       1.0  0.10210  0.54701  0.32676  1.0000
  C   C38       1.0  0.14123  0.54098  0.31645  1.0000
  C   C39       1.0  0.12902  0.54074  0.23781  1.0000
  C   C40       1.0  0.10984  0.54377  0.24267  1.0000
  C   C41       1.0  0.16183  0.53971  0.31052  1.0000
  C   C42       1.0  0.17843  0.55216  0.24345  1.0000
  C   C43       1.0  0.19882  0.55130  0.23750  1.0000
  C   C44       1.0  0.20364  0.53801  0.29852  1.0000
  C   C45       1.0  0.10120  0.64994  0.33039  1.0000
  C   C46       1.0  0.11010  0.66117  0.24725  1.0000
  C   C47       1.0  0.12881  0.68372  0.24500  1.0000
  C   C48       1.0  0.13938  0.69584  0.32543  1.0000
  C   C49       1.0  0.15923  0.71839  0.32226  1.0000
  C   C50       1.0  0.20007  0.76251  0.30816  1.0000
  C   C51       1.0  0.18117  0.75634  0.25005  1.0000
  C   C52       1.0  0.16113  0.73479  0.25744  1.0000
  H   H1        1.0  0.18191  0.76744  0.20092  1.0000
  H   H2        1.0  0.14789  0.73115  0.21403  1.0000
  H   H3        1.0  0.13526  0.69084  0.18325  1.0000
  H   H4        1.0  0.10349  0.65274  0.18767  1.0000
  H   H5        1.0  0.06259  0.65372  0.33035  1.0000
  H   H6        1.0  0.01908  0.63166  0.32920  1.0000
  H   H7        1.0  0.04136  0.58540  0.33324  1.0000
  H   H8        1.0  0.04167  0.55059  0.33229  1.0000
  H   H9        1.0  0.12870  0.63099  0.32855  1.0000
  H   H10       1.0  0.12903  0.59355  0.32704  1.0000
  H   H11       1.0  0.10199  0.54431  0.18409  1.0000
  H   H12       1.0  0.13420  0.53868  0.17545  1.0000
  H   H13       1.0  0.06393  0.50432  0.33022  1.0000
  H   H14       1.0  0.02044  0.48227  0.33137  1.0000
  H   H15       1.0  0.95398  0.54243  0.32839  1.0000
  H   H16       1.0  0.95432  0.50498  0.32964  1.0000
  H   H17       1.0  0.97943  0.48337  0.18790  1.0000
  H   H18       1.0  0.94787  0.44515  0.18359  1.0000
  H   H19       1.0  0.90200  0.36841  0.20186  1.0000
  H   H20       1.0  0.93574  0.40491  0.21483  1.0000
  H   H21       1.0  0.90540  0.57096  0.20554  1.0000
  H   H22       1.0  0.87081  0.57204  0.19533  1.0000
  H   H23       1.0  0.94697  0.59501  0.17519  1.0000
  H   H24       1.0  0.97950  0.58986  0.18352  1.0000
  H   H25       1.0  0.17606  0.56244  0.19884  1.0000
  H   H26       1.0  0.21028  0.56074  0.18796  1.0000
  C   C53       1.0  0.85777  0.59640  0.29184  1.0000
  C   C54       1.0  0.86364  0.35225  0.29567  1.0000
  C   C55       1.0  0.22404  0.53753  0.28984  1.0000
  C   C56       1.0  0.22031  0.78310  0.29501  1.0000
  H   H27       1.0  0.84842  0.58972  0.23625  1.0000
  H   H28       1.0  0.22549  0.78810  0.23191  1.0000
  H   H29       1.0  0.23309  0.54378  0.23342  1.0000
  H   H30       1.0  0.85834  0.34733  0.23260  1.0000
  C   C57       1.0  0.47198  0.50846  0.33440  1.0000
  C   C58       1.0  0.48399  0.49678  0.33374  1.0000
  C   C59       1.0  0.50739  0.51283  0.33465  1.0000
  N   N5        1.0  0.50865  0.53357  0.33602  1.0000
  C   C60       1.0  0.48775  0.53194  0.33552  1.0000
  C   C61       1.0  0.48198  0.54960  0.33550  1.0000
  C   C62       1.0  0.49823  0.57345  0.33519  1.0000
  N   N6        1.0  0.52137  0.58380  0.33588  1.0000
  C   C63       1.0  0.53140  0.60692  0.33428  1.0000
  C   C64       1.0  0.51347  0.61168  0.33242  1.0000
  C   C65       1.0  0.49310  0.59113  0.33314  1.0000
  C   C66       1.0  0.55518  0.62344  0.33384  1.0000
  C   C67       1.0  0.57309  0.61804  0.33453  1.0000
  N   N7        1.0  0.57183  0.59730  0.33560  1.0000
  C   C68       1.0  0.59273  0.59893  0.33553  1.0000
  C   C69       1.0  0.60850  0.62241  0.33483  1.0000
  C   C70       1.0  0.59650  0.63409  0.33419  1.0000
  C   C71       1.0  0.59850  0.58128  0.33573  1.0000
  C   C72       1.0  0.58226  0.55742  0.33550  1.0000
  N   N8        1.0  0.55912  0.54707  0.33593  1.0000
  C   C73       1.0  0.54908  0.52396  0.33463  1.0000
  C   C74       1.0  0.56701  0.51920  0.33336  1.0000
  C   C75       1.0  0.58739  0.53975  0.33403  1.0000
  C   C76       1.0  0.52530  0.50744  0.33398  1.0000
  C   C77       1.0  0.51928  0.48388  0.33013  1.0000
  C   C78       1.0  0.51712  0.47325  0.24589  1.0000
  C   C79       1.0  0.51439  0.45116  0.24129  1.0000
  C   C80       1.0  0.51380  0.43893  0.32041  1.0000
  C   C81       1.0  0.51294  0.41725  0.31507  1.0000
  C   C82       1.0  0.51194  0.37407  0.30394  1.0000
  C   C83       1.0  0.52593  0.39257  0.24588  1.0000
  C   C84       1.0  0.52644  0.41366  0.25143  1.0000
  C   C85       1.0  0.62219  0.58771  0.33366  1.0000
  C   C86       1.0  0.63332  0.59018  0.25041  1.0000
  C   C87       1.0  0.65593  0.59421  0.24792  1.0000
  C   C88       1.0  0.66823  0.59587  0.32821  1.0000
  C   C89       1.0  0.69090  0.59887  0.32477  1.0000
  C   C90       1.0  0.70711  0.61354  0.26011  1.0000
  C   C91       1.0  0.72878  0.61536  0.25243  1.0000
  C   C92       1.0  0.73527  0.60279  0.31009  1.0000
  C   C93       1.0  0.56123  0.64701  0.33027  1.0000
  C   C94       1.0  0.56727  0.69220  0.32010  1.0000
  C   C95       1.0  0.56752  0.68042  0.24142  1.0000
  C   C96       1.0  0.56449  0.65820  0.24623  1.0000
  C   C97       1.0  0.56852  0.71408  0.31422  1.0000
  C   C98       1.0  0.55607  0.71838  0.24717  1.0000
  C   C99       1.0  0.55693  0.73964  0.24124  1.0000
  C   C100      1.0  0.57022  0.75761  0.30228  1.0000
  C   C101      1.0  0.45830  0.54318  0.33329  1.0000
  C   C102      1.0  0.44711  0.54098  0.24998  1.0000
  C   C103      1.0  0.42458  0.53716  0.24736  1.0000
  C   C104      1.0  0.41240  0.53547  0.32758  1.0000
  C   C105      1.0  0.38985  0.53277  0.32402  1.0000
  C   C106      1.0  0.34572  0.52948  0.30907  1.0000
  C   C107      1.0  0.35194  0.51685  0.25139  1.0000
  C   C108      1.0  0.37349  0.51835  0.25918  1.0000
  H   H31       1.0  0.34087  0.50654  0.20227  1.0000
  H   H32       1.0  0.37716  0.50881  0.21608  1.0000
  H   H33       1.0  0.41748  0.53657  0.18549  1.0000
  H   H34       1.0  0.45558  0.54289  0.19052  1.0000
  H   H35       1.0  0.45452  0.50080  0.33355  1.0000
  H   H36       1.0  0.47657  0.47934  0.33258  1.0000
  H   H37       1.0  0.52283  0.54788  0.33670  1.0000
  H   H38       1.0  0.55765  0.58299  0.33584  1.0000
  H   H39       1.0  0.47725  0.58964  0.33170  1.0000
  H   H40       1.0  0.51469  0.62741  0.33035  1.0000
  H   H41       1.0  0.56394  0.64994  0.18761  1.0000
  H   H42       1.0  0.56959  0.68781  0.17909  1.0000
  H   H43       1.0  0.60392  0.65153  0.33356  1.0000
  H   H44       1.0  0.62597  0.63008  0.33460  1.0000
  H   H45       1.0  0.56580  0.50347  0.33189  1.0000
  H   H46       1.0  0.60324  0.54125  0.33301  1.0000
  H   H47       1.0  0.62478  0.58835  0.19090  1.0000
  H   H48       1.0  0.66300  0.59502  0.18608  1.0000
  H   H49       1.0  0.73973  0.62584  0.20344  1.0000
  H   H50       1.0  0.70324  0.62305  0.21706  1.0000
  H   H51       1.0  0.53723  0.42660  0.20911  1.0000
  H   H52       1.0  0.53612  0.39094  0.19885  1.0000
  H   H53       1.0  0.51318  0.44420  0.17886  1.0000
  H   H54       1.0  0.51836  0.48187  0.18713  1.0000
  H   H55       1.0  0.54580  0.70583  0.20252  1.0000
  H   H56       1.0  0.54749  0.74177  0.19168  1.0000
  C   C109      1.0  0.51175  0.35333  0.29538  1.0000
  C   C110      1.0  0.75596  0.60341  0.29657  1.0000
  C   C111      1.0  0.57070  0.77851  0.29360  1.0000
  C   C112      1.0  0.32514  0.52915  0.29549  1.0000
  H   H57       1.0  0.51831  0.35074  0.23953  1.0000
  H   H58       1.0  0.32016  0.52938  0.23228  1.0000
  H   H59       1.0  0.56446  0.78144  0.23717  1.0000
  H   H60       1.0  0.76077  0.60310  0.23340  1.0000
  C   C113      1.0  0.59976  0.05543  0.33672  1.0000
  C   C114      1.0  0.61144  0.07912  0.33584  1.0000
  C   C115      1.0  0.59539  0.08647  0.33688  1.0000
  N   N9        1.0  0.57466  0.06699  0.33853  1.0000
  C   C116      1.0  0.57629  0.04771  0.33810  1.0000
  C   C117      1.0  0.55863  0.02429  0.33832  1.0000
  C   C118      1.0  0.53478  0.01669  0.33795  1.0000
  N   N10       1.0  0.52443  0.02947  0.33848  1.0000
  C   C119      1.0  0.50131  0.01639  0.33671  1.0000
  C   C120      1.0  0.49655  0.99371  0.33487  1.0000
  C   C121      1.0  0.51710  0.99388  0.33591  1.0000
  C   C122      1.0  0.48479  0.02365  0.33602  1.0000
  C   C123      1.0  0.49019  0.04696  0.33681  1.0000
  N   N11       1.0  0.51092  0.06643  0.33814  1.0000
  C   C124      1.0  0.50930  0.08571  0.33808  1.0000
  C   C125      1.0  0.48581  0.07800  0.33724  1.0000
  C   C126      1.0  0.47414  0.05431  0.33637  1.0000
  C   C127      1.0  0.52695  0.10913  0.33837  1.0000
  C   C128      1.0  0.55080  0.11674  0.33808  1.0000
  N   N12       1.0  0.56115  0.10395  0.33838  1.0000
  C   C129      1.0  0.58426  0.11703  0.33694  1.0000
  C   C130      1.0  0.58902  0.13973  0.33573  1.0000
  C   C131      1.0  0.56847  0.13955  0.33659  1.0000
  C   C132      1.0  0.60078  0.10977  0.33612  1.0000
  C   C133      1.0  0.62433  0.12732  0.33177  1.0000
  C   C134      1.0  0.63483  0.13592  0.24729  1.0000
  C   C135      1.0  0.65692  0.15529  0.24218  1.0000
  C   C136      1.0  0.66925  0.16682  0.32102  1.0000
  C   C137      1.0  0.69093  0.18765  0.31517  1.0000
  C   C138      1.0  0.73408  0.22985  0.30296  1.0000
  C   C139      1.0  0.71548  0.22543  0.24544  1.0000
  C   C140      1.0  0.69440  0.20484  0.25151  1.0000
  C   C141      1.0  0.52050  0.12638  0.33644  1.0000
  C   C142      1.0  0.51799  0.13522  0.25326  1.0000
  C   C143      1.0  0.51394  0.15379  0.25087  1.0000
  C   C144      1.0  0.51233  0.16427  0.33123  1.0000
  C   C145      1.0  0.50932  0.18394  0.32789  1.0000
  C   C146      1.0  0.49460  0.18560  0.26343  1.0000
  C   C147      1.0  0.49277  0.20546  0.25584  1.0000
  C   C148      1.0  0.50538  0.22441  0.31340  1.0000
  C   C149      1.0  0.46122  0.00613  0.33193  1.0000
  C   C150      1.0  0.41605  0.96700  0.32068  1.0000
  C   C151      1.0  0.42796  0.97926  0.24228  1.0000
  C   C152      1.0  0.45018  0.99844  0.24762  1.0000
  C   C153      1.0  0.39419  0.94640  0.31429  1.0000
  C   C154      1.0  0.39000  0.92984  0.24718  1.0000
  C   C155      1.0  0.36875  0.90944  0.24078  1.0000
  C   C156      1.0  0.35068  0.90459  0.30133  1.0000
  C   C157      1.0  0.56505  0.00703  0.33622  1.0000
  C   C158      1.0  0.56729  0.99823  0.25299  1.0000
  C   C159      1.0  0.57112  0.97952  0.25049  1.0000
  C   C160      1.0  0.57276  0.96885  0.33078  1.0000
  C   C161      1.0  0.57546  0.94901  0.32734  1.0000
  C   C162      1.0  0.57874  0.90819  0.31263  1.0000
  C   C163      1.0  0.59140  0.92717  0.25495  1.0000
  C   C164      1.0  0.58989  0.94719  0.26263  1.0000
  H   H61       1.0  0.60172  0.92651  0.20593  1.0000
  H   H62       1.0  0.59945  0.96049  0.21955  1.0000
  H   H63       1.0  0.57169  0.97312  0.18867  1.0000
  H   H64       1.0  0.56537  0.00489  0.19347  1.0000
  H   H65       1.0  0.60743  0.04564  0.33588  1.0000
  H   H66       1.0  0.62888  0.08915  0.33451  1.0000
  H   H67       1.0  0.56035  0.06686  0.33948  1.0000
  H   H68       1.0  0.52523  0.06656  0.33845  1.0000
  H   H69       1.0  0.51860  0.97953  0.33434  1.0000
  H   H70       1.0  0.48083  0.97920  0.33263  1.0000
  H   H71       1.0  0.45852  0.00632  0.18920  1.0000
  H   H72       1.0  0.42067  0.97411  0.17978  1.0000
  H   H73       1.0  0.45669  0.04429  0.33555  1.0000
  H   H74       1.0  0.47814  0.08779  0.33688  1.0000
  H   H75       1.0  0.60474  0.15424  0.33421  1.0000
  H   H76       1.0  0.56697  0.15391  0.33562  1.0000
  H   H77       1.0  0.51981  0.12865  0.19369  1.0000
  H   H78       1.0  0.51312  0.16020  0.18907  1.0000
  H   H79       1.0  0.48226  0.20603  0.20696  1.0000
  H   H80       1.0  0.48506  0.17230  0.22043  1.0000
  H   H81       1.0  0.68139  0.20274  0.20954  1.0000
  H   H82       1.0  0.71702  0.23731  0.19840  1.0000
  H   H83       1.0  0.66378  0.16115  0.17960  1.0000
  H   H84       1.0  0.62613  0.12864  0.18872  1.0000
  H   H85       1.0  0.40263  0.93223  0.20293  1.0000
  H   H86       1.0  0.36671  0.89801  0.19125  1.0000
  C   C165      1.0  0.75480  0.25041  0.29387  1.0000
  C   C166      1.0  0.50474  0.24450  0.29994  1.0000
  C   C167      1.0  0.32980  0.88419  0.29218  1.0000
  C   C168      1.0  0.57907  0.88797  0.29912  1.0000
  H   H87       1.0  0.75729  0.25964  0.23799  1.0000
  H   H88       1.0  0.57886  0.88290  0.23592  1.0000
  H   H89       1.0  0.32699  0.87515  0.23582  1.0000
  H   H90       1.0  0.50493  0.24971  0.23677  1.0000
  C   C169      1.0  0.29218  0.52759  0.36079  1.0000
  N   N13       1.0  0.28583  0.53586  0.28888  1.0000
  N   N14       1.0  0.26676  0.53651  0.28576  1.0000
  N   N15       1.0  0.31220  0.52798  0.36135  1.0000
  N   N16       1.0  0.57236  0.84197  0.29259  1.0000
  N   N17       1.0  0.57171  0.82225  0.28949  1.0000
  N   N18       1.0  0.58023  0.87606  0.36502  1.0000
  C   C170      1.0  0.25171  0.81605  0.36099  1.0000
  N   N19       1.0  0.26633  0.82240  0.28962  1.0000
  N   N20       1.0  0.28606  0.84148  0.28699  1.0000
  N   N21       1.0  0.23208  0.79603  0.36112  1.0000
  C   C171      1.0  0.78937  0.60567  0.36183  1.0000
  N   N22       1.0  0.79557  0.59723  0.29071  1.0000
  N   N23       1.0  0.81479  0.59686  0.28765  1.0000
  N   N24       1.0  0.76919  0.60497  0.36242  1.0000
  N   N25       1.0  0.51084  0.29027  0.29394  1.0000
  N   N26       1.0  0.51121  0.30987  0.29097  1.0000
  N   N27       1.0  0.50331  0.25609  0.36586  1.0000
  C   C172      1.0  0.83270  0.31892  0.36179  1.0000
  N   N28       1.0  0.81786  0.31256  0.29077  1.0000
  N   N29       1.0  0.79826  0.29334  0.28831  1.0000
  N   N30       1.0  0.85216  0.33911  0.36183  1.0000
  C   C173      1.0  0.95067  0.59294  0.40101  1.0000
  C   C174      1.0  0.97000  0.59010  0.40592  1.0000
  C   C175      1.0  0.91614  0.60918  0.36985  1.0000
  C   C176      1.0  0.89550  0.60972  0.36430  1.0000
  C   C177      1.0  0.95323  0.45135  0.40879  1.0000
  C   C178      1.0  0.97182  0.47398  0.41133  1.0000
  C   C179      1.0  0.88549  0.38887  0.37459  1.0000
  C   C180      1.0  0.90536  0.41062  0.38133  1.0000
  C   C181      1.0  0.11376  0.54671  0.40583  1.0000
  C   C182      1.0  0.13292  0.54363  0.40068  1.0000
  C   C183      1.0  0.18711  0.52559  0.36591  1.0000
  C   C184      1.0  0.16669  0.52650  0.37189  1.0000
  C   C185      1.0  0.11136  0.66188  0.41107  1.0000
  C   C186      1.0  0.13008  0.68444  0.40847  1.0000
  C   C187      1.0  0.17814  0.72483  0.38108  1.0000
  C   C188      1.0  0.19817  0.74646  0.37433  1.0000
  H   H91       1.0  0.21170  0.75004  0.41609  1.0000
  H   H92       1.0  0.17795  0.71342  0.42736  1.0000
  H   H93       1.0  0.13697  0.69247  0.46845  1.0000
  H   H94       1.0  0.10553  0.65403  0.47230  1.0000
  H   H95       1.0  0.10888  0.54959  0.46749  1.0000
  H   H96       1.0  0.14149  0.54454  0.45913  1.0000
  H   H97       1.0  0.97769  0.48179  0.47254  1.0000
  H   H98       1.0  0.94646  0.44323  0.46879  1.0000
  H   H99       1.0  0.90543  0.42192  0.42739  1.0000
  H   H100      1.0  0.87196  0.38508  0.41625  1.0000
  H   H101      1.0  0.97553  0.58799  0.46781  1.0000
  H   H102      1.0  0.94265  0.59264  0.45990  1.0000
  H   H103      1.0  0.89323  0.62026  0.40728  1.0000
  H   H104      1.0  0.92816  0.61946  0.41626  1.0000
  H   H105      1.0  0.15513  0.51698  0.42090  1.0000
  H   H106      1.0  0.18971  0.51559  0.41124  1.0000
  C   C189      1.0  0.51532  0.44951  0.40466  1.0000
  C   C190      1.0  0.51812  0.47166  0.40956  1.0000
  C   C191      1.0  0.49905  0.39879  0.37358  1.0000
  C   C192      1.0  0.49849  0.37762  0.36802  1.0000
  C   C193      1.0  0.65693  0.59361  0.41138  1.0000
  C   C194      1.0  0.63430  0.58957  0.41421  1.0000
  C   C195      1.0  0.71940  0.58844  0.37605  1.0000
  C   C196      1.0  0.69765  0.58654  0.38310  1.0000
  C   C197      1.0  0.56154  0.65879  0.40939  1.0000
  C   C198      1.0  0.56461  0.68105  0.40429  1.0000
  C   C199      1.0  0.58263  0.75335  0.36969  1.0000
  C   C200      1.0  0.58173  0.73202  0.37562  1.0000
  C   C201      1.0  0.44630  0.54127  0.41377  1.0000
  C   C202      1.0  0.42374  0.53745  0.41081  1.0000
  C   C203      1.0  0.38336  0.54515  0.38242  1.0000
  C   C204      1.0  0.36174  0.54356  0.37522  1.0000
  H   H107      1.0  0.35813  0.55344  0.41673  1.0000
  H   H108      1.0  0.39474  0.55631  0.42871  1.0000
  H   H109      1.0  0.41568  0.53622  0.47065  1.0000
  H   H110      1.0  0.45412  0.54322  0.47511  1.0000
  H   H111      1.0  0.55861  0.65087  0.47101  1.0000
  H   H112      1.0  0.56368  0.68856  0.46275  1.0000
  H   H113      1.0  0.62653  0.58748  0.47552  1.0000
  H   H114      1.0  0.66509  0.59483  0.47126  1.0000
  H   H115      1.0  0.68640  0.57523  0.42932  1.0000
  H   H116      1.0  0.72323  0.57862  0.41756  1.0000
  H   H117      1.0  0.52029  0.47919  0.47143  1.0000
  H   H118      1.0  0.51561  0.44166  0.46356  1.0000
  H   H119      1.0  0.48796  0.36472  0.41102  1.0000
  H   H120      1.0  0.48879  0.40044  0.42006  1.0000
  H   H121      1.0  0.59125  0.72986  0.42464  1.0000
  H   H122      1.0  0.59262  0.76584  0.41503  1.0000
  C   C205      1.0  0.65881  0.15763  0.40552  1.0000
  C   C206      1.0  0.63667  0.13828  0.41092  1.0000
  C   C207      1.0  0.70949  0.19214  0.37321  1.0000
  C   C208      1.0  0.73065  0.21276  0.36708  1.0000
  C   C209      1.0  0.51463  0.15505  0.41434  1.0000
  C   C210      1.0  0.51869  0.13647  0.41705  1.0000
  C   C211      1.0  0.51975  0.22275  0.37924  1.0000
  C   C212      1.0  0.52167  0.20290  0.38620  1.0000
  C   C213      1.0  0.44932  0.99444  0.41077  1.0000
  C   C214      1.0  0.42708  0.97526  0.40514  1.0000
  C   C215      1.0  0.35482  0.92107  0.36876  1.0000
  C   C216      1.0  0.37614  0.94150  0.37520  1.0000
  C   C217      1.0  0.56693  0.99677  0.41677  1.0000
  C   C218      1.0  0.57076  0.97805  0.41394  1.0000
  C   C219      1.0  0.56306  0.93002  0.38577  1.0000
  C   C220      1.0  0.56463  0.90999  0.37863  1.0000
  H   H123      1.0  0.55475  0.89642  0.42017  1.0000
  H   H124      1.0  0.55189  0.93015  0.43195  1.0000
  H   H125      1.0  0.57196  0.97109  0.47383  1.0000
  H   H126      1.0  0.56496  0.00252  0.47807  1.0000
  H   H127      1.0  0.45713  0.99926  0.47257  1.0000
  H   H128      1.0  0.41947  0.96666  0.46344  1.0000
  H   H129      1.0  0.52080  0.13065  0.47831  1.0000
  H   H130      1.0  0.51345  0.16187  0.47426  1.0000
  H   H131      1.0  0.53304  0.20287  0.43218  1.0000
  H   H132      1.0  0.52963  0.23634  0.42056  1.0000
  H   H133      1.0  0.62924  0.13279  0.47296  1.0000
  H   H134      1.0  0.66675  0.16567  0.46425  1.0000
  H   H135      1.0  0.74362  0.21506  0.40971  1.0000
  H   H136      1.0  0.70792  0.18015  0.41963  1.0000
  H   H137      1.0  0.37822  0.95303  0.42424  1.0000
  H   H138      1.0  0.34226  0.91845  0.41378  1.0000
  C   C221      1.0  0.25130  0.52894  0.35434  1.0000
  C   C222      1.0  0.25649  0.52006  0.43149  1.0000
  C   C223      1.0  0.27720  0.51947  0.43603  1.0000
  H   H139      1.0  0.24523  0.51415  0.48442  1.0000
  C   C224      1.0  0.28245  0.51054  0.51107  1.0000
  C   C225      1.0  0.28692  0.52243  0.59667  1.0000
  H   H140      1.0  0.29854  0.54080  0.58759  1.0000
  H   H141      1.0  0.29503  0.51606  0.64358  1.0000
  H   H142      1.0  0.27101  0.51979  0.62675  1.0000
  O   O1        1.0  0.27204  0.48961  0.51617  1.0000
  N   N31       1.0  0.23209  0.53003  0.35190  1.0000
  C   C226      1.0  0.57928  0.81422  0.35808  1.0000
  C   C227      1.0  0.58815  0.82812  0.43525  1.0000
  C   C228      1.0  0.58873  0.84941  0.43976  1.0000
  C   C229      1.0  0.58062  0.85643  0.36450  1.0000
  H   H143      1.0  0.59405  0.82265  0.48818  1.0000
  C   C230      1.0  0.59765  0.86343  0.51480  1.0000
  C   C231      1.0  0.58577  0.85582  0.60041  1.0000
  H   H144      1.0  0.56740  0.84908  0.59134  1.0000
  H   H145      1.0  0.59213  0.87020  0.64731  1.0000
  H   H146      1.0  0.58843  0.84250  0.63050  1.0000
  O   O2        1.0  0.61858  0.87395  0.51990  1.0000
  N   N32       1.0  0.57819  0.79393  0.35568  1.0000
  C   C232      1.0  0.29393  0.85693  0.35559  1.0000
  C   C233      1.0  0.27986  0.85173  0.43222  1.0000
  C   C234      1.0  0.25855  0.83102  0.43621  1.0000
  H   H147      1.0  0.28522  0.86298  0.48519  1.0000
  C   C235      1.0  0.24436  0.82575  0.51085  1.0000
  C   C236      1.0  0.25169  0.82065  0.59575  1.0000
  H   H148      1.0  0.25781  0.80856  0.58567  1.0000
  H   H149      1.0  0.23731  0.81285  0.64271  1.0000
  H   H150      1.0  0.26540  0.83625  0.62628  1.0000
  O   O3        1.0  0.23433  0.83662  0.51580  1.0000
  N   N33       1.0  0.31424  0.87614  0.35370  1.0000
  C   C237      1.0  0.83055  0.60493  0.35550  1.0000
  C   C238      1.0  0.82552  0.61401  0.43181  1.0000
  C   C239      1.0  0.80466  0.61430  0.43628  1.0000
  H   H151      1.0  0.83700  0.62027  0.48421  1.0000
  C   C240      1.0  0.79955  0.62341  0.51060  1.0000
  C   C241      1.0  0.79486  0.61132  0.59605  1.0000
  H   H152      1.0  0.78284  0.59305  0.58689  1.0000
  H   H153      1.0  0.78714  0.61797  0.64290  1.0000
  H   H154      1.0  0.81063  0.61346  0.62622  1.0000
  O   O4        1.0  0.81028  0.64434  0.51455  1.0000
  N   N34       1.0  0.84991  0.60412  0.35313  1.0000
  C   C242      1.0  0.50336  0.31751  0.35923  1.0000
  C   C243      1.0  0.49450  0.30333  0.43592  1.0000
  C   C244      1.0  0.49420  0.28217  0.44029  1.0000
  C   C245      1.0  0.50260  0.27556  0.36538  1.0000
  H   H155      1.0  0.48839  0.30851  0.48861  1.0000
  C   C246      1.0  0.48532  0.26788  0.51493  1.0000
  C   C247      1.0  0.49659  0.27530  0.60180  1.0000
  H   H156      1.0  0.51508  0.28262  0.59484  1.0000
  H   H157      1.0  0.49033  0.26072  0.64792  1.0000
  H   H158      1.0  0.49323  0.28813  0.63147  1.0000
  O   O5        1.0  0.46436  0.25679  0.51663  1.0000
  N   N35       1.0  0.50417  0.33769  0.35692  1.0000
  C   C248      1.0  0.79074  0.27775  0.35675  1.0000
  C   C249      1.0  0.80506  0.28295  0.43302  1.0000
  C   C250      1.0  0.82623  0.30381  0.43684  1.0000
  H   H159      1.0  0.79998  0.27159  0.48583  1.0000
  C   C251      1.0  0.84064  0.30910  0.51108  1.0000
  C   C252      1.0  0.83341  0.31293  0.59806  1.0000
  H   H160      1.0  0.82617  0.32418  0.59116  1.0000
  H   H161      1.0  0.84807  0.32115  0.64381  1.0000
  H   H162      1.0  0.82057  0.29674  0.62816  1.0000
  O   O6        1.0  0.85166  0.29916  0.51265  1.0000
  N   N36       1.0  0.77056  0.25838  0.35495  1.0000
