data_image0
_chemical_formula_structural       C3NC3NC5NC5NC36H26C4H4C2H3NCNC2H3NCNC16H16C2H3NCNC2H3NCN
_chemical_formula_sum              "C84 N12 H58"
_cell_length_a       34.2536
_cell_length_b       34.2536
_cell_length_c       14.6448
_cell_angle_alpha    90
_cell_angle_beta     90
_cell_angle_gamma    90.1689

_space_group_name_H-M_alt    "P 1"
_space_group_IT_number       1

loop_
  _space_group_symop_operation_xyz
  'x, y, z'

loop_
  _atom_site_type_symbol
  _atom_site_label
  _atom_site_symmetry_multiplicity
  _atom_site_fract_x
  _atom_site_fract_y
  _atom_site_fract_z
  _atom_site_occupancy
  C   C1        1.0  0.11454  0.08612  0.33923  1.0000
  C   C2        1.0  0.08582  0.11436  0.33902  1.0000
  C   C3        1.0  0.04946  0.09576  0.34057  1.0000
  N   N1        1.0  0.05764  0.05697  0.34138  1.0000
  C   C4        1.0  0.09656  0.04944  0.34012  1.0000
  C   C5        1.0  0.11674  0.01306  0.33963  1.0000
  C   C6        1.0  0.09806  0.97590  0.33944  1.0000
  N   N2        1.0  0.05932  0.96788  0.34035  1.0000
  C   C7        1.0  0.05194  0.92902  0.33899  1.0000
  C   C8        1.0  0.08843  0.91093  0.33729  1.0000
  C   C9        1.0  0.11675  0.93973  0.33732  1.0000
  C   C10       1.0  0.01510  0.90970  0.33929  1.0000
  C   C11       1.0  0.97838  0.92922  0.34011  1.0000
  N   N3        1.0  0.97019  0.96801  0.34013  1.0000
  C   C12       1.0  0.93125  0.97551  0.34009  1.0000
  C   C13       1.0  0.91331  0.93880  0.34076  1.0000
  C   C14       1.0  0.94204  0.91058  0.34043  1.0000
  C   C15       1.0  0.91105  0.01188  0.33981  1.0000
  C   C16       1.0  0.92976  0.04904  0.34024  1.0000
  N   N4        1.0  0.96850  0.05708  0.34088  1.0000
  C   C17       1.0  0.97590  0.09594  0.34031  1.0000
  C   C18       1.0  0.93939  0.11401  0.33973  1.0000
  C   C19       1.0  0.91107  0.08522  0.33916  1.0000
  C   C20       1.0  0.01274  0.11530  0.34020  1.0000
  C   C21       1.0  0.01271  0.15716  0.33751  1.0000
  C   C22       1.0  0.00604  0.17715  0.25461  1.0000
  C   C23       1.0  0.00453  0.21825  0.25221  1.0000
  C   C24       1.0  0.00979  0.24102  0.33220  1.0000
  C   C25       1.0  0.00645  0.28289  0.32991  1.0000
  C   C26       1.0  0.99849  0.36685  0.32523  1.0000
  C   C27       1.0  0.97267  0.34208  0.27647  1.0000
  C   C28       1.0  0.97659  0.30118  0.27865  1.0000
  C   C29       1.0  0.86919  0.01109  0.33707  1.0000
  C   C30       1.0  0.84931  0.00392  0.25420  1.0000
  C   C31       1.0  0.80822  0.00218  0.25150  1.0000
  C   C32       1.0  0.78532  0.00774  0.33116  1.0000
  C   C33       1.0  0.74343  0.00445  0.32849  1.0000
  C   C34       1.0  0.72501  0.97445  0.27759  1.0000
  C   C35       1.0  0.68407  0.97065  0.27489  1.0000
  C   C36       1.0  0.65941  0.99671  0.32283  1.0000
  C   C37       1.0  0.01511  0.86787  0.33665  1.0000
  C   C38       1.0  0.01680  0.78395  0.33043  1.0000
  C   C39       1.0  0.01891  0.80681  0.24973  1.0000
  C   C40       1.0  0.01810  0.84792  0.25259  1.0000
  C   C41       1.0  0.01846  0.74194  0.32679  1.0000
  C   C42       1.0  0.04374  0.72267  0.26495  1.0000
  C   C43       1.0  0.04453  0.68168  0.25795  1.0000
  C   C44       1.0  0.02034  0.65789  0.31324  1.0000
  C   C45       1.0  0.15858  0.01382  0.33699  1.0000
  C   C46       1.0  0.17851  0.01927  0.25354  1.0000
  C   C47       1.0  0.21962  0.02037  0.25074  1.0000
  C   C48       1.0  0.24250  0.01602  0.33089  1.0000
  C   C49       1.0  0.28451  0.01775  0.32737  1.0000
  C   C50       1.0  0.36852  0.01980  0.31353  1.0000
  C   C51       1.0  0.34490  0.04574  0.26273  1.0000
  C   C52       1.0  0.30391  0.04487  0.26992  1.0000
  H   H1        1.0  0.35738  0.06554  0.21907  1.0000
  H   H2        1.0  0.28830  0.06453  0.23221  1.0000
  H   H3        1.0  0.23275  0.02382  0.18850  1.0000
  H   H4        1.0  0.16317  0.02251  0.19403  1.0000
  H   H5        1.0  0.14381  0.09198  0.33807  1.0000
  H   H6        1.0  0.09118  0.14372  0.33757  1.0000
  H   H7        1.0  0.03796  0.03696  0.34233  1.0000
  H   H8        1.0  0.98986  0.98803  0.33916  1.0000
  H   H9        1.0  0.14613  0.93462  0.33575  1.0000
  H   H10       1.0  0.09403  0.88165  0.33593  1.0000
  H   H11       1.0  0.01981  0.86325  0.19270  1.0000
  H   H12       1.0  0.02055  0.79368  0.18712  1.0000
  H   H13       1.0  0.93672  0.88121  0.34047  1.0000
  H   H14       1.0  0.88405  0.93291  0.34135  1.0000
  H   H15       1.0  0.93375  0.14329  0.33933  1.0000
  H   H16       1.0  0.88170  0.09035  0.33811  1.0000
  H   H17       1.0  0.86470  0.99961  0.19515  1.0000
  H   H18       1.0  0.79509  0.99710  0.18988  1.0000
  H   H19       1.0  0.67242  0.94827  0.23725  1.0000
  H   H20       1.0  0.74134  0.95432  0.24302  1.0000
  H   H21       1.0  0.95660  0.28475  0.24355  1.0000
  H   H22       1.0  0.95038  0.35363  0.23856  1.0000
  H   H23       1.0  0.99969  0.23146  0.19060  1.0000
  H   H24       1.0  0.00180  0.16184  0.19538  1.0000
  H   H25       1.0  0.06214  0.73839  0.22390  1.0000
  H   H26       1.0  0.06298  0.66933  0.21115  1.0000
  C   C53       1.0  0.99333  0.40738  0.32123  1.0000
  C   C54       1.0  0.61883  0.99168  0.31832  1.0000
  C   C55       1.0  0.02016  0.61756  0.29986  1.0000
  C   C56       1.0  0.40879  0.01973  0.29956  1.0000
  H   H27       1.0  0.96949  0.41752  0.29036  1.0000
  H   H28       1.0  0.41850  0.02647  0.23743  1.0000
  H   H29       1.0  0.02583  0.60776  0.23724  1.0000
  H   H30       1.0  0.60853  0.96809  0.28650  1.0000
  C   C57       1.0  0.01699  0.49426  0.27144  1.0000
  C   C58       1.0  0.02055  0.47752  0.17882  1.0000
  H   H31       1.0  0.04624  0.45881  0.17515  1.0000
  H   H32       1.0  0.02353  0.50041  0.12738  1.0000
  H   H33       1.0  0.99463  0.46034  0.16247  1.0000
  N   N5        1.0  0.01651  0.53381  0.28061  1.0000
  C   C59       1.0  0.01446  0.55338  0.36148  1.0000
  N   N6        1.0  0.01459  0.59248  0.36425  1.0000
  C   C60       1.0  0.53202  0.01571  0.26979  1.0000
  C   C61       1.0  0.54870  0.01969  0.17717  1.0000
  H   H34       1.0  0.56763  0.04534  0.17413  1.0000
  H   H35       1.0  0.52578  0.02302  0.12596  1.0000
  H   H36       1.0  0.56562  0.99380  0.15996  1.0000
  N   N7        1.0  0.49248  0.01528  0.27918  1.0000
  C   C62       1.0  0.47299  0.01287  0.36013  1.0000
  N   N8        1.0  0.43391  0.01306  0.36321  1.0000
  C   C63       1.0  0.01724  0.22068  0.41471  1.0000
  C   C64       1.0  0.01849  0.17952  0.41751  1.0000
  C   C65       1.0  0.03221  0.30763  0.37906  1.0000
  C   C66       1.0  0.02844  0.34868  0.37653  1.0000
  C   C67       1.0  0.80555  0.01556  0.41368  1.0000
  C   C68       1.0  0.84671  0.01707  0.41677  1.0000
  C   C69       1.0  0.67772  0.02679  0.37379  1.0000
  C   C70       1.0  0.71879  0.03044  0.37682  1.0000
  C   C71       1.0  0.01260  0.84552  0.41755  1.0000
  C   C72       1.0  0.01332  0.80435  0.41433  1.0000
  C   C73       1.0  0.99560  0.67680  0.37663  1.0000
  C   C74       1.0  0.99475  0.71795  0.38324  1.0000
  C   C75       1.0  0.18097  0.00912  0.41728  1.0000
  C   C76       1.0  0.22213  0.01010  0.41411  1.0000
  C   C77       1.0  0.30833  0.99224  0.37936  1.0000
  C   C78       1.0  0.34947  0.99317  0.37263  1.0000
  H   H37       1.0  0.36536  0.97332  0.40922  1.0000
  H   H38       1.0  0.29585  0.97154  0.42049  1.0000
  H   H39       1.0  0.23715  0.00739  0.47415  1.0000
  H   H40       1.0  0.16738  0.00520  0.47887  1.0000
  H   H41       1.0  0.01060  0.85914  0.47958  1.0000
  H   H42       1.0  0.01235  0.78937  0.47472  1.0000
  H   H43       1.0  0.86023  0.02215  0.47797  1.0000
  H   H44       1.0  0.79048  0.01909  0.47340  1.0000
  H   H45       1.0  0.73059  0.05294  0.41369  1.0000
  H   H46       1.0  0.66129  0.04642  0.40965  1.0000
  H   H47       1.0  0.02312  0.16591  0.47876  1.0000
  H   H48       1.0  0.02046  0.23567  0.47467  1.0000
  H   H49       1.0  0.04788  0.36520  0.41303  1.0000
  H   H50       1.0  0.05457  0.29594  0.41631  1.0000
  H   H51       1.0  0.97540  0.73030  0.42780  1.0000
  H   H52       1.0  0.97708  0.66079  0.41684  1.0000
  C   C79       1.0  0.01149  0.54624  0.53577  1.0000
  C   C80       1.0  0.01313  0.53038  0.44195  1.0000
  H   H53       1.0  0.98523  0.53550  0.56982  1.0000
  H   H54       1.0  0.01094  0.57808  0.53707  1.0000
  H   H55       1.0  0.03700  0.53650  0.57403  1.0000
  N   N9        1.0  0.01396  0.49077  0.43300  1.0000
  C   C81       1.0  0.01533  0.47140  0.35207  1.0000
  N   N10       1.0  0.01753  0.43252  0.35445  1.0000
  C   C82       1.0  0.48030  0.00891  0.53427  1.0000
  C   C83       1.0  0.49606  0.01101  0.44040  1.0000
  H   H56       1.0  0.49085  0.98245  0.56748  1.0000
  H   H57       1.0  0.44846  0.00845  0.53577  1.0000
  H   H58       1.0  0.49032  0.03419  0.57321  1.0000
  N   N11       1.0  0.53567  0.01179  0.43123  1.0000
  C   C84       1.0  0.55496  0.01355  0.35023  1.0000
  N   N12       1.0  0.59386  0.01565  0.35258  1.0000
