data_image0
_chemical_formula_structural       CNC4H2CH3CNC4H2CH3C4HCNHCH3C4HCNHCH3CNC4H2CH3CNC4H2CH3C4HCNHCH3C4HCNHCH3CNC4H2CH3CNC4H2CH3CNC4H2CH3CNC4H2CH3C4HCNHCH3C4HCNHCH3CNC4H2CH3CNC4H2CH3C4HCNHCH3C4HCNHCH3CNC4H2CH3CNC4H2CH3C4HCNHCH3C4HCNHCH3CNC4H2CH3CNC4H2CH3CNCNCNCNCNCNCNCNCNCNCNCNCNCNCNCNCNCNCNCNCNCNCNCNCNCNCNCNCNCNCNCNCNCNCNCNCNCNCNCNCNCNCNCNCNCNCNCNC4HCNHCH3C4HCNHCH3CNC4H2CH3CNC4H2CH3C4HCNHCH3C4HCNHCH3CNC4H2CH3CNC4H2CH3C4HCNHCH3C4HCNHCH3C4HCNHCH3C4HCNHCH3CNC4H2CH3CNC4H2CH3C4HCNHCH3C4HCNHCH3CNC4H2CH3CNC4H2CH3C4HCNHCH3C4HCNHCH3CNC4H2CH3CNC4H2CH3C4HCNHCH3C4HCNHCH3
_chemical_formula_sum              "C336 N96 H240"
_cell_length_a       66.3757
_cell_length_b       52.0487
_cell_length_c       14.8502
_cell_angle_alpha    90
_cell_angle_beta     90
_cell_angle_gamma    90

_space_group_name_H-M_alt    "P 1"
_space_group_IT_number       1

loop_
  _space_group_symop_operation_xyz
  'x, y, z'

loop_
  _atom_site_type_symbol
  _atom_site_label
  _atom_site_symmetry_multiplicity
  _atom_site_fract_x
  _atom_site_fract_y
  _atom_site_fract_z
  _atom_site_occupancy
  C   C1        1.0  0.98881  0.05908  0.36444  1.0000
  N   N1        1.0  0.98972  0.03303  0.36234  1.0000
  C   C2        1.0  0.00436  0.99106  0.34348  1.0000
  C   C3        1.0  0.98715  0.97716  0.31202  1.0000
  C   C4        1.0  0.98750  0.94985  0.31532  1.0000
  C   C5        1.0  0.00431  0.93579  0.34730  1.0000
  H   H1        1.0  0.97530  0.93988  0.29181  1.0000
  H   H2        1.0  0.97524  0.06747  0.37836  1.0000
  C   C6        1.0  0.96922  0.99002  0.27205  1.0000
  H   H3        1.0  0.97394  0.00325  0.21911  1.0000
  H   H4        1.0  0.96111  0.00061  0.32400  1.0000
  H   H5        1.0  0.95862  0.97645  0.24199  1.0000
  C   C7        1.0  0.48863  0.55909  0.36381  1.0000
  N   N2        1.0  0.48955  0.53304  0.36179  1.0000
  C   C8        1.0  0.50422  0.49104  0.34342  1.0000
  C   C9        1.0  0.48701  0.47711  0.31219  1.0000
  C   C10       1.0  0.48738  0.44980  0.31550  1.0000
  C   C11       1.0  0.50422  0.43577  0.34727  1.0000
  H   H6        1.0  0.47517  0.43980  0.29213  1.0000
  H   H7        1.0  0.47505  0.56748  0.37742  1.0000
  C   C12       1.0  0.46903  0.48993  0.27242  1.0000
  H   H8        1.0  0.47370  0.50316  0.21936  1.0000
  H   H9        1.0  0.46094  0.50052  0.32443  1.0000
  H   H10       1.0  0.45842  0.47634  0.24254  1.0000
  C   C13       1.0  0.12813  0.23962  0.34272  1.0000
  C   C14       1.0  0.09382  0.20567  0.34553  1.0000
  C   C15       1.0  0.09108  0.23256  0.36008  1.0000
  C   C16       1.0  0.10826  0.24873  0.35817  1.0000
  H   H11       1.0  0.10609  0.26794  0.36893  1.0000
  C   C17       1.0  0.04263  0.18069  0.30367  1.0000
  N   N3        1.0  0.05994  0.19452  0.30534  1.0000
  H   H12       1.0  0.03035  0.18846  0.27231  1.0000
  C   C18       1.0  0.07114  0.24440  0.38054  1.0000
  H   H13       1.0  0.06376  0.23392  0.43497  1.0000
  H   H14       1.0  0.06161  0.24396  0.32074  1.0000
  H   H15       1.0  0.07232  0.26444  0.40171  1.0000
  C   C19       1.0  0.88205  0.77060  0.33433  1.0000
  C   C20       1.0  0.91637  0.80461  0.33756  1.0000
  C   C21       1.0  0.91934  0.77745  0.33819  1.0000
  C   C22       1.0  0.90216  0.76128  0.33644  1.0000
  H   H16       1.0  0.90456  0.74188  0.33696  1.0000
  C   C23       1.0  0.96686  0.83129  0.29112  1.0000
  N   N4        1.0  0.94956  0.81743  0.29192  1.0000
  H   H17       1.0  0.97865  0.82480  0.25317  1.0000
  C   C24       1.0  0.93959  0.76512  0.34426  1.0000
  H   H18       1.0  0.94813  0.77346  0.39985  1.0000
  H   H19       1.0  0.94780  0.76798  0.28145  1.0000
  H   H20       1.0  0.93881  0.74443  0.35604  1.0000
  C   C25       1.0  0.88025  0.21149  0.35738  1.0000
  N   N5        1.0  0.89687  0.19605  0.35742  1.0000
  C   C26       1.0  0.93260  0.18574  0.35006  1.0000
  C   C27       1.0  0.93301  0.16165  0.30407  1.0000
  C   C28       1.0  0.95098  0.14667  0.30702  1.0000
  C   C29       1.0  0.96856  0.15509  0.35232  1.0000
  H   H21       1.0  0.95161  0.12974  0.27203  1.0000
  H   H22       1.0  0.86640  0.20321  0.36505  1.0000
  C   C30       1.0  0.91572  0.15257  0.24895  1.0000
  H   H23       1.0  0.91166  0.16717  0.19941  1.0000
  H   H24       1.0  0.90280  0.14880  0.29235  1.0000
  H   H25       1.0  0.91907  0.13486  0.21246  1.0000
  C   C31       1.0  0.12983  0.79816  0.35767  1.0000
  N   N6        1.0  0.11316  0.81351  0.35778  1.0000
  C   C32       1.0  0.07742  0.82375  0.35103  1.0000
  C   C33       1.0  0.07714  0.84796  0.30569  1.0000
  C   C34       1.0  0.05919  0.86299  0.30833  1.0000
  C   C35       1.0  0.04150  0.85455  0.35266  1.0000
  H   H26       1.0  0.05869  0.88001  0.27386  1.0000
  H   H27       1.0  0.14367  0.80654  0.36412  1.0000
  C   C36       1.0  0.09455  0.85716  0.25153  1.0000
  H   H28       1.0  0.09874  0.84265  0.20188  1.0000
  H   H29       1.0  0.10736  0.86089  0.29558  1.0000
  H   H30       1.0  0.09126  0.87492  0.21520  1.0000
  C   C37       1.0  0.62829  0.73900  0.34594  1.0000
  C   C38       1.0  0.59391  0.70526  0.34942  1.0000
  C   C39       1.0  0.59137  0.73198  0.36768  1.0000
  C   C40       1.0  0.60859  0.74808  0.36539  1.0000
  H   H31       1.0  0.60659  0.76720  0.37860  1.0000
  C   C41       1.0  0.54261  0.68087  0.30680  1.0000
  N   N7        1.0  0.55995  0.69462  0.30919  1.0000
  H   H32       1.0  0.53034  0.68887  0.27615  1.0000
  C   C42       1.0  0.57159  0.74367  0.39193  1.0000
  H   H33       1.0  0.56450  0.73265  0.44584  1.0000
  H   H34       1.0  0.56171  0.74387  0.33326  1.0000
  H   H35       1.0  0.57296  0.76347  0.41545  1.0000
  C   C43       1.0  0.38210  0.27049  0.33603  1.0000
  C   C44       1.0  0.41645  0.30440  0.34018  1.0000
  C   C45       1.0  0.41937  0.27725  0.34333  1.0000
  C   C46       1.0  0.40217  0.26111  0.34115  1.0000
  H   H36       1.0  0.40451  0.24171  0.34344  1.0000
  C   C47       1.0  0.46694  0.33091  0.29314  1.0000
  N   N8        1.0  0.44967  0.31701  0.29446  1.0000
  H   H37       1.0  0.47876  0.32430  0.25557  1.0000
  C   C48       1.0  0.43958  0.26497  0.35217  1.0000
  H   H38       1.0  0.44788  0.27368  0.40775  1.0000
  H   H39       1.0  0.44806  0.26740  0.28986  1.0000
  H   H40       1.0  0.43872  0.24436  0.36561  1.0000
  C   C49       1.0  0.38023  0.71151  0.35727  1.0000
  N   N9        1.0  0.39688  0.69612  0.35684  1.0000
  C   C50       1.0  0.43256  0.68592  0.34734  1.0000
  C   C51       1.0  0.43292  0.66163  0.30266  1.0000
  C   C52       1.0  0.45088  0.64665  0.30622  1.0000
  C   C53       1.0  0.46849  0.65524  0.35089  1.0000
  H   H41       1.0  0.45146  0.62956  0.27219  1.0000
  H   H42       1.0  0.36646  0.70324  0.36738  1.0000
  C   C54       1.0  0.41559  0.65236  0.24824  1.0000
  H   H43       1.0  0.41150  0.66676  0.19803  1.0000
  H   H44       1.0  0.40269  0.64879  0.29199  1.0000
  H   H45       1.0  0.41890  0.63449  0.21259  1.0000
  C   C55       1.0  0.62993  0.29861  0.35790  1.0000
  N   N10       1.0  0.61323  0.31389  0.35758  1.0000
  C   C56       1.0  0.57751  0.32395  0.34837  1.0000
  C   C57       1.0  0.57720  0.34832  0.30419  1.0000
  C   C58       1.0  0.55922  0.36328  0.30748  1.0000
  C   C59       1.0  0.54155  0.35460  0.35139  1.0000
  H   H46       1.0  0.55869  0.38043  0.27382  1.0000
  H   H47       1.0  0.64369  0.30698  0.36745  1.0000
  C   C60       1.0  0.59461  0.35775  0.25054  1.0000
  H   H48       1.0  0.59882  0.34343  0.20025  1.0000
  H   H49       1.0  0.60741  0.36133  0.29480  1.0000
  H   H50       1.0  0.59131  0.37563  0.21502  1.0000
  C   C61       1.0  0.39790  0.07069  0.25664  1.0000
  N   N11       1.0  0.39081  0.09497  0.26195  1.0000
  C   C62       1.0  0.37180  0.12948  0.32083  1.0000
  C   C63       1.0  0.38699  0.14842  0.33462  1.0000
  C   C64       1.0  0.38106  0.17454  0.33522  1.0000
  C   C65       1.0  0.36079  0.18225  0.32291  1.0000
  H   H51       1.0  0.39186  0.18826  0.34558  1.0000
  H   H52       1.0  0.40981  0.06715  0.21480  1.0000
  C   C66       1.0  0.40848  0.14183  0.35191  1.0000
  H   H53       1.0  0.40950  0.12787  0.40658  1.0000
  H   H54       1.0  0.41748  0.15852  0.37114  1.0000
  H   H55       1.0  0.41524  0.13369  0.29138  1.0000
  C   C67       1.0  0.61616  0.94084  0.25839  1.0000
  N   N12       1.0  0.62265  0.91626  0.26332  1.0000
  C   C68       1.0  0.63842  0.88005  0.32884  1.0000
  C   C69       1.0  0.62299  0.86107  0.32503  1.0000
  C   C70       1.0  0.62887  0.83493  0.32518  1.0000
  C   C71       1.0  0.64934  0.82729  0.32838  1.0000
  H   H56       1.0  0.61789  0.82115  0.32292  1.0000
  H   H57       1.0  0.60654  0.94581  0.20753  1.0000
  C   C72       1.0  0.60115  0.86765  0.32464  1.0000
  H   H58       1.0  0.59770  0.88035  0.38104  1.0000
  H   H59       1.0  0.59150  0.85074  0.33064  1.0000
  H   H60       1.0  0.59724  0.87727  0.26180  1.0000
  C   C73       1.0  0.62084  0.05208  0.35310  1.0000
  C   C74       1.0  0.63404  0.10373  0.35095  1.0000
  C   C75       1.0  0.64167  0.08630  0.28525  1.0000
  C   C76       1.0  0.63494  0.06042  0.28815  1.0000
  H   H61       1.0  0.63938  0.04785  0.23893  1.0000
  C   C77       1.0  0.66353  0.16326  0.35526  1.0000
  N   N13       1.0  0.65754  0.13835  0.35353  1.0000
  H   H62       1.0  0.67864  0.16702  0.35520  1.0000
  C   C78       1.0  0.65504  0.09485  0.21071  1.0000
  H   H63       1.0  0.64796  0.11060  0.17394  1.0000
  H   H64       1.0  0.65821  0.07951  0.16258  1.0000
  H   H65       1.0  0.66941  0.10140  0.23794  1.0000
  C   C79       1.0  0.39110  0.95786  0.35309  1.0000
  C   C80       1.0  0.37702  0.90644  0.35283  1.0000
  C   C81       1.0  0.36706  0.92506  0.29831  1.0000
  C   C82       1.0  0.37432  0.95073  0.30004  1.0000
  H   H66       1.0  0.36806  0.96410  0.25793  1.0000
  C   C83       1.0  0.34738  0.84706  0.36748  1.0000
  N   N14       1.0  0.35350  0.87192  0.36575  1.0000
  H   H67       1.0  0.33243  0.84339  0.37756  1.0000
  C   C84       1.0  0.35049  0.91802  0.23559  1.0000
  H   H68       1.0  0.35546  0.90271  0.19054  1.0000
  H   H69       1.0  0.34563  0.93417  0.19399  1.0000
  H   H70       1.0  0.33745  0.91141  0.27377  1.0000
  C   C85       1.0  0.89852  0.57098  0.25925  1.0000
  N   N15       1.0  0.89139  0.59522  0.26565  1.0000
  C   C86       1.0  0.87237  0.62951  0.32607  1.0000
  C   C87       1.0  0.88750  0.64858  0.33891  1.0000
  C   C88       1.0  0.88145  0.67466  0.33982  1.0000
  C   C89       1.0  0.86111  0.68219  0.32870  1.0000
  H   H71       1.0  0.89221  0.68847  0.34932  1.0000
  H   H72       1.0  0.91035  0.56757  0.21681  1.0000
  C   C90       1.0  0.90909  0.64217  0.35475  1.0000
  H   H73       1.0  0.91036  0.62819  0.40923  1.0000
  H   H74       1.0  0.91805  0.65893  0.37353  1.0000
  H   H75       1.0  0.91570  0.63413  0.29372  1.0000
  C   C91       1.0  0.12761  0.44570  0.26706  1.0000
  N   N16       1.0  0.13328  0.42069  0.27042  1.0000
  C   C92       1.0  0.13911  0.38062  0.34054  1.0000
  C   C93       1.0  0.12397  0.36231  0.31951  1.0000
  C   C94       1.0  0.12957  0.33607  0.31813  1.0000
  C   C95       1.0  0.14954  0.32797  0.33606  1.0000
  H   H76       1.0  0.11881  0.32262  0.30336  1.0000
  H   H77       1.0  0.12576  0.45421  0.20555  1.0000
  C   C96       1.0  0.10278  0.36999  0.30105  1.0000
  H   H78       1.0  0.09662  0.38017  0.35909  1.0000
  H   H79       1.0  0.09305  0.35352  0.28735  1.0000
  H   H80       1.0  0.10227  0.38263  0.24249  1.0000
  C   C97       1.0  0.12177  0.55181  0.33444  1.0000
  C   C98       1.0  0.13403  0.60357  0.33334  1.0000
  C   C99       1.0  0.13435  0.58950  0.25121  1.0000
  C   C100      1.0  0.12806  0.56347  0.25339  1.0000
  H   H81       1.0  0.12719  0.55319  0.19469  1.0000
  C   C101      1.0  0.16309  0.66314  0.32763  1.0000
  N   N17       1.0  0.15721  0.63821  0.32425  1.0000
  H   H82       1.0  0.17784  0.66728  0.31446  1.0000
  C   C102      1.0  0.13973  0.60179  0.16411  1.0000
  H   H83       1.0  0.12975  0.61806  0.15137  1.0000
  H   H84       1.0  0.13843  0.58857  0.10730  1.0000
  H   H85       1.0  0.15526  0.60863  0.16654  1.0000
  C   C103      1.0  0.89187  0.45787  0.35020  1.0000
  C   C104      1.0  0.87777  0.40647  0.34792  1.0000
  C   C105      1.0  0.86802  0.42518  0.29300  1.0000
  C   C106      1.0  0.87528  0.45084  0.29580  1.0000
  H   H86       1.0  0.86918  0.46430  0.25353  1.0000
  C   C107      1.0  0.84783  0.34731  0.36028  1.0000
  N   N18       1.0  0.85406  0.37212  0.35876  1.0000
  H   H87       1.0  0.83282  0.34376  0.36921  1.0000
  C   C108      1.0  0.85169  0.41826  0.22889  1.0000
  H   H88       1.0  0.85680  0.40298  0.18406  1.0000
  H   H89       1.0  0.84702  0.43448  0.18711  1.0000
  H   H90       1.0  0.83848  0.41166  0.26595  1.0000
  C   C109      1.0  0.54792  0.02379  0.30186  1.0000
  N   N19       1.0  0.52757  0.02300  0.30563  1.0000
  C   C110      1.0  0.49535  0.00703  0.34654  1.0000
  C   C111      1.0  0.48451  0.03033  0.36072  1.0000
  C   C112      1.0  0.46321  0.02948  0.35550  1.0000
  C   C113      1.0  0.45264  0.00644  0.33752  1.0000
  H   H91       1.0  0.45521  0.04598  0.36689  1.0000
  H   H92       1.0  0.55465  0.03846  0.26736  1.0000
  C   C114      1.0  0.49455  0.05499  0.38459  1.0000
  H   H93       1.0  0.50318  0.06207  0.32728  1.0000
  H   H94       1.0  0.50464  0.05211  0.44171  1.0000
  H   H95       1.0  0.48382  0.06998  0.40325  1.0000
  C   C115      1.0  0.04870  0.52327  0.30087  1.0000
  N   N20       1.0  0.02835  0.52254  0.30427  1.0000
  C   C116      1.0  0.99612  0.50713  0.34728  1.0000
  C   C117      1.0  0.98529  0.53051  0.35974  1.0000
  C   C118      1.0  0.96400  0.52964  0.35425  1.0000
  C   C119      1.0  0.95342  0.50652  0.33748  1.0000
  H   H96       1.0  0.95601  0.54621  0.36448  1.0000
  H   H97       1.0  0.05543  0.53742  0.26379  1.0000
  C   C120      1.0  0.99535  0.55526  0.38216  1.0000
  H   H98       1.0  0.00411  0.56196  0.32468  1.0000
  H   H99       1.0  0.00533  0.55268  0.43984  1.0000
  H   H100      1.0  0.98462  0.57041  0.39932  1.0000
  C   C121      1.0  0.20147  0.26324  0.33483  1.0000
  C   C122      1.0  0.24433  0.25509  0.33901  1.0000
  C   C123      1.0  0.23086  0.23397  0.35261  1.0000
  C   C124      1.0  0.20969  0.23855  0.35041  1.0000
  H   H101      1.0  0.19999  0.22361  0.36161  1.0000
  C   C125      1.0  0.29483  0.22953  0.28968  1.0000
  N   N21       1.0  0.27474  0.23365  0.29675  1.0000
  H   H102      1.0  0.29946  0.21324  0.25734  1.0000
  C   C126      1.0  0.23823  0.20759  0.37276  1.0000
  H   H103      1.0  0.24576  0.19963  0.31378  1.0000
  H   H104      1.0  0.22606  0.19445  0.39096  1.0000
  H   H105      1.0  0.24880  0.20814  0.42903  1.0000
  C   C127      1.0  0.80871  0.74665  0.33059  1.0000
  C   C128      1.0  0.76589  0.75464  0.33821  1.0000
  C   C129      1.0  0.77935  0.77569  0.35294  1.0000
  C   C130      1.0  0.80051  0.77119  0.34898  1.0000
  H   H106      1.0  0.81022  0.78606  0.36113  1.0000
  C   C131      1.0  0.71524  0.78018  0.29245  1.0000
  N   N22       1.0  0.73536  0.77610  0.29812  1.0000
  H   H107      1.0  0.71049  0.79648  0.26049  1.0000
  C   C132      1.0  0.77198  0.80186  0.37619  1.0000
  H   H108      1.0  0.76420  0.81025  0.31858  1.0000
  H   H109      1.0  0.78417  0.81491  0.39478  1.0000
  H   H110      1.0  0.76162  0.80081  0.43314  1.0000
  C   C133      1.0  0.79480  0.28298  0.37136  1.0000
  N   N23       1.0  0.77473  0.27847  0.36796  1.0000
  C   C134      1.0  0.74431  0.25462  0.34891  1.0000
  C   C135      1.0  0.73115  0.27375  0.31230  1.0000
  C   C136      1.0  0.70993  0.26999  0.31824  1.0000
  C   C137      1.0  0.70140  0.24789  0.35835  1.0000
  H   H111      1.0  0.70043  0.28321  0.28991  1.0000
  H   H112      1.0  0.79928  0.30131  0.38567  1.0000
  C   C138      1.0  0.73888  0.29674  0.26375  1.0000
  H   H113      1.0  0.74952  0.29085  0.21164  1.0000
  H   H114      1.0  0.74643  0.30959  0.31090  1.0000
  H   H115      1.0  0.72691  0.30770  0.23099  1.0000
  C   C139      1.0  0.21557  0.72717  0.36641  1.0000
  N   N24       1.0  0.23563  0.73180  0.36400  1.0000
  C   C140      1.0  0.26606  0.75585  0.34846  1.0000
  C   C141      1.0  0.27926  0.73675  0.31181  1.0000
  C   C142      1.0  0.30048  0.74050  0.31823  1.0000
  C   C143      1.0  0.30897  0.76255  0.35879  1.0000
  H   H116      1.0  0.30999  0.72730  0.28988  1.0000
  H   H117      1.0  0.21116  0.70868  0.37841  1.0000
  C   C144      1.0  0.27163  0.71380  0.26273  1.0000
  H   H118      1.0  0.26099  0.71970  0.21065  1.0000
  H   H119      1.0  0.26412  0.70082  0.30957  1.0000
  H   H120      1.0  0.28364  0.70296  0.22980  1.0000
  C   C145      1.0  0.98719  0.14122  0.35020  1.0000
  N   N25       1.0  0.98797  0.11503  0.34940  1.0000
  C   C146      1.0  0.00570  0.10167  0.34867  1.0000
  N   N26       1.0  0.02307  0.11576  0.34782  1.0000
  C   C147      1.0  0.02329  0.14194  0.34726  1.0000
  N   N27       1.0  0.00509  0.15407  0.34878  1.0000
  C   C148      1.0  0.02293  0.86855  0.35028  1.0000
  N   N28       1.0  0.02230  0.89475  0.34992  1.0000
  C   C149      1.0  0.00463  0.90822  0.34831  1.0000
  N   N29       1.0  0.98716  0.89436  0.34643  1.0000
  C   C150      1.0  0.98687  0.86819  0.34568  1.0000
  N   N30       1.0  0.00497  0.85584  0.34770  1.0000
  C   C151      1.0  0.48710  0.64129  0.34951  1.0000
  N   N31       1.0  0.48784  0.61509  0.34867  1.0000
  C   C152      1.0  0.50555  0.60168  0.34846  1.0000
  N   N32       1.0  0.52294  0.61574  0.34824  1.0000
  C   C153      1.0  0.52321  0.64192  0.34779  1.0000
  N   N33       1.0  0.50502  0.65408  0.34874  1.0000
  C   C154      1.0  0.52295  0.36856  0.34965  1.0000
  N   N34       1.0  0.52227  0.39476  0.34937  1.0000
  C   C155      1.0  0.50457  0.40819  0.34824  1.0000
  N   N35       1.0  0.48712  0.39428  0.34678  1.0000
  C   C156      1.0  0.48688  0.36811  0.34599  1.0000
  N   N36       1.0  0.50500  0.35582  0.34753  1.0000
  C   C157      1.0  0.40047  0.98224  0.34460  1.0000
  N   N37       1.0  0.39000  0.00452  0.33213  1.0000
  C   C158      1.0  0.39979  0.02732  0.32050  1.0000
  N   N38       1.0  0.42025  0.02734  0.32265  1.0000
  C   C159      1.0  0.43124  0.00565  0.33459  1.0000
  N   N39       1.0  0.42094  0.98335  0.34530  1.0000
  C   C160      1.0  0.61140  0.02780  0.34712  1.0000
  N   N40       1.0  0.62181  0.00536  0.33869  1.0000
  C   C161      1.0  0.61183  0.98259  0.33102  1.0000
  N   N41       1.0  0.59137  0.98257  0.33281  1.0000
  C   C162      1.0  0.58064  0.00462  0.34054  1.0000
  N   N42       1.0  0.59093  0.02704  0.34751  1.0000
  C   C163      1.0  0.90124  0.48226  0.34299  1.0000
  N   N43       1.0  0.89076  0.50458  0.33171  1.0000
  C   C164      1.0  0.90054  0.52743  0.32138  1.0000
  N   N44       1.0  0.92100  0.52745  0.32351  1.0000
  C   C165      1.0  0.93202  0.50573  0.33437  1.0000
  N   N45       1.0  0.92171  0.48338  0.34390  1.0000
  C   C166      1.0  0.11223  0.52771  0.33456  1.0000
  N   N46       1.0  0.12271  0.50527  0.33761  1.0000
  C   C167      1.0  0.11267  0.48254  0.34365  1.0000
  N   N47       1.0  0.09224  0.48251  0.34690  1.0000
  C   C168      1.0  0.08148  0.50467  0.34311  1.0000
  N   N48       1.0  0.09179  0.52716  0.33743  1.0000
  C   C169      1.0  0.14500  0.25711  0.33946  1.0000
  N   N49       1.0  0.16505  0.25047  0.33808  1.0000
  C   C170      1.0  0.18017  0.26854  0.33557  1.0000
  N   N50       1.0  0.17438  0.29363  0.33515  1.0000
  C   C171      1.0  0.15495  0.30147  0.33594  1.0000
  N   N51       1.0  0.14084  0.28270  0.33798  1.0000
  C   C172      1.0  0.86514  0.75311  0.33272  1.0000
  N   N52       1.0  0.84507  0.75958  0.33243  1.0000
  C   C173      1.0  0.83002  0.74140  0.33008  1.0000
  N   N53       1.0  0.83588  0.71632  0.32881  1.0000
  C   C174      1.0  0.85535  0.70861  0.32949  1.0000
  N   N54       1.0  0.86931  0.72754  0.33134  1.0000
  C   C175      1.0  0.86533  0.25606  0.35029  1.0000
  N   N55       1.0  0.84522  0.24982  0.35233  1.0000
  C   C176      1.0  0.83029  0.26817  0.35460  1.0000
  N   N56       1.0  0.83632  0.29320  0.35417  1.0000
  C   C177      1.0  0.85585  0.30069  0.35197  1.0000
  N   N57       1.0  0.86967  0.28159  0.35019  1.0000
  C   C178      1.0  0.14490  0.75368  0.35029  1.0000
  N   N58       1.0  0.16498  0.76015  0.35142  1.0000
  C   C179      1.0  0.18004  0.74196  0.35168  1.0000
  N   N59       1.0  0.17415  0.71690  0.34991  1.0000
  C   C180      1.0  0.15468  0.70921  0.34895  1.0000
  N   N60       1.0  0.14069  0.72811  0.34933  1.0000
  C   C181      1.0  0.64511  0.75646  0.34018  1.0000
  N   N61       1.0  0.66512  0.74983  0.33763  1.0000
  C   C182      1.0  0.68014  0.76792  0.33075  1.0000
  N   N62       1.0  0.67444  0.79303  0.32771  1.0000
  C   C183      1.0  0.65497  0.80082  0.33010  1.0000
  N   N63       1.0  0.64093  0.78202  0.33615  1.0000
  C   C184      1.0  0.36517  0.25309  0.33241  1.0000
  N   N64       1.0  0.34514  0.25976  0.33145  1.0000
  C   C185      1.0  0.33006  0.24170  0.32589  1.0000
  N   N65       1.0  0.33569  0.21656  0.32280  1.0000
  C   C186      1.0  0.35514  0.20871  0.32441  1.0000
  N   N66       1.0  0.36921  0.22750  0.32900  1.0000
  C   C187      1.0  0.36522  0.75597  0.35021  1.0000
  N   N67       1.0  0.34516  0.74955  0.35281  1.0000
  C   C188      1.0  0.33021  0.76779  0.35822  1.0000
  N   N68       1.0  0.33603  0.79289  0.35967  1.0000
  C   C189      1.0  0.35554  0.80050  0.35664  1.0000
  N   N69       1.0  0.36946  0.78152  0.35216  1.0000
  C   C190      1.0  0.64511  0.25424  0.35076  1.0000
  N   N70       1.0  0.66516  0.26078  0.35284  1.0000
  C   C191      1.0  0.68017  0.24261  0.35763  1.0000
  N   N71       1.0  0.67443  0.21749  0.35888  1.0000
  C   C192      1.0  0.65494  0.20976  0.35654  1.0000
  N   N72       1.0  0.64095  0.22866  0.35274  1.0000
  C   C193      1.0  0.00618  0.07404  0.34812  1.0000
  C   C194      1.0  0.00644  0.01873  0.34452  1.0000
  C   C195      1.0  0.02464  0.03270  0.32828  1.0000
  C   C196      1.0  0.02405  0.06001  0.33066  1.0000
  H   H121      1.0  0.03703  0.07000  0.31798  1.0000
  C   C197      1.0  0.02080  0.95063  0.37725  1.0000
  N   N73       1.0  0.02004  0.97669  0.37470  1.0000
  H   H122      1.0  0.03350  0.94212  0.40224  1.0000
  C   C198      1.0  0.04403  0.01990  0.30524  1.0000
  H   H123      1.0  0.04967  0.00936  0.36349  1.0000
  H   H124      1.0  0.05573  0.03350  0.28523  1.0000
  H   H125      1.0  0.04181  0.00662  0.24924  1.0000
  C   C199      1.0  0.50602  0.57406  0.34788  1.0000
  C   C200      1.0  0.50629  0.51872  0.34439  1.0000
  C   C201      1.0  0.52450  0.53270  0.32851  1.0000
  C   C202      1.0  0.52391  0.56002  0.33084  1.0000
  H   H126      1.0  0.53690  0.57000  0.31845  1.0000
  C   C203      1.0  0.52071  0.45063  0.37704  1.0000
  N   N74       1.0  0.51992  0.47669  0.37449  1.0000
  H   H127      1.0  0.53343  0.44214  0.40189  1.0000
  C   C204      1.0  0.54392  0.51992  0.30591  1.0000
  H   H128      1.0  0.54951  0.50940  0.36430  1.0000
  H   H129      1.0  0.55564  0.53353  0.28610  1.0000
  H   H130      1.0  0.54177  0.50663  0.24990  1.0000
  C   C205      1.0  0.12982  0.21280  0.33027  1.0000
  N   N75       1.0  0.11313  0.19750  0.33163  1.0000
  C   C206      1.0  0.07753  0.18724  0.34503  1.0000
  C   C207      1.0  0.07775  0.16243  0.38612  1.0000
  C   C208      1.0  0.05982  0.14737  0.38435  1.0000
  C   C209      1.0  0.04170  0.15630  0.34489  1.0000
  H   H131      1.0  0.05972  0.12985  0.41565  1.0000
  H   H132      1.0  0.14352  0.20452  0.31856  1.0000
  C   C210      1.0  0.09570  0.15253  0.43495  1.0000
  H   H133      1.0  0.10042  0.16635  0.48604  1.0000
  H   H134      1.0  0.10803  0.14943  0.38767  1.0000
  H   H135      1.0  0.09279  0.13429  0.46891  1.0000
  C   C211      1.0  0.88018  0.79763  0.33400  1.0000
  N   N76       1.0  0.89685  0.81296  0.33547  1.0000
  C   C212      1.0  0.93262  0.82311  0.33973  1.0000
  C   C213      1.0  0.93311  0.84626  0.39142  1.0000
  C   C214      1.0  0.95099  0.86143  0.39058  1.0000
  C   C215      1.0  0.96842  0.85403  0.34219  1.0000
  H   H136      1.0  0.95166  0.87770  0.42925  1.0000
  H   H137      1.0  0.86630  0.80611  0.33259  1.0000
  C   C216      1.0  0.91605  0.85416  0.45010  1.0000
  H   H138      1.0  0.91217  0.83856  0.49608  1.0000
  H   H139      1.0  0.90296  0.85884  0.40884  1.0000
  H   H140      1.0  0.91955  0.87105  0.49084  1.0000
  C   C217      1.0  0.88214  0.23841  0.34852  1.0000
  C   C218      1.0  0.91634  0.20421  0.34860  1.0000
  C   C219      1.0  0.91932  0.23120  0.33809  1.0000
  C   C220      1.0  0.90221  0.24747  0.33841  1.0000
  H   H141      1.0  0.90461  0.26675  0.33080  1.0000
  C   C221      1.0  0.96699  0.17872  0.39828  1.0000
  N   N77       1.0  0.94965  0.19245  0.39532  1.0000
  H   H142      1.0  0.97886  0.18606  0.43376  1.0000
  C   C222      1.0  0.93951  0.24310  0.32347  1.0000
  H   H143      1.0  0.94745  0.23311  0.26947  1.0000
  H   H144      1.0  0.94837  0.24201  0.38520  1.0000
  H   H145      1.0  0.93863  0.26335  0.30452  1.0000
  C   C223      1.0  0.12800  0.77121  0.34977  1.0000
  C   C224      1.0  0.09369  0.80527  0.35008  1.0000
  C   C225      1.0  0.09077  0.77821  0.34097  1.0000
  C   C226      1.0  0.10794  0.76202  0.34120  1.0000
  H   H146      1.0  0.10558  0.74270  0.33446  1.0000
  C   C227      1.0  0.04292  0.83079  0.39794  1.0000
  N   N78       1.0  0.06024  0.81702  0.39534  1.0000
  H   H147      1.0  0.03096  0.82342  0.43273  1.0000
  C   C228      1.0  0.07060  0.76615  0.32766  1.0000
  H   H148      1.0  0.06254  0.77585  0.27338  1.0000
  H   H149      1.0  0.06184  0.76746  0.38962  1.0000
  H   H150      1.0  0.07151  0.74582  0.30979  1.0000
  C   C229      1.0  0.62980  0.71229  0.33046  1.0000
  N   N79       1.0  0.61308  0.69708  0.33210  1.0000
  C   C230      1.0  0.57754  0.68699  0.34808  1.0000
  C   C231      1.0  0.57773  0.66197  0.38748  1.0000
  C   C232      1.0  0.55976  0.64701  0.38495  1.0000
  C   C233      1.0  0.54164  0.65624  0.34625  1.0000
  H   H151      1.0  0.55964  0.62932  0.41504  1.0000
  H   H152      1.0  0.64338  0.70408  0.31545  1.0000
  C   C234      1.0  0.59570  0.65175  0.43536  1.0000
  H   H153      1.0  0.60048  0.66528  0.48727  1.0000
  H   H154      1.0  0.60799  0.64887  0.38771  1.0000
  H   H155      1.0  0.59278  0.63334  0.46814  1.0000
  C   C235      1.0  0.38028  0.29752  0.33375  1.0000
  N   N80       1.0  0.39698  0.31282  0.33561  1.0000
  C   C236      1.0  0.43271  0.32287  0.34185  1.0000
  C   C237      1.0  0.43315  0.34619  0.39250  1.0000
  C   C238      1.0  0.45100  0.36140  0.39109  1.0000
  C   C239      1.0  0.46846  0.35387  0.34309  1.0000
  H   H156      1.0  0.45164  0.37780  0.42903  1.0000
  H   H157      1.0  0.36644  0.30603  0.32994  1.0000
  C   C240      1.0  0.41605  0.35423  0.45074  1.0000
  H   H158      1.0  0.41218  0.33878  0.49729  1.0000
  H   H159      1.0  0.40297  0.35874  0.40921  1.0000
  H   H160      1.0  0.41952  0.37126  0.49083  1.0000
  C   C241      1.0  0.38203  0.73838  0.34643  1.0000
  C   C242      1.0  0.41627  0.70431  0.34542  1.0000
  C   C243      1.0  0.41914  0.73123  0.33242  1.0000
  C   C244      1.0  0.40200  0.74746  0.33329  1.0000
  H   H161      1.0  0.40429  0.76671  0.32396  1.0000
  C   C245      1.0  0.46697  0.67910  0.39546  1.0000
  N   N81       1.0  0.44964  0.69285  0.39196  1.0000
  H   H162      1.0  0.47886  0.68658  0.43042  1.0000
  C   C246      1.0  0.43924  0.74304  0.31494  1.0000
  H   H163      1.0  0.44693  0.73270  0.26103  1.0000
  H   H164      1.0  0.44840  0.74235  0.37588  1.0000
  H   H165      1.0  0.43824  0.76315  0.29446  1.0000
  C   C247      1.0  0.62822  0.27172  0.34749  1.0000
  C   C248      1.0  0.59385  0.30560  0.34674  1.0000
  C   C249      1.0  0.59106  0.27864  0.33437  1.0000
  C   C250      1.0  0.60827  0.26251  0.33509  1.0000
  H   H166      1.0  0.60603  0.24324  0.32613  1.0000
  C   C251      1.0  0.54300  0.33065  0.39543  1.0000
  N   N82       1.0  0.56035  0.31694  0.39224  1.0000
  H   H167      1.0  0.53105  0.32310  0.42981  1.0000
  C   C252      1.0  0.57099  0.26667  0.31760  1.0000
  H   H168      1.0  0.56321  0.27684  0.26359  1.0000
  H   H169      1.0  0.56190  0.26742  0.37871  1.0000
  H   H170      1.0  0.57205  0.24651  0.29761  1.0000
  C   C253      1.0  0.38987  0.05132  0.31254  1.0000
  C   C254      1.0  0.37576  0.10262  0.31780  1.0000
  C   C255      1.0  0.36628  0.08378  0.37306  1.0000
  C   C256      1.0  0.37356  0.05815  0.36887  1.0000
  H   H171      1.0  0.36781  0.04463  0.41189  1.0000
  C   C257      1.0  0.34655  0.16238  0.31032  1.0000
  N   N83       1.0  0.35245  0.13743  0.30946  1.0000
  H   H172      1.0  0.33162  0.16632  0.30106  1.0000
  C   C258      1.0  0.35031  0.09060  0.43907  1.0000
  H   H173      1.0  0.35576  0.10559  0.48433  1.0000
  H   H174      1.0  0.34570  0.07424  0.48027  1.0000
  H   H175      1.0  0.33700  0.09757  0.40363  1.0000
  C   C259      1.0  0.62168  0.95862  0.32557  1.0000
  C   C260      1.0  0.63461  0.90693  0.32999  1.0000
  C   C261      1.0  0.64114  0.92404  0.39898  1.0000
  C   C262      1.0  0.63453  0.94995  0.39501  1.0000
  H   H176      1.0  0.63805  0.96227  0.44643  1.0000
  C   C263      1.0  0.66378  0.84722  0.33144  1.0000
  N   N84       1.0  0.65793  0.87218  0.33175  1.0000
  H   H177      1.0  0.67886  0.84334  0.33439  1.0000
  C   C264      1.0  0.65310  0.91507  0.47760  1.0000
  H   H178      1.0  0.64525  0.89934  0.51123  1.0000
  H   H179      1.0  0.65556  0.93024  0.52723  1.0000
  H   H180      1.0  0.66783  0.90836  0.45517  1.0000
  C   C265      1.0  0.61431  0.07013  0.41755  1.0000
  N   N85       1.0  0.62098  0.09464  0.41381  1.0000
  C   C266      1.0  0.63798  0.13061  0.35281  1.0000
  C   C267      1.0  0.62264  0.14975  0.35425  1.0000
  C   C268      1.0  0.62867  0.17583  0.35580  1.0000
  C   C269      1.0  0.64919  0.18332  0.35637  1.0000
  H   H181      1.0  0.61775  0.18970  0.35638  1.0000
  H   H182      1.0  0.60394  0.06537  0.46570  1.0000
  C   C270      1.0  0.60077  0.14344  0.35046  1.0000
  H   H183      1.0  0.59777  0.13071  0.29364  1.0000
  H   H184      1.0  0.59132  0.16046  0.34229  1.0000
  H   H185      1.0  0.59616  0.13397  0.41264  1.0000
  C   C271      1.0  0.39970  0.93868  0.40810  1.0000
  N   N86       1.0  0.39256  0.91438  0.40542  1.0000
  C   C272      1.0  0.37288  0.87957  0.35285  1.0000
  C   C273      1.0  0.38788  0.86030  0.34043  1.0000
  C   C274      1.0  0.38173  0.83426  0.34246  1.0000
  C   C275      1.0  0.36142  0.82690  0.35607  1.0000
  H   H186      1.0  0.39240  0.82033  0.33297  1.0000
  H   H187      1.0  0.41188  0.94243  0.44814  1.0000
  C   C276      1.0  0.40941  0.86642  0.32178  1.0000
  H   H188      1.0  0.41046  0.87998  0.26592  1.0000
  H   H189      1.0  0.41820  0.84946  0.30362  1.0000
  H   H190      1.0  0.41636  0.87485  0.38138  1.0000
  C   C277      1.0  0.89060  0.55144  0.31474  1.0000
  C   C278      1.0  0.87645  0.60268  0.32235  1.0000
  C   C279      1.0  0.86711  0.58367  0.37737  1.0000
  C   C280      1.0  0.87441  0.55807  0.37198  1.0000
  H   H191      1.0  0.86876  0.54441  0.41474  1.0000
  C   C281      1.0  0.84693  0.66220  0.31719  1.0000
  N   N87       1.0  0.85296  0.63731  0.31594  1.0000
  H   H192      1.0  0.83195  0.66602  0.30868  1.0000
  C   C282      1.0  0.85127  0.59026  0.44431  1.0000
  H   H193      1.0  0.85678  0.60518  0.48973  1.0000
  H   H194      1.0  0.84680  0.57379  0.48525  1.0000
  H   H195      1.0  0.83786  0.59725  0.40967  1.0000
  C   C283      1.0  0.12264  0.45875  0.34712  1.0000
  C   C284      1.0  0.13515  0.40718  0.34829  1.0000
  C   C285      1.0  0.13069  0.41933  0.43165  1.0000
  C   C286      1.0  0.12420  0.44523  0.42924  1.0000
  H   H196      1.0  0.11992  0.45415  0.48771  1.0000
  C   C287      1.0  0.16376  0.34744  0.35538  1.0000
  N   N88       1.0  0.15815  0.37248  0.35775  1.0000
  H   H197      1.0  0.17842  0.34309  0.36998  1.0000
  C   C288      1.0  0.13172  0.40526  0.51865  1.0000
  H   H198      1.0  0.12138  0.38896  0.51747  1.0000
  H   H199      1.0  0.12771  0.41738  0.57595  1.0000
  H   H200      1.0  0.14701  0.39819  0.52946  1.0000
  C   C289      1.0  0.12199  0.56675  0.41352  1.0000
  N   N89       1.0  0.12788  0.59163  0.40993  1.0000
  C   C290      1.0  0.13803  0.63023  0.33965  1.0000
  C   C291      1.0  0.12303  0.64880  0.36037  1.0000
  C   C292      1.0  0.12890  0.67493  0.36299  1.0000
  C   C293      1.0  0.14902  0.68278  0.34688  1.0000
  H   H201      1.0  0.11824  0.68851  0.37757  1.0000
  H   H202      1.0  0.11691  0.55953  0.47340  1.0000
  C   C294      1.0  0.10161  0.64165  0.37610  1.0000
  H   H203      1.0  0.09583  0.63098  0.31833  1.0000
  H   H204      1.0  0.09193  0.65839  0.38598  1.0000
  H   H205      1.0  0.10042  0.62968  0.43614  1.0000
  C   C295      1.0  0.90028  0.43859  0.40537  1.0000
  N   N90       1.0  0.89313  0.41431  0.40176  1.0000
  C   C296      1.0  0.87353  0.37962  0.34754  1.0000
  C   C297      1.0  0.88850  0.36023  0.33677  1.0000
  C   C298      1.0  0.88223  0.33424  0.33864  1.0000
  C   C299      1.0  0.86183  0.32705  0.35058  1.0000
  H   H206      1.0  0.89288  0.32021  0.33050  1.0000
  H   H207      1.0  0.91232  0.44228  0.44635  1.0000
  C   C300      1.0  0.91013  0.36618  0.32015  1.0000
  H   H208      1.0  0.91152  0.37970  0.26432  1.0000
  H   H209      1.0  0.91893  0.34914  0.30295  1.0000
  H   H210      1.0  0.91684  0.37459  0.38035  1.0000
  C   C301      1.0  0.55935  0.00422  0.34291  1.0000
  C   C302      1.0  0.51672  0.00464  0.34907  1.0000
  C   C303      1.0  0.52741  0.98439  0.39278  1.0000
  C   C304      1.0  0.54873  0.98449  0.38775  1.0000
  H   H211      1.0  0.55671  0.97032  0.41964  1.0000
  C   C305      1.0  0.46433  0.98415  0.32374  1.0000
  N   N91       1.0  0.48466  0.98539  0.32810  1.0000
  H   H212      1.0  0.45783  0.96682  0.30953  1.0000
  C   C306      1.0  0.51720  0.96412  0.44678  1.0000
  H   H213      1.0  0.50703  0.97294  0.49553  1.0000
  H   H214      1.0  0.52782  0.95216  0.48422  1.0000
  H   H215      1.0  0.50861  0.95147  0.40259  1.0000
  C   C307      1.0  0.06014  0.50438  0.34581  1.0000
  C   C308      1.0  0.01748  0.50480  0.35060  1.0000
  C   C309      1.0  0.02810  0.48520  0.39798  1.0000
  C   C310      1.0  0.04943  0.48531  0.39377  1.0000
  H   H216      1.0  0.05735  0.47159  0.42826  1.0000
  C   C311      1.0  0.96514  0.48416  0.32526  1.0000
  N   N92       1.0  0.98546  0.48540  0.33002  1.0000
  H   H217      1.0  0.95865  0.46676  0.31208  1.0000
  C   C312      1.0  0.01778  0.46562  0.45460  1.0000
  H   H218      1.0  0.00756  0.47505  0.50176  1.0000
  H   H219      1.0  0.02833  0.45408  0.49400  1.0000
  H   H220      1.0  0.00921  0.45250  0.41205  1.0000
  C   C313      1.0  0.21574  0.28306  0.32013  1.0000
  N   N93       1.0  0.23578  0.27831  0.32258  1.0000
  C   C314      1.0  0.26604  0.25406  0.33848  1.0000
  C   C315      1.0  0.27936  0.27291  0.37575  1.0000
  C   C316      1.0  0.30054  0.26905  0.36847  1.0000
  C   C317      1.0  0.30887  0.24714  0.32631  1.0000
  H   H221      1.0  0.31017  0.28205  0.39725  1.0000
  H   H222      1.0  0.21140  0.30153  0.30743  1.0000
  C   C318      1.0  0.27186  0.29568  0.42625  1.0000
  H   H223      1.0  0.26129  0.28960  0.47835  1.0000
  H   H224      1.0  0.26430  0.30889  0.38034  1.0000
  H   H225      1.0  0.28396  0.30633  0.45933  1.0000
  C   C319      1.0  0.79444  0.72689  0.31495  1.0000
  N   N94       1.0  0.77439  0.73156  0.31909  1.0000
  C   C320      1.0  0.74419  0.75567  0.33916  1.0000
  C   C321      1.0  0.73103  0.73679  0.37723  1.0000
  C   C322      1.0  0.70982  0.74062  0.37142  1.0000
  C   C323      1.0  0.70134  0.76254  0.32993  1.0000
  H   H226      1.0  0.70032  0.72759  0.40076  1.0000
  H   H227      1.0  0.79878  0.70854  0.30031  1.0000
  C   C324      1.0  0.73876  0.71403  0.42710  1.0000
  H   H228      1.0  0.74947  0.72014  0.47860  1.0000
  H   H229      1.0  0.74623  0.70090  0.38065  1.0000
  H   H230      1.0  0.72680  0.70329  0.46080  1.0000
  C   C325      1.0  0.80895  0.26311  0.35528  1.0000
  C   C326      1.0  0.76603  0.25547  0.34930  1.0000
  C   C327      1.0  0.77938  0.23430  0.33421  1.0000
  C   C328      1.0  0.80058  0.23863  0.33741  1.0000
  H   H231      1.0  0.81019  0.22367  0.32492  1.0000
  C   C329      1.0  0.71529  0.23001  0.39450  1.0000
  N   N95       1.0  0.73542  0.23403  0.38875  1.0000
  H   H232      1.0  0.71052  0.21356  0.42548  1.0000
  C   C330      1.0  0.77187  0.20818  0.31126  1.0000
  H   H233      1.0  0.76418  0.19984  0.36919  1.0000
  H   H234      1.0  0.78397  0.19505  0.29220  1.0000
  H   H235      1.0  0.76140  0.20929  0.25471  1.0000
  C   C331      1.0  0.20137  0.74712  0.35258  1.0000
  C   C332      1.0  0.24431  0.75500  0.34843  1.0000
  C   C333      1.0  0.23090  0.77624  0.33580  1.0000
  C   C334      1.0  0.20970  0.77180  0.33802  1.0000
  H   H236      1.0  0.20006  0.78684  0.32748  1.0000
  C   C335      1.0  0.29507  0.78040  0.39489  1.0000
  N   N96       1.0  0.27494  0.77638  0.38871  1.0000
  H   H237      1.0  0.29982  0.79682  0.42609  1.0000
  C   C336      1.0  0.23833  0.80265  0.31659  1.0000
  H   H238      1.0  0.24592  0.81039  0.37581  1.0000
  H   H239      1.0  0.22620  0.81591  0.29904  1.0000
  H   H240      1.0  0.24886  0.80223  0.26017  1.0000
