data_image0
_chemical_formula_structural       C3NC3NC5NC5NC20H18N4C3NC3NC5NC5NC20H18N4C3NC3NC5NC5NC20H18N5C2H3CHNC2H3CHNC2H3CHNC2H3CHNC2H3CHNC2H3CHC8H8C8H8C8H8CNC2O2C2H3CHCNC2O2C2H3CHCNC2O2C2H3CHCNC2O2C2H3CHCNC2O2C2H3CHCNC2O2C2H3CH
_chemical_formula_sum              "C186 N36 H126 O12"
_cell_length_a       50.4134
_cell_length_b       50.4133
_cell_length_c       14.8147
_cell_angle_alpha    90.0974
_cell_angle_beta     89.9026
_cell_angle_gamma    120

_space_group_name_H-M_alt    "P 1"
_space_group_IT_number       1

loop_
  _space_group_symop_operation_xyz
  'x, y, z'

loop_
  _atom_site_type_symbol
  _atom_site_label
  _atom_site_symmetry_multiplicity
  _atom_site_fract_x
  _atom_site_fract_y
  _atom_site_fract_z
  _atom_site_occupancy
  C   C1        1.0  0.05307  0.65448  0.33366  1.0000
  C   C2        1.0  0.02139  0.63859  0.33381  1.0000
  C   C3        1.0  0.01136  0.60727  0.33066  1.0000
  N   N1        1.0  0.03731  0.60540  0.32889  1.0000
  C   C4        1.0  0.06319  0.63326  0.33071  1.0000
  C   C5        1.0  0.09443  0.64073  0.32941  1.0000
  C   C6        1.0  0.10437  0.61882  0.32806  1.0000
  N   N2        1.0  0.08712  0.58789  0.32948  1.0000
  C   C7        1.0  0.10447  0.57432  0.32813  1.0000
  C   C8        1.0  0.13486  0.59817  0.32538  1.0000
  C   C9        1.0  0.13480  0.62549  0.32574  1.0000
  C   C10       1.0  0.09466  0.54250  0.32963  1.0000
  C   C11       1.0  0.06344  0.51867  0.33068  1.0000
  N   N3        1.0  0.03750  0.52054  0.32881  1.0000
  C   C12       1.0  0.01162  0.49268  0.33070  1.0000
  C   C13       1.0  0.02173  0.47146  0.33386  1.0000
  C   C14       1.0  0.05341  0.48735  0.33405  1.0000
  C   C15       1.0  0.98038  0.48521  0.32931  1.0000
  C   C16       1.0  0.97044  0.50711  0.32792  1.0000
  N   N4        1.0  0.98769  0.53804  0.32939  1.0000
  C   C17       1.0  0.97034  0.55161  0.32811  1.0000
  C   C18       1.0  0.93994  0.52776  0.32540  1.0000
  C   C19       1.0  0.94001  0.50044  0.32568  1.0000
  C   C20       1.0  0.98015  0.58343  0.32967  1.0000
  C   C21       1.0  0.95672  0.59156  0.33131  1.0000
  C   C22       1.0  0.90390  0.59866  0.33087  1.0000
  C   C23       1.0  0.92026  0.60166  0.25044  1.0000
  C   C24       1.0  0.94614  0.59787  0.25033  1.0000
  C   C25       1.0  0.95703  0.45362  0.32972  1.0000
  C   C26       1.0  0.90388  0.39386  0.33131  1.0000
  C   C27       1.0  0.91687  0.40915  0.24894  1.0000
  C   C28       1.0  0.94304  0.43860  0.24814  1.0000
  C   C29       1.0  0.11808  0.53437  0.33132  1.0000
  C   C30       1.0  0.12854  0.52776  0.25043  1.0000
  C   C31       1.0  0.15435  0.52385  0.25056  1.0000
  C   C32       1.0  0.17070  0.52693  0.33093  1.0000
  C   C33       1.0  0.11779  0.67232  0.32977  1.0000
  C   C34       1.0  0.13183  0.68728  0.24819  1.0000
  C   C35       1.0  0.17104  0.73200  0.33137  1.0000
  C   C36       1.0  0.15805  0.71669  0.24899  1.0000
  H   H1        1.0  0.16817  0.72623  0.18874  1.0000
  H   H2        1.0  0.12385  0.67628  0.18773  1.0000
  H   H3        1.0  0.06631  0.67781  0.33556  1.0000
  H   H4        1.0  0.00810  0.64863  0.33588  1.0000
  H   H5        1.0  0.03735  0.58640  0.32559  1.0000
  H   H6        1.0  0.03746  0.53953  0.32505  1.0000
  H   H7        1.0  0.15410  0.64660  0.32430  1.0000
  H   H8        1.0  0.15421  0.59644  0.32351  1.0000
  H   H9        1.0  0.11808  0.52679  0.19038  1.0000
  H   H10       1.0  0.16183  0.51982  0.19057  1.0000
  H   H11       1.0  0.06670  0.47732  0.33626  1.0000
  H   H12       1.0  0.00849  0.44813  0.33589  1.0000
  H   H13       1.0  0.92060  0.52949  0.32364  1.0000
  H   H14       1.0  0.92071  0.47933  0.32429  1.0000
  H   H15       1.0  0.95103  0.44957  0.18768  1.0000
  H   H16       1.0  0.90683  0.39953  0.18868  1.0000
  H   H17       1.0  0.95661  0.59875  0.19026  1.0000
  H   H18       1.0  0.91270  0.60545  0.19038  1.0000
  N   N5        1.0  0.87786  0.36695  0.33808  1.0000
  N   N6        1.0  0.19583  0.52442  0.32505  1.0000
  N   N7        1.0  0.19717  0.75881  0.33816  1.0000
  N   N8        1.0  0.87865  0.60096  0.32496  1.0000
  C   C37       1.0  0.44539  0.48612  0.33288  1.0000
  C   C38       1.0  0.46128  0.47033  0.33297  1.0000
  C   C39       1.0  0.49260  0.49162  0.32977  1.0000
  N   N9        1.0  0.49447  0.51943  0.32800  1.0000
  C   C40       1.0  0.46661  0.51746  0.32991  1.0000
  C   C41       1.0  0.45913  0.54122  0.32865  1.0000
  C   C42       1.0  0.48103  0.57306  0.32727  1.0000
  N   N10       1.0  0.51196  0.58675  0.32862  1.0000
  C   C43       1.0  0.52553  0.61767  0.32731  1.0000
  C   C44       1.0  0.50168  0.62421  0.32467  1.0000
  C   C45       1.0  0.47436  0.59683  0.32502  1.0000
  C   C46       1.0  0.55735  0.63968  0.32877  1.0000
  C   C47       1.0  0.58119  0.63231  0.32975  1.0000
  N   N11       1.0  0.57932  0.60450  0.32795  1.0000
  C   C48       1.0  0.60718  0.60648  0.32986  1.0000
  C   C49       1.0  0.62840  0.63781  0.33285  1.0000
  C   C50       1.0  0.61251  0.65360  0.33297  1.0000
  C   C51       1.0  0.61466  0.58272  0.32856  1.0000
  C   C52       1.0  0.59276  0.55087  0.32716  1.0000
  N   N12       1.0  0.56183  0.53718  0.32855  1.0000
  C   C53       1.0  0.54827  0.50626  0.32726  1.0000
  C   C54       1.0  0.57212  0.49973  0.32459  1.0000
  C   C55       1.0  0.59944  0.52711  0.32492  1.0000
  C   C56       1.0  0.51645  0.48425  0.32875  1.0000
  C   C57       1.0  0.50833  0.45270  0.33042  1.0000
  C   C58       1.0  0.50118  0.39276  0.33006  1.0000
  C   C59       1.0  0.49818  0.40604  0.24962  1.0000
  C   C60       1.0  0.50196  0.43571  0.24947  1.0000
  C   C61       1.0  0.64625  0.59096  0.32905  1.0000
  C   C62       1.0  0.70603  0.59760  0.33098  1.0000
  C   C63       1.0  0.69077  0.59520  0.24853  1.0000
  C   C64       1.0  0.66132  0.59192  0.24756  1.0000
  C   C65       1.0  0.56548  0.67124  0.33039  1.0000
  C   C66       1.0  0.57197  0.68818  0.24943  1.0000
  C   C67       1.0  0.57586  0.71789  0.24954  1.0000
  C   C68       1.0  0.57285  0.73126  0.32996  1.0000
  C   C69       1.0  0.42754  0.53299  0.32912  1.0000
  C   C70       1.0  0.41255  0.53197  0.24759  1.0000
  C   C71       1.0  0.36787  0.52659  0.33096  1.0000
  C   C72       1.0  0.38316  0.52884  0.24853  1.0000
  H   H19       1.0  0.37359  0.52932  0.18831  1.0000
  H   H20       1.0  0.42354  0.53497  0.18709  1.0000
  H   H21       1.0  0.42206  0.47602  0.33482  1.0000
  H   H22       1.0  0.45125  0.44700  0.33506  1.0000
  H   H23       1.0  0.51346  0.53847  0.32466  1.0000
  H   H24       1.0  0.56033  0.58546  0.32456  1.0000
  H   H25       1.0  0.45325  0.59501  0.32370  1.0000
  H   H26       1.0  0.50340  0.64528  0.32289  1.0000
  H   H27       1.0  0.57285  0.67859  0.18936  1.0000
  H   H28       1.0  0.57977  0.72929  0.18950  1.0000
  H   H29       1.0  0.62254  0.67693  0.33510  1.0000
  H   H30       1.0  0.65173  0.64791  0.33481  1.0000
  H   H31       1.0  0.57040  0.47866  0.32277  1.0000
  H   H32       1.0  0.62055  0.52893  0.32355  1.0000
  H   H33       1.0  0.65038  0.58888  0.18705  1.0000
  H   H34       1.0  0.70041  0.59470  0.18833  1.0000
  H   H35       1.0  0.50106  0.44523  0.18940  1.0000
  H   H36       1.0  0.49431  0.39459  0.18960  1.0000
  N   N13       1.0  0.73290  0.59844  0.33791  1.0000
  N   N14       1.0  0.57533  0.75889  0.32407  1.0000
  N   N15       1.0  0.34105  0.52589  0.33785  1.0000
  N   N16       1.0  0.49885  0.36519  0.32416  1.0000
  C   C73       1.0  0.61373  0.04680  0.33289  1.0000
  C   C74       1.0  0.62953  0.07848  0.33307  1.0000
  C   C75       1.0  0.60824  0.08851  0.32973  1.0000
  N   N17       1.0  0.58043  0.06257  0.32783  1.0000
  C   C76       1.0  0.58239  0.03668  0.32975  1.0000
  C   C77       1.0  0.55863  0.00544  0.32835  1.0000
  C   C78       1.0  0.52679  0.99551  0.32694  1.0000
  N   N18       1.0  0.51310  0.01276  0.32840  1.0000
  C   C79       1.0  0.48218  0.99541  0.32710  1.0000
  C   C80       1.0  0.47564  0.96501  0.32437  1.0000
  C   C81       1.0  0.50302  0.96507  0.32466  1.0000
  C   C82       1.0  0.46018  0.00522  0.32865  1.0000
  C   C83       1.0  0.46755  0.03644  0.32958  1.0000
  N   N19       1.0  0.49537  0.06238  0.32768  1.0000
  C   C84       1.0  0.49340  0.08826  0.32950  1.0000
  C   C85       1.0  0.46206  0.07815  0.33255  1.0000
  C   C86       1.0  0.44626  0.04647  0.33280  1.0000
  C   C87       1.0  0.51716  0.11950  0.32812  1.0000
  C   C88       1.0  0.54901  0.12943  0.32682  1.0000
  N   N20       1.0  0.56269  0.11219  0.32832  1.0000
  C   C89       1.0  0.59361  0.12954  0.32708  1.0000
  C   C90       1.0  0.60015  0.15993  0.32430  1.0000
  C   C91       1.0  0.57277  0.15987  0.32451  1.0000
  C   C92       1.0  0.61561  0.11973  0.32871  1.0000
  C   C93       1.0  0.64717  0.14316  0.33050  1.0000
  C   C94       1.0  0.70710  0.19596  0.33043  1.0000
  C   C95       1.0  0.69388  0.17960  0.24995  1.0000
  C   C96       1.0  0.66422  0.15371  0.24966  1.0000
  C   C97       1.0  0.50892  0.14285  0.32847  1.0000
  C   C98       1.0  0.50226  0.19596  0.33012  1.0000
  C   C99       1.0  0.50471  0.18302  0.24774  1.0000
  C   C100      1.0  0.50799  0.15685  0.24690  1.0000
  C   C101      1.0  0.42862  0.98180  0.33043  1.0000
  C   C102      1.0  0.41159  0.97127  0.24961  1.0000
  C   C103      1.0  0.38186  0.94549  0.24990  1.0000
  C   C104      1.0  0.36857  0.92917  0.33035  1.0000
  C   C105      1.0  0.56685  0.98208  0.32880  1.0000
  C   C106      1.0  0.56788  0.96804  0.24726  1.0000
  C   C107      1.0  0.57323  0.92880  0.33057  1.0000
  C   C108      1.0  0.57103  0.94180  0.24815  1.0000
  H   H37       1.0  0.57057  0.93169  0.18791  1.0000
  H   H38       1.0  0.56495  0.97602  0.18676  1.0000
  H   H39       1.0  0.62382  0.03356  0.33488  1.0000
  H   H40       1.0  0.65285  0.09177  0.33527  1.0000
  H   H41       1.0  0.56139  0.06253  0.32424  1.0000
  H   H42       1.0  0.51440  0.06241  0.32426  1.0000
  H   H43       1.0  0.50484  0.94578  0.32326  1.0000
  H   H44       1.0  0.45457  0.94567  0.32255  1.0000
  H   H45       1.0  0.42111  0.98173  0.18952  1.0000
  H   H46       1.0  0.37039  0.93797  0.18996  1.0000
  H   H47       1.0  0.42294  0.03318  0.33498  1.0000
  H   H48       1.0  0.45197  0.09139  0.33449  1.0000
  H   H49       1.0  0.62122  0.17927  0.32250  1.0000
  H   H50       1.0  0.57095  0.17916  0.32308  1.0000
  H   H51       1.0  0.51110  0.14891  0.18644  1.0000
  H   H52       1.0  0.50525  0.19310  0.18751  1.0000
  H   H53       1.0  0.65474  0.14324  0.18955  1.0000
  H   H54       1.0  0.70538  0.18713  0.19000  1.0000
  N   N21       1.0  0.50138  0.22199  0.33695  1.0000
  N   N22       1.0  0.34092  0.90404  0.32462  1.0000
  N   N23       1.0  0.57390  0.90267  0.33741  1.0000
  N   N24       1.0  0.73467  0.22119  0.32468  1.0000
  N   N25       1.0  0.25127  0.52941  0.26872  1.0000
  C   C109      1.0  0.27571  0.52725  0.24028  1.0000
  C   C110      1.0  0.29522  0.52523  0.30471  1.0000
  H   H55       1.0  0.28000  0.52797  0.17258  1.0000
  H   H56       1.0  0.22996  0.51692  0.01118  1.0000
  H   H57       1.0  0.17377  0.49620  0.01954  1.0000
  C   C111      1.0  0.32139  0.52443  0.27972  1.0000
  H   H58       1.0  0.32536  0.52353  0.21440  1.0000
  N   N26       1.0  0.57060  0.80943  0.26791  1.0000
  C   C112      1.0  0.57285  0.83605  0.23961  1.0000
  C   C113      1.0  0.57466  0.85753  0.30415  1.0000
  H   H59       1.0  0.57244  0.83973  0.17190  1.0000
  H   H60       1.0  0.58291  0.80074  0.01051  1.0000
  H   H61       1.0  0.60457  0.76609  0.01894  1.0000
  C   C114      1.0  0.57558  0.88453  0.27926  1.0000
  H   H62       1.0  0.57673  0.88947  0.21399  1.0000
  N   N27       1.0  0.29049  0.84858  0.26857  1.0000
  C   C115      1.0  0.26391  0.82413  0.24026  1.0000
  C   C116      1.0  0.24235  0.80464  0.30480  1.0000
  H   H63       1.0  0.26035  0.81984  0.17258  1.0000
  H   H64       1.0  0.29950  0.86998  0.01100  1.0000
  H   H65       1.0  0.33494  0.92618  0.01921  1.0000
  C   C117      1.0  0.21539  0.77848  0.27994  1.0000
  H   H66       1.0  0.21053  0.77451  0.21466  1.0000
  N   N28       1.0  0.82325  0.59588  0.26868  1.0000
  C   C118      1.0  0.79877  0.59792  0.24029  1.0000
  C   C119      1.0  0.77897  0.59952  0.30478  1.0000
  H   H67       1.0  0.79468  0.59746  0.17258  1.0000
  H   H68       1.0  0.84386  0.60790  0.01149  1.0000
  H   H69       1.0  0.90022  0.62993  0.02046  1.0000
  C   C120      1.0  0.75278  0.60023  0.27982  1.0000
  H   H70       1.0  0.74898  0.60136  0.21454  1.0000
  N   N29       1.0  0.50431  0.31501  0.26792  1.0000
  C   C121      1.0  0.50243  0.28854  0.23941  1.0000
  C   C122      1.0  0.50046  0.26702  0.30379  1.0000
  H   H71       1.0  0.50322  0.28502  0.17171  1.0000
  H   H72       1.0  0.49184  0.32345  0.01100  1.0000
  H   H73       1.0  0.47118  0.35895  0.02094  1.0000
  C   C123      1.0  0.49988  0.24016  0.27878  1.0000
  H   H74       1.0  0.49910  0.23535  0.21346  1.0000
  N   N30       1.0  0.78494  0.27673  0.26860  1.0000
  C   C124      1.0  0.81146  0.30125  0.24025  1.0000
  C   C125      1.0  0.83287  0.32094  0.30476  1.0000
  H   H75       1.0  0.81506  0.30548  0.17256  1.0000
  H   H76       1.0  0.77598  0.25571  0.01124  1.0000
  H   H77       1.0  0.74089  0.19946  0.01988  1.0000
  C   C126      1.0  0.85976  0.34718  0.27987  1.0000
  H   H78       1.0  0.86462  0.35115  0.21457  1.0000
  C   C127      1.0  0.94103  0.58958  0.41245  1.0000
  C   C128      1.0  0.91506  0.59317  0.41227  1.0000
  C   C129      1.0  0.94444  0.43826  0.41201  1.0000
  C   C130      1.0  0.91830  0.40878  0.41256  1.0000
  C   C131      1.0  0.15964  0.53273  0.41226  1.0000
  C   C132      1.0  0.13377  0.53648  0.41241  1.0000
  C   C133      1.0  0.13036  0.68770  0.41208  1.0000
  C   C134      1.0  0.15656  0.71714  0.41263  1.0000
  H   H79       1.0  0.16568  0.72727  0.47342  1.0000
  H   H80       1.0  0.12129  0.67704  0.47228  1.0000
  H   H81       1.0  0.12705  0.54179  0.47175  1.0000
  H   H82       1.0  0.17064  0.53484  0.47198  1.0000
  H   H83       1.0  0.95350  0.44895  0.47220  1.0000
  H   H84       1.0  0.90922  0.39863  0.47335  1.0000
  H   H85       1.0  0.90404  0.59111  0.47202  1.0000
  H   H86       1.0  0.94778  0.58441  0.47184  1.0000
  C   C135      1.0  0.51032  0.43909  0.41158  1.0000
  C   C136      1.0  0.50673  0.40953  0.41141  1.0000
  C   C137      1.0  0.66157  0.59381  0.41143  1.0000
  C   C138      1.0  0.69105  0.59714  0.41214  1.0000
  C   C139      1.0  0.56720  0.71456  0.41134  1.0000
  C   C140      1.0  0.56348  0.68494  0.41153  1.0000
  C   C141      1.0  0.41219  0.53025  0.41147  1.0000
  C   C142      1.0  0.38274  0.52700  0.41215  1.0000
  H   H87       1.0  0.37263  0.52604  0.47298  1.0000
  H   H88       1.0  0.42287  0.53189  0.47164  1.0000
  H   H89       1.0  0.55823  0.67300  0.47090  1.0000
  H   H90       1.0  0.56515  0.72353  0.47110  1.0000
  H   H91       1.0  0.65083  0.59218  0.47157  1.0000
  H   H92       1.0  0.70113  0.59821  0.47299  1.0000
  H   H93       1.0  0.50879  0.40063  0.47118  1.0000
  H   H94       1.0  0.51553  0.45109  0.47092  1.0000
  C   C143      1.0  0.66071  0.15885  0.41170  1.0000
  C   C144      1.0  0.69028  0.18482  0.41170  1.0000
  C   C145      1.0  0.50601  0.15539  0.41077  1.0000
  C   C146      1.0  0.50262  0.18150  0.41135  1.0000
  C   C147      1.0  0.38537  0.94027  0.41160  1.0000
  C   C148      1.0  0.41500  0.96615  0.41160  1.0000
  C   C149      1.0  0.56955  0.96952  0.41115  1.0000
  C   C150      1.0  0.57274  0.94328  0.41178  1.0000
  H   H95       1.0  0.57370  0.93419  0.47260  1.0000
  H   H96       1.0  0.56788  0.97859  0.47131  1.0000
  H   H97       1.0  0.42700  0.97289  0.47088  1.0000
  H   H98       1.0  0.37647  0.92928  0.47136  1.0000
  H   H99       1.0  0.50754  0.14630  0.47097  1.0000
  H   H100      1.0  0.50149  0.19057  0.47215  1.0000
  H   H101      1.0  0.69913  0.19584  0.47149  1.0000
  H   H102      1.0  0.64868  0.15211  0.47100  1.0000
  C   C151      1.0  0.24360  0.52909  0.35703  1.0000
  N   N31       1.0  0.28748  0.52489  0.39291  1.0000
  C   C152      1.0  0.26270  0.52651  0.42314  1.0000
  C   C153      1.0  0.25746  0.52554  0.51553  1.0000
  O   O1        1.0  0.27817  0.52945  0.56680  1.0000
  O   O2        1.0  0.22934  0.50434  0.54297  1.0000
  C   C154      1.0  0.21700  0.51404  0.61556  1.0000
  C   C155      1.0  0.18334  0.48936  0.63128  1.0000
  H   H103      1.0  0.21782  0.53563  0.59955  1.0000
  H   H104      1.0  0.16998  0.48619  0.57018  1.0000
  H   H105      1.0  0.18180  0.46762  0.64900  1.0000
  C   C156      1.0  0.21929  0.53374  0.37704  1.0000
  H   H106      1.0  0.22075  0.54561  0.43215  1.0000
  C   C157      1.0  0.57056  0.80197  0.35620  1.0000
  N   N32       1.0  0.57469  0.85003  0.39233  1.0000
  C   C158      1.0  0.57293  0.82359  0.42244  1.0000
  C   C159      1.0  0.57357  0.81916  0.51493  1.0000
  O   O3        1.0  0.56870  0.83550  0.56556  1.0000
  O   O4        1.0  0.59517  0.81284  0.54210  1.0000
  C   C160      1.0  0.58593  0.79101  0.61493  1.0000
  C   C161      1.0  0.61105  0.78264  0.63043  1.0000
  H   H107      1.0  0.56451  0.76998  0.59926  1.0000
  H   H108      1.0  0.61433  0.77244  0.56940  1.0000
  H   H109      1.0  0.63263  0.80311  0.64771  1.0000
  C   C162      1.0  0.56595  0.77303  0.37609  1.0000
  H   H110      1.0  0.55409  0.76263  0.43118  1.0000
  C   C163      1.0  0.29782  0.85627  0.35684  1.0000
  N   N33       1.0  0.24972  0.81240  0.39297  1.0000
  C   C164      1.0  0.27611  0.83718  0.42306  1.0000
  C   C165      1.0  0.28035  0.84244  0.51543  1.0000
  O   O5        1.0  0.26355  0.82174  0.56678  1.0000
  O   O6        1.0  0.28725  0.87057  0.54286  1.0000
  C   C166      1.0  0.30927  0.88293  0.61533  1.0000
  C   C167      1.0  0.31822  0.91659  0.63103  1.0000
  H   H111      1.0  0.33005  0.88212  0.59919  1.0000
  H   H112      1.0  0.32842  0.92994  0.56989  1.0000
  H   H113      1.0  0.29801  0.91812  0.64889  1.0000
  C   C168      1.0  0.32676  0.88059  0.37670  1.0000
  H   H114      1.0  0.33716  0.87916  0.43174  1.0000
  C   C169      1.0  0.83068  0.59589  0.35700  1.0000
  N   N34       1.0  0.78648  0.59958  0.39299  1.0000
  C   C170      1.0  0.81127  0.59803  0.42318  1.0000
  C   C171      1.0  0.81630  0.59867  0.51570  1.0000
  O   O7        1.0  0.79501  0.59362  0.56619  1.0000
  O   O8        1.0  0.84414  0.62040  0.54317  1.0000
  C   C172      1.0  0.85680  0.61126  0.61602  1.0000
  C   C173      1.0  0.89020  0.63654  0.63193  1.0000
  H   H115      1.0  0.85660  0.58994  0.60021  1.0000
  H   H116      1.0  0.90376  0.63995  0.57102  1.0000
  H   H117      1.0  0.89113  0.65804  0.64936  1.0000
  C   C174      1.0  0.85512  0.59147  0.37693  1.0000
  H   H118      1.0  0.85373  0.57964  0.43197  1.0000
  C   C175      1.0  0.50381  0.32226  0.35623  1.0000
  N   N35       1.0  0.49991  0.27430  0.39199  1.0000
  C   C176      1.0  0.50130  0.30059  0.42230  1.0000
  C   C177      1.0  0.50007  0.30477  0.51473  1.0000
  O   O9        1.0  0.50462  0.28825  0.56537  1.0000
  O   O10       1.0  0.47897  0.31172  0.54273  1.0000
  C   C178      1.0  0.48872  0.33358  0.61575  1.0000
  C   C179      1.0  0.46408  0.34256  0.63235  1.0000
  H   H119      1.0  0.51032  0.35437  0.59981  1.0000
  H   H120      1.0  0.46089  0.35290  0.57165  1.0000
  H   H121      1.0  0.44234  0.32234  0.65001  1.0000
  C   C180      1.0  0.50815  0.35109  0.37637  1.0000
  H   H122      1.0  0.51986  0.36151  0.43162  1.0000
  C   C181      1.0  0.77756  0.26913  0.35689  1.0000
  N   N36       1.0  0.82546  0.31325  0.39294  1.0000
  C   C182      1.0  0.79914  0.28840  0.42308  1.0000
  C   C183      1.0  0.79485  0.28326  0.51549  1.0000
  O   O11       1.0  0.81150  0.30409  0.56674  1.0000
  O   O12       1.0  0.78814  0.25524  0.54315  1.0000
  C   C184      1.0  0.76610  0.24285  0.61566  1.0000
  C   C185      1.0  0.75740  0.20929  0.63167  1.0000
  H   H123      1.0  0.74523  0.24345  0.59943  1.0000
  H   H124      1.0  0.74730  0.19581  0.57063  1.0000
  H   H125      1.0  0.77770  0.20797  0.64962  1.0000
  C   C186      1.0  0.74869  0.24468  0.37679  1.0000
  H   H126      1.0  0.73820  0.24606  0.43185  1.0000
