data_image0
_chemical_formula_structural       C2NCNCNH2CH2C2NCNCNH2CH2C2NCNCNH2CH2NCHCH3NCHCH3NCHCH3NCHCH3NCHCH3NCHCH3CNCNCNC18H12CNCNCNC18H12CNCNCNC18H12CNCNCNC18H12CNCNCNC18H12CNCNCNC18H12NCHCH3NCHCH3NCHCH3C2NCNCNH2CH2C2NCNCNH2CH2C2NCNCNH2CH2C2NCNCNH2CH2C2NCNCNH2CH2C2NCNCNH2CH2
_chemical_formula_sum              "C189 N54 H144"
_cell_length_a       60.1325
_cell_length_b       60.1326
_cell_length_c       15.0203
_cell_angle_alpha    90
_cell_angle_beta     90
_cell_angle_gamma    120

_space_group_name_H-M_alt    "P 1"
_space_group_IT_number       1

loop_
  _space_group_symop_operation_xyz
  'x, y, z'

loop_
  _atom_site_type_symbol
  _atom_site_label
  _atom_site_symmetry_multiplicity
  _atom_site_fract_x
  _atom_site_fract_y
  _atom_site_fract_z
  _atom_site_occupancy
  C   C1        1.0  0.02560  0.50993  0.32631  1.0000
  C   C2        1.0  0.97217  0.48182  0.33201  1.0000
  N   N1        1.0  0.98501  0.49142  0.25428  1.0000
  C   C3        1.0  0.01103  0.50506  0.24717  1.0000
  N   N2        1.0  0.02229  0.51260  0.16821  1.0000
  C   C4        1.0  0.01407  0.50299  0.09048  1.0000
  N   N3        1.0  0.02856  0.51363  0.01409  1.0000
  H   H1        1.0  0.99678  0.48760  0.08307  1.0000
  H   H2        1.0  0.03895  0.55304  0.02987  1.0000
  C   C5        1.0  0.05432  0.51574  0.01501  1.0000
  H   H3        1.0  0.05266  0.49734  0.03265  1.0000
  H   H4        1.0  0.06714  0.53028  0.06261  1.0000
  C   C6        1.0  0.48835  0.51530  0.32617  1.0000
  C   C7        1.0  0.51648  0.49001  0.33183  1.0000
  N   N4        1.0  0.50688  0.49324  0.25411  1.0000
  C   C8        1.0  0.49324  0.50562  0.24701  1.0000
  N   N5        1.0  0.48569  0.50935  0.16806  1.0000
  C   C9        1.0  0.49528  0.51072  0.09030  1.0000
  N   N6        1.0  0.48464  0.51457  0.01394  1.0000
  H   H5        1.0  0.51066  0.50879  0.08288  1.0000
  H   H6        1.0  0.44521  0.48561  0.02988  1.0000
  C   C10       1.0  0.48259  0.53826  0.01483  1.0000
  H   H7        1.0  0.50101  0.55498  0.03238  1.0000
  H   H8        1.0  0.46808  0.53659  0.06248  1.0000
  C   C11       1.0  0.48300  0.97272  0.32602  1.0000
  C   C12       1.0  0.50828  0.02614  0.33168  1.0000
  N   N7        1.0  0.50505  0.01331  0.25396  1.0000
  C   C13       1.0  0.49268  0.98729  0.24685  1.0000
  N   N8        1.0  0.48895  0.97602  0.16791  1.0000
  C   C14       1.0  0.48757  0.98423  0.09016  1.0000
  N   N9        1.0  0.48371  0.96973  0.01379  1.0000
  H   H9        1.0  0.48948  0.00153  0.08274  1.0000
  H   H10       1.0  0.51270  0.95930  0.02967  1.0000
  C   C15       1.0  0.46004  0.94399  0.01471  1.0000
  H   H11       1.0  0.44332  0.94567  0.03230  1.0000
  H   H12       1.0  0.46174  0.93116  0.06234  1.0000
  N   N10       1.0  0.26883  0.51974  0.26404  1.0000
  C   C16       1.0  0.24612  0.51931  0.26981  1.0000
  H   H13       1.0  0.23708  0.51944  0.21236  1.0000
  C   C17       1.0  0.29844  0.51410  0.01355  1.0000
  H   H14       1.0  0.27836  0.50382  0.03471  1.0000
  H   H15       1.0  0.31022  0.51723  0.07268  1.0000
  H   H16       1.0  0.34427  0.55935  0.01106  1.0000
  N   N11       1.0  0.47841  0.74865  0.26466  1.0000
  C   C18       1.0  0.47879  0.72635  0.27038  1.0000
  H   H17       1.0  0.47869  0.71723  0.21283  1.0000
  C   C19       1.0  0.48437  0.78406  0.01398  1.0000
  H   H18       1.0  0.49465  0.77426  0.03505  1.0000
  H   H19       1.0  0.48129  0.79274  0.07313  1.0000
  H   H20       1.0  0.43914  0.78468  0.01187  1.0000
  N   N12       1.0  0.24968  0.72936  0.26410  1.0000
  C   C20       1.0  0.27202  0.75201  0.26987  1.0000
  H   H21       1.0  0.28111  0.76117  0.21245  1.0000
  C   C21       1.0  0.21438  0.69994  0.01352  1.0000
  H   H22       1.0  0.22422  0.72003  0.03456  1.0000
  H   H23       1.0  0.20570  0.68820  0.07270  1.0000
  H   H24       1.0  0.21366  0.65404  0.01144  1.0000
  N   N13       1.0  0.73183  0.47988  0.25772  1.0000
  C   C22       1.0  0.75434  0.47986  0.26131  1.0000
  H   H25       1.0  0.76296  0.47962  0.20296  1.0000
  C   C23       1.0  0.70382  0.48519  0.00883  1.0000
  H   H26       1.0  0.72399  0.49569  0.02885  1.0000
  H   H27       1.0  0.69229  0.48203  0.06867  1.0000
  H   H28       1.0  0.65825  0.43970  0.00851  1.0000
  N   N14       1.0  0.51844  0.25161  0.25788  1.0000
  C   C24       1.0  0.51855  0.27418  0.26141  1.0000
  H   H29       1.0  0.51870  0.28297  0.20297  1.0000
  C   C25       1.0  0.51306  0.21833  0.00900  1.0000
  H   H30       1.0  0.50260  0.22805  0.02895  1.0000
  H   H31       1.0  0.51617  0.20993  0.06886  1.0000
  H   H32       1.0  0.55848  0.21810  0.00886  1.0000
  N   N15       1.0  0.74665  0.26650  0.25730  1.0000
  C   C26       1.0  0.72406  0.24405  0.26105  1.0000
  H   H33       1.0  0.71528  0.23527  0.20278  1.0000
  C   C27       1.0  0.78000  0.29464  0.00838  1.0000
  H   H34       1.0  0.77032  0.27447  0.02843  1.0000
  H   H35       1.0  0.78838  0.30618  0.06819  1.0000
  H   H36       1.0  0.78009  0.34022  0.00796  1.0000
  C   C28       1.0  0.17367  0.60692  0.32626  1.0000
  N   N16       1.0  0.14763  0.59320  0.32708  1.0000
  C   C29       1.0  0.13461  0.56718  0.33569  1.0000
  N   N17       1.0  0.14841  0.55499  0.34422  1.0000
  C   C30       1.0  0.17447  0.56809  0.34507  1.0000
  N   N18       1.0  0.18668  0.59400  0.33577  1.0000
  C   C31       1.0  0.10739  0.55309  0.33481  1.0000
  C   C32       1.0  0.09315  0.56339  0.29501  1.0000
  C   C33       1.0  0.06621  0.54914  0.29170  1.0000
  C   C34       1.0  0.05270  0.52431  0.32925  1.0000
  C   C35       1.0  0.06674  0.51421  0.37137  1.0000
  C   C36       1.0  0.09371  0.52827  0.37299  1.0000
  C   C37       1.0  0.18727  0.63397  0.31786  1.0000
  C   C38       1.0  0.17867  0.64931  0.36038  1.0000
  C   C39       1.0  0.19430  0.67624  0.36266  1.0000
  C   C40       1.0  0.21841  0.68848  0.31951  1.0000
  C   C41       1.0  0.22620  0.67322  0.27209  1.0000
  C   C42       1.0  0.21097  0.64635  0.27204  1.0000
  C   C43       1.0  0.18881  0.55541  0.35444  1.0000
  C   C44       1.0  0.21241  0.56741  0.40090  1.0000
  C   C45       1.0  0.22782  0.55599  0.40508  1.0000
  C   C46       1.0  0.22048  0.53255  0.36080  1.0000
  C   C47       1.0  0.19665  0.52028  0.31569  1.0000
  C   C48       1.0  0.18075  0.53129  0.31419  1.0000
  H   H37       1.0  0.18852  0.68675  0.39965  1.0000
  H   H38       1.0  0.16197  0.64096  0.39635  1.0000
  H   H39       1.0  0.24396  0.68134  0.24283  1.0000
  H   H40       1.0  0.21786  0.63589  0.24067  1.0000
  H   H41       1.0  0.21888  0.58486  0.43106  1.0000
  H   H42       1.0  0.24529  0.56592  0.43603  1.0000
  H   H43       1.0  0.16405  0.52233  0.27832  1.0000
  H   H44       1.0  0.19093  0.50348  0.28192  1.0000
  H   H45       1.0  0.10321  0.52021  0.40346  1.0000
  H   H46       1.0  0.05747  0.49627  0.39929  1.0000
  H   H47       1.0  0.05654  0.55721  0.26242  1.0000
  H   H48       1.0  0.10223  0.58120  0.26619  1.0000
  C   C49       1.0  0.39130  0.56633  0.32636  1.0000
  N   N19       1.0  0.40503  0.55402  0.32711  1.0000
  C   C50       1.0  0.43106  0.56702  0.33569  1.0000
  N   N20       1.0  0.44324  0.59302  0.34424  1.0000
  C   C51       1.0  0.43014  0.60597  0.34517  1.0000
  N   N21       1.0  0.40422  0.59226  0.33591  1.0000
  C   C52       1.0  0.44516  0.55390  0.33477  1.0000
  C   C53       1.0  0.43487  0.52936  0.29494  1.0000
  C   C54       1.0  0.44912  0.51668  0.29158  1.0000
  C   C55       1.0  0.47395  0.52802  0.32914  1.0000
  C   C56       1.0  0.48404  0.55214  0.37134  1.0000
  C   C57       1.0  0.46997  0.56504  0.37299  1.0000
  C   C58       1.0  0.36425  0.55287  0.31804  1.0000
  C   C59       1.0  0.34893  0.52891  0.36045  1.0000
  C   C60       1.0  0.32199  0.51755  0.36257  1.0000
  C   C61       1.0  0.30973  0.52943  0.31954  1.0000
  C   C62       1.0  0.32499  0.55255  0.27249  1.0000
  C   C63       1.0  0.35185  0.56421  0.27242  1.0000
  C   C64       1.0  0.44281  0.63298  0.35461  1.0000
  C   C65       1.0  0.43083  0.64456  0.40128  1.0000
  C   C66       1.0  0.44224  0.67139  0.40551  1.0000
  C   C67       1.0  0.46567  0.68751  0.36120  1.0000
  C   C68       1.0  0.47793  0.67596  0.31593  1.0000
  C   C69       1.0  0.46692  0.64906  0.31425  1.0000
  H   H49       1.0  0.31148  0.50120  0.39923  1.0000
  H   H50       1.0  0.35729  0.52050  0.39598  1.0000
  H   H51       1.0  0.31685  0.56219  0.24338  1.0000
  H   H52       1.0  0.36229  0.58159  0.24129  1.0000
  H   H53       1.0  0.41340  0.63357  0.43152  1.0000
  H   H54       1.0  0.43234  0.67893  0.43671  1.0000
  H   H55       1.0  0.47585  0.64131  0.27827  1.0000
  H   H56       1.0  0.49471  0.68705  0.28208  1.0000
  H   H57       1.0  0.47803  0.58260  0.40347  1.0000
  H   H58       1.0  0.50198  0.56082  0.39925  1.0000
  H   H59       1.0  0.44107  0.49896  0.26222  1.0000
  H   H60       1.0  0.41706  0.52064  0.26605  1.0000
  C   C70       1.0  0.43200  0.82466  0.32630  1.0000
  N   N22       1.0  0.44431  0.85070  0.32704  1.0000
  C   C71       1.0  0.43130  0.86371  0.33560  1.0000
  N   N23       1.0  0.40530  0.84990  0.34419  1.0000
  C   C72       1.0  0.39236  0.82385  0.34515  1.0000
  N   N24       1.0  0.40607  0.81164  0.33588  1.0000
  C   C73       1.0  0.44442  0.89093  0.33465  1.0000
  C   C74       1.0  0.46894  0.90518  0.29477  1.0000
  C   C75       1.0  0.48163  0.93212  0.29141  1.0000
  C   C76       1.0  0.47029  0.94561  0.32898  1.0000
  C   C77       1.0  0.44617  0.93157  0.37117  1.0000
  C   C78       1.0  0.43327  0.90460  0.37285  1.0000
  C   C79       1.0  0.44545  0.81105  0.31799  1.0000
  C   C80       1.0  0.46940  0.81968  0.36051  1.0000
  C   C81       1.0  0.48070  0.80405  0.36291  1.0000
  C   C82       1.0  0.46881  0.77991  0.31993  1.0000
  C   C83       1.0  0.44576  0.77210  0.27250  1.0000
  C   C84       1.0  0.43412  0.78733  0.27230  1.0000
  C   C85       1.0  0.36535  0.80950  0.35457  1.0000
  C   C86       1.0  0.35377  0.78593  0.40122  1.0000
  C   C87       1.0  0.32695  0.77050  0.40542  1.0000
  C   C88       1.0  0.31082  0.77778  0.36098  1.0000
  C   C89       1.0  0.32236  0.80159  0.31571  1.0000
  C   C90       1.0  0.34926  0.81751  0.31419  1.0000
  H   H61       1.0  0.49699  0.80985  0.39990  1.0000
  H   H62       1.0  0.47775  0.83640  0.39637  1.0000
  H   H63       1.0  0.43612  0.75433  0.24335  1.0000
  H   H64       1.0  0.41678  0.78043  0.24096  1.0000
  H   H65       1.0  0.36477  0.77950  0.43147  1.0000
  H   H66       1.0  0.31942  0.75304  0.43647  1.0000
  H   H67       1.0  0.35700  0.83419  0.27818  1.0000
  H   H68       1.0  0.31127  0.80727  0.28182  1.0000
  H   H69       1.0  0.41571  0.89510  0.40338  1.0000
  H   H70       1.0  0.43749  0.94083  0.39912  1.0000
  H   H71       1.0  0.49935  0.94179  0.26207  1.0000
  H   H72       1.0  0.47768  0.89610  0.26593  1.0000
  C   C91       1.0  0.82384  0.38855  0.32100  1.0000
  N   N25       1.0  0.84989  0.40174  0.32336  1.0000
  C   C92       1.0  0.86330  0.42784  0.32727  1.0000
  N   N26       1.0  0.85011  0.44076  0.33044  1.0000
  C   C93       1.0  0.82405  0.42813  0.33076  1.0000
  N   N27       1.0  0.81136  0.40210  0.32562  1.0000
  C   C94       1.0  0.89043  0.44126  0.32880  1.0000
  C   C95       1.0  0.90401  0.43066  0.37137  1.0000
  C   C96       1.0  0.93099  0.44421  0.37411  1.0000
  C   C97       1.0  0.94508  0.46832  0.33180  1.0000
  C   C98       1.0  0.93157  0.47871  0.28766  1.0000
  C   C99       1.0  0.90460  0.46557  0.28764  1.0000
  C   C100      1.0  0.80968  0.36146  0.31459  1.0000
  C   C101      1.0  0.81762  0.34584  0.35899  1.0000
  C   C102      1.0  0.80168  0.31894  0.36086  1.0000
  C   C103      1.0  0.77789  0.30699  0.31557  1.0000
  C   C104      1.0  0.77070  0.32254  0.26694  1.0000
  C   C105      1.0  0.78625  0.34936  0.26706  1.0000
  C   C106      1.0  0.81013  0.44128  0.33922  1.0000
  C   C107      1.0  0.78693  0.43005  0.38805  1.0000
  C   C108      1.0  0.77213  0.44210  0.39361  1.0000
  C   C109      1.0  0.77970  0.46550  0.34869  1.0000
  C   C110      1.0  0.80314  0.47701  0.30111  1.0000
  C   C111      1.0  0.81843  0.46532  0.29796  1.0000
  H   H73       1.0  0.80706  0.30822  0.39850  1.0000
  H   H74       1.0  0.83420  0.35399  0.39561  1.0000
  H   H75       1.0  0.75319  0.31465  0.23598  1.0000
  H   H76       1.0  0.77985  0.36000  0.23409  1.0000
  H   H77       1.0  0.78034  0.41275  0.41943  1.0000
  H   H78       1.0  0.75495  0.43272  0.42664  1.0000
  H   H79       1.0  0.83495  0.47382  0.26099  1.0000
  H   H80       1.0  0.80905  0.49378  0.26698  1.0000
  H   H81       1.0  0.89543  0.47369  0.25521  1.0000
  H   H82       1.0  0.94125  0.49622  0.25679  1.0000
  H   H83       1.0  0.94024  0.43601  0.40548  1.0000
  H   H84       1.0  0.89439  0.41322  0.40261  1.0000
  C   C112      1.0  0.60980  0.43501  0.32069  1.0000
  N   N28       1.0  0.59659  0.44785  0.32306  1.0000
  C   C113      1.0  0.57050  0.43516  0.32694  1.0000
  N   N29       1.0  0.55759  0.40904  0.33011  1.0000
  C   C114      1.0  0.57023  0.39562  0.33041  1.0000
  N   N30       1.0  0.59626  0.40898  0.32530  1.0000
  C   C115      1.0  0.55707  0.44886  0.32853  1.0000
  C   C116      1.0  0.56764  0.47302  0.37118  1.0000
  C   C117      1.0  0.55410  0.48644  0.37394  1.0000
  C   C118      1.0  0.52998  0.47641  0.33160  1.0000
  C   C119      1.0  0.51960  0.45252  0.28745  1.0000
  C   C120      1.0  0.53275  0.43870  0.28738  1.0000
  C   C121      1.0  0.63690  0.44796  0.31437  1.0000
  C   C122      1.0  0.65248  0.47151  0.35884  1.0000
  C   C123      1.0  0.67938  0.48245  0.36100  1.0000
  C   C124      1.0  0.69135  0.47061  0.31583  1.0000
  C   C125      1.0  0.67585  0.44792  0.26690  1.0000
  C   C126      1.0  0.64902  0.43665  0.26688  1.0000
  C   C127      1.0  0.55710  0.36856  0.33896  1.0000
  C   C128      1.0  0.56834  0.35662  0.38785  1.0000
  C   C129      1.0  0.55629  0.32977  0.39359  1.0000
  C   C130      1.0  0.53289  0.31391  0.34871  1.0000
  C   C131      1.0  0.52138  0.32582  0.30098  1.0000
  C   C132      1.0  0.53305  0.35280  0.29776  1.0000
  H   H85       1.0  0.69007  0.49850  0.39889  1.0000
  H   H86       1.0  0.64431  0.47988  0.39568  1.0000
  H   H87       1.0  0.68375  0.43832  0.23595  1.0000
  H   H88       1.0  0.63840  0.41963  0.23374  1.0000
  H   H89       1.0  0.58565  0.36735  0.41921  1.0000
  H   H90       1.0  0.56569  0.32199  0.42661  1.0000
  H   H91       1.0  0.52455  0.36079  0.26070  1.0000
  H   H92       1.0  0.50461  0.31494  0.26688  1.0000
  H   H93       1.0  0.52465  0.42142  0.25489  1.0000
  H   H94       1.0  0.50210  0.44471  0.25653  1.0000
  H   H95       1.0  0.56229  0.50389  0.40530  1.0000
  H   H96       1.0  0.58510  0.48085  0.40238  1.0000
  C   C133      1.0  0.56330  0.17447  0.32105  1.0000
  N   N31       1.0  0.55045  0.14842  0.32330  1.0000
  C   C134      1.0  0.56313  0.13501  0.32709  1.0000
  N   N32       1.0  0.58924  0.14821  0.33028  1.0000
  C   C135      1.0  0.60268  0.17427  0.33073  1.0000
  N   N33       1.0  0.58933  0.18695  0.32569  1.0000
  C   C136      1.0  0.54942  0.10788  0.32853  1.0000
  C   C137      1.0  0.52525  0.09429  0.37111  1.0000
  C   C138      1.0  0.51183  0.06731  0.37382  1.0000
  C   C139      1.0  0.52186  0.05324  0.33146  1.0000
  C   C140      1.0  0.54575  0.06675  0.28730  1.0000
  C   C141      1.0  0.55958  0.09373  0.28731  1.0000
  C   C142      1.0  0.55037  0.18864  0.31477  1.0000
  C   C143      1.0  0.52680  0.18066  0.35914  1.0000
  C   C144      1.0  0.51583  0.19660  0.36116  1.0000
  C   C145      1.0  0.52768  0.22041  0.31605  1.0000
  C   C146      1.0  0.55045  0.22766  0.26747  1.0000
  C   C147      1.0  0.56171  0.21210  0.26745  1.0000
  C   C148      1.0  0.62974  0.18818  0.33919  1.0000
  C   C149      1.0  0.64170  0.21137  0.38809  1.0000
  C   C150      1.0  0.66855  0.22618  0.39362  1.0000
  C   C151      1.0  0.68439  0.21864  0.34859  1.0000
  C   C152      1.0  0.67246  0.19520  0.30097  1.0000
  C   C153      1.0  0.64549  0.17990  0.29785  1.0000
  H   H97       1.0  0.49972  0.19120  0.39877  1.0000
  H   H98       1.0  0.51836  0.16406  0.39562  1.0000
  H   H99       1.0  0.56008  0.24519  0.23668  1.0000
  H   H100      1.0  0.57877  0.21854  0.23453  1.0000
  H   H101      1.0  0.63099  0.21794  0.41955  1.0000
  H   H102      1.0  0.67635  0.24335  0.42670  1.0000
  H   H103      1.0  0.63747  0.16340  0.26083  1.0000
  H   H104      1.0  0.68333  0.18932  0.26675  1.0000
  H   H105      1.0  0.57687  0.10291  0.25489  1.0000
  H   H106      1.0  0.55358  0.05708  0.25640  1.0000
  H   H107      1.0  0.49438  0.05805  0.40520  1.0000
  H   H108      1.0  0.51742  0.10390  0.40240  1.0000
  N   N34       1.0  0.01279  0.49993  0.40393  1.0000
  C   C154      1.0  0.98686  0.48597  0.40981  1.0000
  H   H109      1.0  0.97846  0.47943  0.47060  1.0000
  C   C155      1.0  0.02860  0.53716  0.64993  1.0000
  H   H110      1.0  0.00897  0.53352  0.64288  1.0000
  H   H111      1.0  0.03777  0.54297  0.58471  1.0000
  H   H112      1.0  0.06301  0.52099  0.61562  1.0000
  N   N35       1.0  0.49835  0.51249  0.40378  1.0000
  C   C156      1.0  0.51234  0.50056  0.40963  1.0000
  H   H113      1.0  0.51884  0.49865  0.47044  1.0000
  C   C157      1.0  0.46107  0.49110  0.64989  1.0000
  H   H114      1.0  0.46467  0.47508  0.64288  1.0000
  H   H115      1.0  0.45526  0.49446  0.58467  1.0000
  H   H116      1.0  0.47733  0.54169  0.61545  1.0000
  N   N36       1.0  0.48582  0.98553  0.40363  1.0000
  C   C158      1.0  0.49776  0.01145  0.40950  1.0000
  H   H117      1.0  0.49963  0.01986  0.47029  1.0000
  C   C159      1.0  0.50719  0.96966  0.64969  1.0000
  H   H118      1.0  0.52320  0.98928  0.64265  1.0000
  H   H119      1.0  0.50383  0.96049  0.58448  1.0000
  H   H120      1.0  0.45661  0.93529  0.61533  1.0000
  C   C160      1.0  0.28368  0.52185  0.33552  1.0000
  C   C161      1.0  0.23855  0.52403  0.35333  1.0000
  N   N37       1.0  0.25360  0.52650  0.42445  1.0000
  C   C162      1.0  0.27524  0.52468  0.42079  1.0000
  N   N38       1.0  0.28954  0.52873  0.49306  1.0000
  C   C163      1.0  0.28836  0.53697  0.57098  1.0000
  N   N39       1.0  0.30499  0.53915  0.63893  1.0000
  H   H121      1.0  0.27482  0.54127  0.58534  1.0000
  H   H122      1.0  0.30166  0.50202  0.63368  1.0000
  C   C164      1.0  0.33273  0.55592  0.61775  1.0000
  H   H123      1.0  0.33643  0.57456  0.59311  1.0000
  H   H124      1.0  0.33905  0.54710  0.56754  1.0000
  C   C165      1.0  0.47638  0.76144  0.33616  1.0000
  C   C166      1.0  0.47419  0.71409  0.35394  1.0000
  N   N40       1.0  0.47177  0.72671  0.42505  1.0000
  C   C167      1.0  0.47358  0.75016  0.42137  1.0000
  N   N41       1.0  0.46959  0.76046  0.49364  1.0000
  C   C168      1.0  0.46140  0.75107  0.57163  1.0000
  N   N42       1.0  0.45928  0.76556  0.63959  1.0000
  H   H125      1.0  0.45708  0.73323  0.58604  1.0000
  H   H126      1.0  0.49642  0.79934  0.63399  1.0000
  C   C169      1.0  0.44252  0.77654  0.61854  1.0000
  H   H127      1.0  0.42385  0.76160  0.59408  1.0000
  H   H128      1.0  0.45130  0.79165  0.56824  1.0000
  C   C170      1.0  0.23692  0.71451  0.33557  1.0000
  C   C171      1.0  0.28425  0.75967  0.35343  1.0000
  N   N43       1.0  0.27165  0.74462  0.42455  1.0000
  C   C172      1.0  0.24822  0.72296  0.42080  1.0000
  N   N44       1.0  0.23793  0.70870  0.49312  1.0000
  C   C173      1.0  0.24733  0.70988  0.57107  1.0000
  N   N45       1.0  0.23284  0.69330  0.63907  1.0000
  H   H129      1.0  0.26519  0.72337  0.58540  1.0000
  H   H130      1.0  0.19910  0.69674  0.63358  1.0000
  C   C174      1.0  0.22180  0.66554  0.61808  1.0000
  H   H131      1.0  0.23671  0.66178  0.59357  1.0000
  H   H132      1.0  0.20667  0.65924  0.56782  1.0000
  C   C175      1.0  0.71739  0.47788  0.33037  1.0000
  C   C176      1.0  0.76216  0.47474  0.34368  1.0000
  N   N46       1.0  0.74752  0.47244  0.41596  1.0000
  C   C177      1.0  0.72614  0.47474  0.41457  1.0000
  N   N47       1.0  0.71220  0.47068  0.48778  1.0000
  C   C178      1.0  0.71371  0.46241  0.56526  1.0000
  N   N48       1.0  0.69734  0.46016  0.63426  1.0000
  H   H133      1.0  0.72728  0.45806  0.57842  1.0000
  H   H134      1.0  0.70021  0.49709  0.62936  1.0000
  C   C179      1.0  0.66954  0.44314  0.61455  1.0000
  H   H135      1.0  0.66592  0.42452  0.58995  1.0000
  H   H136      1.0  0.66286  0.45175  0.56482  1.0000
  C   C180      1.0  0.52044  0.23921  0.33063  1.0000
  C   C181      1.0  0.52368  0.28713  0.34375  1.0000
  N   N49       1.0  0.52597  0.27482  0.41614  1.0000
  C   C182      1.0  0.52365  0.25113  0.41479  1.0000
  N   N50       1.0  0.52768  0.24122  0.48798  1.0000
  C   C183      1.0  0.53594  0.25099  0.56548  1.0000
  N   N51       1.0  0.53812  0.23684  0.63450  1.0000
  H   H137      1.0  0.54028  0.26890  0.57870  1.0000
  H   H138      1.0  0.50114  0.20283  0.62950  1.0000
  C   C184      1.0  0.55508  0.22598  0.61489  1.0000
  H   H139      1.0  0.57373  0.24094  0.59035  1.0000
  H   H140      1.0  0.54646  0.21070  0.56513  1.0000
  C   C185      1.0  0.75907  0.28095  0.32990  1.0000
  C   C186      1.0  0.71117  0.23621  0.34348  1.0000
  N   N52       1.0  0.72352  0.25088  0.41567  1.0000
  C   C187      1.0  0.74719  0.27227  0.41419  1.0000
  N   N53       1.0  0.75708  0.28623  0.48737  1.0000
  C   C188      1.0  0.74731  0.28474  0.56486  1.0000
  N   N54       1.0  0.76144  0.30112  0.63381  1.0000
  H   H141      1.0  0.72939  0.27117  0.57806  1.0000
  H   H142      1.0  0.79550  0.29824  0.62889  1.0000
  C   C189      1.0  0.77223  0.32892  0.61404  1.0000
  H   H143      1.0  0.75723  0.33253  0.58945  1.0000
  H   H144      1.0  0.78751  0.33558  0.56428  1.0000
