data_image0
_chemical_formula_structural       C2NOCHC2NOCHC2NOCHC2NOCHC2NOCHC2NOCHC4H2C4H2C4H2C4H2C4H2C4H2C4H2C4H2C4H2C4H2C4H2C4H2C2NOCHC2NOCHC2NOCHC2NOCHC2NOCHC2NOCHC4H2C4H2C4H2C4H2C4H2C4H2C4H2C4H2C4H2C4H2C4H2C4H2CNCNCNCNCNCNCNCNCNCNCNCNCNCNCNCNCNCNCNCNCNCNCNCNCNCNCNCNCNCNCNCNCNCNCNCNCNCNCNCNCNCNCNCNCNCNCNCNCNCNCNCNCNCNCNCNCNCNCNCNCNCNCNCNCNCNCNCNCNCNCNCNC4H2C4H2C4H2C4H2C4H2C4H2C2NOCHC2NOCHC2NOCHC2NOCHC2NOCHC2NOCHC2NOCHC2NOCHC2NOCHC2NOCHC2NOCHC2NOCHC4H2C4H2C4H2C4H2C4H2C4H2C2NOCHC2NOCHC2NOCHC2NOCHC2NOCHC2NOCHC2NOCHC2NOCHC2NOCHC2NOCHC2NOCHC2NOCH
_chemical_formula_sum              "C324 N108 O36 H108"
_cell_length_a       53.9291
_cell_length_b       53.9292
_cell_length_c       14.8523
_cell_angle_alpha    90
_cell_angle_beta     90
_cell_angle_gamma    120

_space_group_name_H-M_alt    "P 1"
_space_group_IT_number       1

loop_
  _space_group_symop_operation_xyz
  'x, y, z'

loop_
  _atom_site_type_symbol
  _atom_site_label
  _atom_site_symmetry_multiplicity
  _atom_site_fract_x
  _atom_site_fract_y
  _atom_site_fract_z
  _atom_site_occupancy
  C   C1        1.0  0.13718  0.41458  0.25064  1.0000
  C   C2        1.0  0.14990  0.44428  0.24864  1.0000
  N   N1        1.0  0.16934  0.45357  0.18296  1.0000
  O   O1        1.0  0.14820  0.40483  0.18618  1.0000
  C   C3        1.0  0.16762  0.43002  0.14640  1.0000
  H   H1        1.0  0.18050  0.43091  0.09462  1.0000
  C   C4        1.0  0.59782  0.72515  0.25070  1.0000
  C   C5        1.0  0.56811  0.70815  0.24861  1.0000
  N   N2        1.0  0.55881  0.71850  0.18359  1.0000
  O   O2        1.0  0.60754  0.74609  0.18683  1.0000
  C   C6        1.0  0.58236  0.74030  0.14691  1.0000
  H   H2        1.0  0.58142  0.75272  0.09663  1.0000
  C   C7        1.0  0.28744  0.87536  0.25032  1.0000
  C   C8        1.0  0.30440  0.86261  0.24813  1.0000
  N   N3        1.0  0.29427  0.84326  0.18220  1.0000
  O   O3        1.0  0.26672  0.86445  0.18572  1.0000
  C   C9        1.0  0.27249  0.84506  0.14567  1.0000
  H   H3        1.0  0.26052  0.83226  0.09374  1.0000
  C   C10       1.0  0.87776  0.59539  0.25059  1.0000
  C   C11       1.0  0.86509  0.56568  0.24824  1.0000
  N   N4        1.0  0.84555  0.55644  0.18287  1.0000
  O   O4        1.0  0.86662  0.60516  0.18657  1.0000
  C   C12       1.0  0.84733  0.58001  0.14629  1.0000
  H   H4        1.0  0.83405  0.57911  0.09580  1.0000
  C   C13       1.0  0.41708  0.28482  0.25058  1.0000
  C   C14       1.0  0.44679  0.30181  0.24860  1.0000
  N   N5        1.0  0.45609  0.29165  0.18297  1.0000
  O   O5        1.0  0.40734  0.26405  0.18615  1.0000
  C   C15       1.0  0.43254  0.26981  0.14642  1.0000
  H   H5        1.0  0.43343  0.25781  0.09469  1.0000
  C   C16       1.0  0.72768  0.13482  0.25081  1.0000
  C   C17       1.0  0.71068  0.14753  0.24871  1.0000
  N   N6        1.0  0.72105  0.16719  0.18371  1.0000
  O   O6        1.0  0.74864  0.14605  0.18698  1.0000
  C   C18       1.0  0.74286  0.16544  0.14707  1.0000
  H   H6        1.0  0.75529  0.17881  0.09682  1.0000
  C   C19       1.0  0.40085  0.11357  0.36481  1.0000
  C   C20       1.0  0.46232  0.14146  0.37675  1.0000
  C   C21       1.0  0.44714  0.12073  0.30925  1.0000
  C   C22       1.0  0.41684  0.10683  0.30380  1.0000
  H   H7        1.0  0.40679  0.09360  0.25034  1.0000
  H   H8        1.0  0.45810  0.11764  0.25836  1.0000
  C   C23       1.0  0.72262  0.61161  0.36481  1.0000
  C   C24       1.0  0.68894  0.55015  0.37646  1.0000
  C   C25       1.0  0.68355  0.56539  0.30880  1.0000
  C   C26       1.0  0.69991  0.59569  0.30366  1.0000
  H   H9        1.0  0.69684  0.60579  0.25014  1.0000
  H   H10       1.0  0.66950  0.55446  0.25789  1.0000
  C   C27       1.0  0.89883  0.28972  0.36462  1.0000
  C   C28       1.0  0.87100  0.32336  0.37681  1.0000
  C   C29       1.0  0.89168  0.32886  0.30917  1.0000
  C   C30       1.0  0.90557  0.31245  0.30362  1.0000
  H   H11       1.0  0.91877  0.31561  0.25009  1.0000
  H   H12       1.0  0.89476  0.34290  0.25830  1.0000
  C   C31       1.0  0.61408  0.89645  0.36495  1.0000
  C   C32       1.0  0.55262  0.86857  0.37670  1.0000
  C   C33       1.0  0.56781  0.88923  0.30905  1.0000
  C   C34       1.0  0.59812  0.90320  0.30383  1.0000
  H   H13       1.0  0.60820  0.91638  0.25030  1.0000
  H   H14       1.0  0.55686  0.89234  0.25821  1.0000
  C   C35       1.0  0.29226  0.39836  0.36491  1.0000
  C   C36       1.0  0.32584  0.45983  0.37682  1.0000
  C   C37       1.0  0.33138  0.44465  0.30930  1.0000
  C   C38       1.0  0.31499  0.41434  0.30387  1.0000
  H   H15       1.0  0.31815  0.40429  0.25039  1.0000
  H   H16       1.0  0.34542  0.45560  0.25839  1.0000
  C   C39       1.0  0.11596  0.72011  0.36483  1.0000
  C   C40       1.0  0.14374  0.68643  0.37649  1.0000
  C   C41       1.0  0.12311  0.68103  0.30885  1.0000
  C   C42       1.0  0.10916  0.69739  0.30370  1.0000
  H   H17       1.0  0.09599  0.69432  0.25018  1.0000
  H   H18       1.0  0.11997  0.66698  0.25795  1.0000
  C   C43       1.0  0.29368  0.52650  0.37081  1.0000
  C   C44       1.0  0.24047  0.52656  0.36220  1.0000
  C   C45       1.0  0.26474  0.54690  0.31337  1.0000
  C   C46       1.0  0.29090  0.54675  0.31726  1.0000
  H   H19       1.0  0.30725  0.56028  0.27569  1.0000
  H   H20       1.0  0.26293  0.56040  0.26889  1.0000
  C   C47       1.0  0.48599  0.76970  0.37060  1.0000
  C   C48       1.0  0.48585  0.71638  0.36224  1.0000
  C   C49       1.0  0.46557  0.72037  0.31323  1.0000
  C   C50       1.0  0.46569  0.74665  0.31719  1.0000
  H   H21       1.0  0.45218  0.74949  0.27561  1.0000
  H   H22       1.0  0.45201  0.70501  0.26897  1.0000
  C   C51       1.0  0.24265  0.71876  0.37006  1.0000
  C   C52       1.0  0.29598  0.77191  0.36171  1.0000
  C   C53       1.0  0.29202  0.74763  0.31291  1.0000
  C   C54       1.0  0.26570  0.72149  0.31671  1.0000
  H   H23       1.0  0.26288  0.70514  0.27520  1.0000
  H   H24       1.0  0.30735  0.74942  0.26853  1.0000
  C   C55       1.0  0.72128  0.48357  0.37005  1.0000
  C   C56       1.0  0.77445  0.48342  0.36156  1.0000
  C   C57       1.0  0.75017  0.46311  0.31275  1.0000
  C   C58       1.0  0.72400  0.46323  0.31677  1.0000
  H   H25       1.0  0.70763  0.44969  0.27530  1.0000
  H   H26       1.0  0.75193  0.44951  0.26857  1.0000
  C   C59       1.0  0.52902  0.24029  0.37082  1.0000
  C   C60       1.0  0.52909  0.29357  0.36221  1.0000
  C   C61       1.0  0.54942  0.28962  0.31335  1.0000
  C   C62       1.0  0.54927  0.26332  0.31723  1.0000
  H   H27       1.0  0.56278  0.26049  0.27563  1.0000
  H   H28       1.0  0.56290  0.30493  0.26883  1.0000
  C   C63       1.0  0.77216  0.29119  0.37079  1.0000
  C   C64       1.0  0.71885  0.23800  0.36231  1.0000
  C   C65       1.0  0.72284  0.26226  0.31330  1.0000
  C   C66       1.0  0.74912  0.28844  0.31731  1.0000
  H   H29       1.0  0.75196  0.30478  0.27572  1.0000
  H   H30       1.0  0.70749  0.26047  0.26900  1.0000
  C   C67       1.0  0.19896  0.61482  0.26852  1.0000
  C   C68       1.0  0.19860  0.58882  0.26651  1.0000
  N   N7        1.0  0.22199  0.59331  0.22218  1.0000
  O   O7        1.0  0.22257  0.63582  0.22586  1.0000
  C   C69       1.0  0.23557  0.62096  0.19827  1.0000
  H   H31       1.0  0.25448  0.63034  0.16379  1.0000
  C   C70       1.0  0.39761  0.58662  0.26863  1.0000
  C   C71       1.0  0.42363  0.61225  0.26638  1.0000
  N   N8        1.0  0.41913  0.63115  0.22219  1.0000
  O   O8        1.0  0.37659  0.58926  0.22623  1.0000
  C   C72       1.0  0.39148  0.61706  0.19809  1.0000
  H   H32       1.0  0.38202  0.62671  0.16470  1.0000
  C   C73       1.0  0.42581  0.81341  0.26856  1.0000
  C   C74       1.0  0.40015  0.81375  0.26653  1.0000
  N   N9        1.0  0.38127  0.79036  0.22219  1.0000
  O   O9        1.0  0.42321  0.78980  0.22592  1.0000
  C   C75       1.0  0.39536  0.77679  0.19829  1.0000
  H   H33       1.0  0.38583  0.75788  0.16381  1.0000
  C   C76       1.0  0.81593  0.39509  0.26856  1.0000
  C   C77       1.0  0.81632  0.42111  0.26632  1.0000
  N   N10       1.0  0.79289  0.41659  0.22215  1.0000
  O   O10       1.0  0.79227  0.37406  0.22619  1.0000
  C   C78       1.0  0.77935  0.38894  0.19807  1.0000
  H   H34       1.0  0.76024  0.37947  0.16470  1.0000
  C   C79       1.0  0.61733  0.42332  0.26850  1.0000
  C   C80       1.0  0.59132  0.39768  0.26646  1.0000
  N   N11       1.0  0.59581  0.37878  0.22212  1.0000
  O   O11       1.0  0.63834  0.42071  0.22588  1.0000
  C   C81       1.0  0.62347  0.39285  0.19825  1.0000
  H   H35       1.0  0.63285  0.38331  0.16379  1.0000
  C   C82       1.0  0.58911  0.19646  0.26856  1.0000
  C   C83       1.0  0.61474  0.19605  0.26632  1.0000
  N   N12       1.0  0.63364  0.21946  0.22211  1.0000
  O   O12       1.0  0.59175  0.22011  0.22614  1.0000
  C   C84       1.0  0.61955  0.23301  0.19800  1.0000
  H   H36       1.0  0.62919  0.25212  0.16459  1.0000
  C   C85       1.0  0.97703  0.27140  0.35559  1.0000
  C   C86       1.0  0.03937  0.30196  0.35451  1.0000
  C   C87       1.0  0.02314  0.27549  0.30874  1.0000
  C   C88       1.0  0.99264  0.26054  0.30925  1.0000
  H   H37       1.0  0.98190  0.24251  0.27071  1.0000
  H   H38       1.0  0.03340  0.26787  0.26936  1.0000
  C   C89       1.0  0.74107  0.70817  0.35573  1.0000
  C   C90       1.0  0.71050  0.73994  0.35448  1.0000
  C   C91       1.0  0.73689  0.75008  0.30836  1.0000
  C   C92       1.0  0.75188  0.73457  0.30909  1.0000
  H   H39       1.0  0.76987  0.74180  0.27036  1.0000
  H   H40       1.0  0.74451  0.76796  0.26890  1.0000
  C   C93       1.0  0.30433  0.03538  0.35570  1.0000
  C   C94       1.0  0.27259  0.97305  0.35449  1.0000
  C   C95       1.0  0.26232  0.98927  0.30883  1.0000
  C   C96       1.0  0.27787  0.01977  0.30938  1.0000
  H   H41       1.0  0.27056  0.03051  0.27091  1.0000
  H   H42       1.0  0.24442  0.97900  0.26949  1.0000
  C   C97       1.0  0.03788  0.73859  0.35575  1.0000
  C   C98       1.0  0.97554  0.70800  0.35453  1.0000
  C   C99       1.0  0.99178  0.73441  0.30848  1.0000
  C   C100      1.0  0.02227  0.74940  0.30917  1.0000
  H   H43       1.0  0.03302  0.76739  0.27048  1.0000
  H   H44       1.0  0.98151  0.74202  0.26908  1.0000
  C   C101      1.0  0.27391  0.30183  0.35570  1.0000
  C   C102      1.0  0.30445  0.27003  0.35449  1.0000
  C   C103      1.0  0.27799  0.25983  0.30871  1.0000
  C   C104      1.0  0.26305  0.27538  0.30930  1.0000
  H   H45       1.0  0.24501  0.26810  0.27079  1.0000
  H   H46       1.0  0.27036  0.24194  0.26929  1.0000
  C   C105      1.0  0.71065  0.97454  0.35582  1.0000
  C   C106      1.0  0.74242  0.03688  0.35448  1.0000
  C   C107      1.0  0.75254  0.02062  0.30829  1.0000
  C   C108      1.0  0.73703  0.99013  0.30905  1.0000
  H   H47       1.0  0.74424  0.97937  0.27025  1.0000
  H   H48       1.0  0.77040  0.03088  0.26875  1.0000
  C   C109      1.0  0.19471  0.32465  0.35952  1.0000
  C   C110      1.0  0.14086  0.32477  0.35160  1.0000
  C   C111      1.0  0.14684  0.30793  0.29166  1.0000
  C   C112      1.0  0.17325  0.30793  0.29538  1.0000
  H   H49       1.0  0.17764  0.29748  0.24595  1.0000
  H   H50       1.0  0.13308  0.29749  0.23969  1.0000
  C   C113      1.0  0.68773  0.87250  0.35948  1.0000
  C   C114      1.0  0.68758  0.81853  0.35142  1.0000
  C   C115      1.0  0.70450  0.84140  0.29171  1.0000
  C   C116      1.0  0.70457  0.86783  0.29561  1.0000
  H   H51       1.0  0.71508  0.88272  0.24636  1.0000
  H   H52       1.0  0.71507  0.83813  0.24002  1.0000
  C   C117      1.0  0.13992  0.81771  0.35982  1.0000
  C   C118      1.0  0.19394  0.87151  0.35196  1.0000
  C   C119      1.0  0.17109  0.86562  0.29220  1.0000
  C   C120      1.0  0.14467  0.83923  0.29586  1.0000
  H   H53       1.0  0.12982  0.83489  0.24652  1.0000
  H   H54       1.0  0.17442  0.87943  0.24037  1.0000
  C   C121      1.0  0.82023  0.68532  0.35975  1.0000
  C   C122      1.0  0.87405  0.68514  0.35191  1.0000
  C   C123      1.0  0.86808  0.70197  0.29189  1.0000
  C   C124      1.0  0.84172  0.70205  0.29569  1.0000
  H   H55       1.0  0.83733  0.71250  0.24625  1.0000
  H   H56       1.0  0.88190  0.71247  0.24009  1.0000
  C   C125      1.0  0.32713  0.13739  0.35944  1.0000
  C   C126      1.0  0.32726  0.19137  0.35148  1.0000
  C   C127      1.0  0.31043  0.16854  0.29151  1.0000
  C   C128      1.0  0.31042  0.14214  0.29524  1.0000
  H   H57       1.0  0.29999  0.12730  0.24579  1.0000
  H   H58       1.0  0.30001  0.17188  0.23951  1.0000
  C   C129      1.0  0.87507  0.19217  0.35941  1.0000
  C   C130      1.0  0.82104  0.13837  0.35133  1.0000
  C   C131      1.0  0.84386  0.14433  0.29138  1.0000
  C   C132      1.0  0.87030  0.17069  0.29526  1.0000
  H   H59       1.0  0.88514  0.17509  0.24583  1.0000
  H   H60       1.0  0.84054  0.13053  0.23955  1.0000
  C   C133      1.0  0.16332  0.48931  0.32460  1.0000
  N   N13       1.0  0.15826  0.51160  0.31471  1.0000
  C   C134      1.0  0.18033  0.53937  0.31920  1.0000
  N   N14       1.0  0.20730  0.54413  0.33490  1.0000
  C   C135      1.0  0.21278  0.52247  0.34755  1.0000
  N   N15       1.0  0.19052  0.49545  0.34076  1.0000
  C   C136      1.0  0.52312  0.67651  0.32454  1.0000
  N   N16       1.0  0.50083  0.64916  0.31466  1.0000
  C   C137      1.0  0.47306  0.64345  0.31918  1.0000
  N   N17       1.0  0.46829  0.66564  0.33492  1.0000
  C   C138      1.0  0.48994  0.69278  0.34761  1.0000
  N   N18       1.0  0.51697  0.69756  0.34078  1.0000
  C   C139      1.0  0.33592  0.84905  0.32394  1.0000
  N   N19       1.0  0.36328  0.85411  0.31444  1.0000
  C   C140      1.0  0.36896  0.83203  0.31903  1.0000
  N   N20       1.0  0.34674  0.80506  0.33462  1.0000
  C   C141      1.0  0.31960  0.79960  0.34702  1.0000
  N   N21       1.0  0.31484  0.82186  0.34011  1.0000
  C   C142      1.0  0.85159  0.52063  0.32380  1.0000
  N   N22       1.0  0.85665  0.49832  0.31430  1.0000
  C   C143      1.0  0.83457  0.47056  0.31887  1.0000
  N   N23       1.0  0.80760  0.46582  0.33445  1.0000
  C   C144      1.0  0.80214  0.48750  0.34689  1.0000
  N   N24       1.0  0.82440  0.51451  0.34002  1.0000
  C   C145      1.0  0.49181  0.33344  0.32455  1.0000
  N   N25       1.0  0.51411  0.36079  0.31462  1.0000
  C   C146      1.0  0.54187  0.36650  0.31914  1.0000
  N   N26       1.0  0.54665  0.34430  0.33487  1.0000
  C   C147      1.0  0.52499  0.31716  0.34754  1.0000
  N   N27       1.0  0.49796  0.31239  0.34074  1.0000
  C   C148      1.0  0.67902  0.16086  0.32457  1.0000
  N   N28       1.0  0.65166  0.15578  0.31466  1.0000
  C   C149      1.0  0.64594  0.17783  0.31918  1.0000
  N   N29       1.0  0.66812  0.20481  0.33493  1.0000
  C   C150      1.0  0.69527  0.21030  0.34764  1.0000
  N   N30       1.0  0.70005  0.18806  0.34082  1.0000
  C   C151      1.0  0.49190  0.16199  0.36761  1.0000
  N   N31       1.0  0.51358  0.15693  0.34541  1.0000
  C   C152      1.0  0.54097  0.17907  0.33249  1.0000
  N   N32       1.0  0.54595  0.20639  0.34189  1.0000
  C   C153      1.0  0.52506  0.21228  0.36413  1.0000
  N   N33       1.0  0.49849  0.18964  0.37520  1.0000
  C   C154      1.0  0.67999  0.52059  0.36727  1.0000
  N   N34       1.0  0.65326  0.49889  0.34516  1.0000
  C   C155      1.0  0.64806  0.47152  0.33212  1.0000
  N   N35       1.0  0.67044  0.46659  0.34135  1.0000
  C   C156      1.0  0.69722  0.48752  0.36341  1.0000
  N   N36       1.0  0.70111  0.51407  0.37463  1.0000
  C   C157      1.0  0.85047  0.33242  0.36788  1.0000
  N   N37       1.0  0.85552  0.35913  0.34543  1.0000
  C   C158      1.0  0.83336  0.36436  0.33240  1.0000
  N   N38       1.0  0.80605  0.34202  0.34182  1.0000
  C   C159      1.0  0.80017  0.31525  0.36413  1.0000
  N   N39       1.0  0.82282  0.31133  0.37533  1.0000
  C   C160      1.0  0.52304  0.84802  0.36779  1.0000
  N   N40       1.0  0.50136  0.85305  0.34534  1.0000
  C   C161      1.0  0.47399  0.83088  0.33226  1.0000
  N   N41       1.0  0.46904  0.80358  0.34165  1.0000
  C   C162      1.0  0.48995  0.79771  0.36391  1.0000
  N   N42       1.0  0.51651  0.82038  0.37517  1.0000
  C   C163      1.0  0.33488  0.48941  0.36765  1.0000
  N   N43       1.0  0.36162  0.51109  0.34546  1.0000
  C   C164      1.0  0.36686  0.53847  0.33252  1.0000
  N   N44       1.0  0.34452  0.54345  0.34190  1.0000
  C   C165      1.0  0.31774  0.52255  0.36413  1.0000
  N   N45       1.0  0.31381  0.49598  0.37522  1.0000
  C   C166      1.0  0.16434  0.67747  0.36730  1.0000
  N   N46       1.0  0.15931  0.65074  0.34517  1.0000
  C   C167      1.0  0.18148  0.64555  0.33211  1.0000
  N   N47       1.0  0.20879  0.66792  0.34134  1.0000
  C   C168      1.0  0.21465  0.69470  0.36342  1.0000
  N   N48       1.0  0.19198  0.69859  0.37465  1.0000
  C   C169      1.0  0.11830  0.33104  0.33837  1.0000
  N   N49       1.0  0.08960  0.31167  0.34554  1.0000
  C   C170      1.0  0.06962  0.32035  0.34403  1.0000
  N   N50       1.0  0.07925  0.34892  0.33519  1.0000
  C   C171      1.0  0.10732  0.36866  0.32613  1.0000
  N   N51       1.0  0.12635  0.35919  0.32898  1.0000
  C   C172      1.0  0.68134  0.78971  0.33824  1.0000
  N   N52       1.0  0.70073  0.78040  0.34543  1.0000
  C   C173      1.0  0.69207  0.75175  0.34389  1.0000
  N   N53       1.0  0.66351  0.73278  0.33501  1.0000
  C   C174      1.0  0.64376  0.74110  0.32593  1.0000
  N   N54       1.0  0.65320  0.76959  0.32880  1.0000
  C   C175      1.0  0.22276  0.89409  0.33894  1.0000
  N   N55       1.0  0.23207  0.92280  0.34581  1.0000
  C   C176      1.0  0.26073  0.94279  0.34418  1.0000
  N   N56       1.0  0.27968  0.93318  0.33525  1.0000
  C   C177      1.0  0.27136  0.90511  0.32631  1.0000
  N   N57       1.0  0.24287  0.88606  0.32935  1.0000
  C   C178      1.0  0.89660  0.67885  0.33890  1.0000
  N   N58       1.0  0.92530  0.69824  0.34576  1.0000
  C   C179      1.0  0.94530  0.68958  0.34410  1.0000
  N   N59       1.0  0.93568  0.66101  0.33523  1.0000
  C   C180      1.0  0.90761  0.64126  0.32631  1.0000
  N   N60       1.0  0.88856  0.65070  0.32933  1.0000
  C   C181      1.0  0.33353  0.22019  0.33824  1.0000
  N   N61       1.0  0.31417  0.22953  0.34544  1.0000
  C   C182      1.0  0.32286  0.25819  0.34393  1.0000
  N   N62       1.0  0.35143  0.27713  0.33507  1.0000
  C   C183      1.0  0.37116  0.26879  0.32600  1.0000
  N   N63       1.0  0.36169  0.24029  0.32885  1.0000
  C   C184      1.0  0.79222  0.11580  0.33822  1.0000
  N   N64       1.0  0.78290  0.08711  0.34539  1.0000
  C   C185      1.0  0.75423  0.06712  0.34390  1.0000
  N   N65       1.0  0.73528  0.07673  0.33507  1.0000
  C   C186      1.0  0.74361  0.10480  0.32600  1.0000
  N   N66       1.0  0.77210  0.12384  0.32883  1.0000
  C   C187      1.0  0.33343  0.11460  0.35270  1.0000
  N   N67       1.0  0.31403  0.08577  0.34923  1.0000
  C   C188      1.0  0.32281  0.06580  0.34923  1.0000
  N   N68       1.0  0.35155  0.07566  0.35094  1.0000
  C   C189      1.0  0.37134  0.10381  0.35347  1.0000
  N   N69       1.0  0.36166  0.12262  0.35601  1.0000
  C   C190      1.0  0.79113  0.67900  0.35297  1.0000
  N   N70       1.0  0.78172  0.69842  0.34937  1.0000
  C   C191      1.0  0.75299  0.68966  0.34913  1.0000
  N   N71       1.0  0.73408  0.66093  0.35092  1.0000
  C   C192      1.0  0.74242  0.64112  0.35362  1.0000
  N   N72       1.0  0.77090  0.65077  0.35623  1.0000
  C   C193      1.0  0.89782  0.22127  0.35250  1.0000
  N   N73       1.0  0.92665  0.23071  0.34910  1.0000
  C   C194      1.0  0.94661  0.25945  0.34896  1.0000
  N   N74       1.0  0.93675  0.27833  0.35071  1.0000
  C   C195      1.0  0.90859  0.26996  0.35324  1.0000
  N   N75       1.0  0.88979  0.24148  0.35581  1.0000
  C   C196      1.0  0.68145  0.89531  0.35279  1.0000
  N   N76       1.0  0.70087  0.92413  0.34929  1.0000
  C   C197      1.0  0.69213  0.94412  0.34924  1.0000
  N   N77       1.0  0.66340  0.93432  0.35106  1.0000
  C   C198      1.0  0.64359  0.90617  0.35366  1.0000
  N   N78       1.0  0.65322  0.88732  0.35613  1.0000
  C   C199      1.0  0.22380  0.33094  0.35278  1.0000
  N   N79       1.0  0.23323  0.31154  0.34928  1.0000
  C   C200      1.0  0.26197  0.32032  0.34928  1.0000
  N   N80       1.0  0.28086  0.34905  0.35101  1.0000
  C   C201      1.0  0.27250  0.36884  0.35358  1.0000
  N   N81       1.0  0.24402  0.35918  0.35612  1.0000
  C   C202      1.0  0.11711  0.78864  0.35302  1.0000
  N   N82       1.0  0.08829  0.77924  0.34939  1.0000
  C   C203      1.0  0.06830  0.75050  0.34913  1.0000
  N   N83       1.0  0.07811  0.73159  0.35091  1.0000
  C   C204      1.0  0.10626  0.73992  0.35362  1.0000
  N   N84       1.0  0.12509  0.76840  0.35628  1.0000
  C   C205      1.0  0.11695  0.39829  0.31747  1.0000
  C   C206      1.0  0.14342  0.45983  0.31185  1.0000
  C   C207      1.0  0.12220  0.44351  0.37679  1.0000
  C   C208      1.0  0.10888  0.41320  0.37873  1.0000
  H   H61       1.0  0.09496  0.40233  0.43003  1.0000
  H   H62       1.0  0.11800  0.45366  0.42773  1.0000
  C   C209      1.0  0.61413  0.72108  0.31718  1.0000
  C   C210      1.0  0.55261  0.68610  0.31182  1.0000
  C   C211      1.0  0.56892  0.68107  0.37639  1.0000
  C   C212      1.0  0.59923  0.69797  0.37808  1.0000
  H   H63       1.0  0.61014  0.69487  0.42914  1.0000
  H   H64       1.0  0.55878  0.66658  0.42701  1.0000
  C   C213      1.0  0.29137  0.89551  0.31743  1.0000
  C   C214      1.0  0.32636  0.86898  0.31149  1.0000
  C   C215      1.0  0.33127  0.89012  0.37670  1.0000
  C   C216      1.0  0.31431  0.90346  0.37882  1.0000
  H   H65       1.0  0.31732  0.91731  0.43032  1.0000
  H   H66       1.0  0.34558  0.89423  0.42770  1.0000
  C   C217      1.0  0.89801  0.61164  0.31743  1.0000
  C   C218      1.0  0.87156  0.55012  0.31145  1.0000
  C   C219      1.0  0.89275  0.56639  0.37646  1.0000
  C   C220      1.0  0.90613  0.59670  0.37843  1.0000
  H   H67       1.0  0.92004  0.60756  0.42975  1.0000
  H   H68       1.0  0.89700  0.55621  0.42716  1.0000
  C   C221      1.0  0.40079  0.28879  0.31735  1.0000
  C   C222      1.0  0.46233  0.32386  0.31178  1.0000
  C   C223      1.0  0.44601  0.32877  0.37665  1.0000
  C   C224      1.0  0.41570  0.31179  0.37857  1.0000
  H   H69       1.0  0.40482  0.31484  0.42983  1.0000
  H   H70       1.0  0.45615  0.34313  0.42756  1.0000
  C   C225      1.0  0.72360  0.11442  0.31726  1.0000
  C   C226      1.0  0.68861  0.14096  0.31186  1.0000
  C   C227      1.0  0.68357  0.11961  0.37639  1.0000
  C   C228      1.0  0.70047  0.10620  0.37809  1.0000
  H   H71       1.0  0.69735  0.09218  0.42912  1.0000
  H   H72       1.0  0.66907  0.11525  0.42697  1.0000
  C   C229      1.0  0.41589  0.13261  0.43570  1.0000
  C   C230      1.0  0.44558  0.14595  0.44104  1.0000
  N   N85       1.0  0.45346  0.16384  0.51083  1.0000
  O   O13       1.0  0.40481  0.14186  0.50150  1.0000
  C   C231      1.0  0.42919  0.16081  0.54592  1.0000
  H   H73       1.0  0.42902  0.17246  0.59988  1.0000
  C   C232      1.0  0.72652  0.59652  0.43576  1.0000
  C   C233      1.0  0.71008  0.56684  0.44108  1.0000
  N   N86       1.0  0.72012  0.55891  0.51070  1.0000
  O   O14       1.0  0.74689  0.60753  0.50144  1.0000
  C   C234      1.0  0.74126  0.58315  0.54623  1.0000
  H   H74       1.0  0.75341  0.58323  0.59908  1.0000
  C   C235      1.0  0.87983  0.28574  0.43560  1.0000
  C   C236      1.0  0.86652  0.30211  0.44103  1.0000
  N   N87       1.0  0.84866  0.29212  0.51092  1.0000
  O   O15       1.0  0.87060  0.26542  0.50142  1.0000
  C   C237      1.0  0.85168  0.27087  0.54595  1.0000
  H   H75       1.0  0.84006  0.25907  0.59996  1.0000
  C   C238      1.0  0.59902  0.87745  0.43592  1.0000
  C   C239      1.0  0.56934  0.86417  0.44133  1.0000
  N   N88       1.0  0.56145  0.84621  0.51097  1.0000
  O   O16       1.0  0.61007  0.86813  0.50160  1.0000
  C   C240      1.0  0.58571  0.84935  0.54644  1.0000
  H   H76       1.0  0.58582  0.83731  0.59931  1.0000
  C   C241      1.0  0.28827  0.41340  0.43581  1.0000
  C   C242      1.0  0.30462  0.44309  0.44113  1.0000
  N   N89       1.0  0.29461  0.45097  0.51093  1.0000
  O   O17       1.0  0.26795  0.40233  0.50163  1.0000
  C   C243      1.0  0.27338  0.42671  0.54604  1.0000
  H   H77       1.0  0.26157  0.42654  0.60002  1.0000
  C   C244      1.0  0.13495  0.72402  0.43577  1.0000
  C   C245      1.0  0.14819  0.70757  0.44111  1.0000
  N   N90       1.0  0.16617  0.71762  0.51071  1.0000
  O   O18       1.0  0.14432  0.74439  0.50144  1.0000
  C   C246      1.0  0.16308  0.73877  0.54621  1.0000
  H   H78       1.0  0.17515  0.75092  0.59905  1.0000
  C   C247      1.0  0.26997  0.50790  0.42485  1.0000
  C   C248      1.0  0.24420  0.50782  0.41947  1.0000
  N   N91       1.0  0.22568  0.48711  0.47366  1.0000
  O   O19       1.0  0.26790  0.48728  0.48259  1.0000
  C   C249      1.0  0.24016  0.47547  0.51052  1.0000
  H   H79       1.0  0.23104  0.45877  0.55482  1.0000
  C   C250      1.0  0.50459  0.76459  0.42466  1.0000
  C   C251      1.0  0.50459  0.73886  0.41950  1.0000
  N   N92       1.0  0.52534  0.74107  0.47354  1.0000
  O   O20       1.0  0.52528  0.78317  0.48217  1.0000
  C   C252      1.0  0.53698  0.76718  0.51047  1.0000
  H   H80       1.0  0.55389  0.77487  0.55395  1.0000
  C   C253      1.0  0.24777  0.74248  0.42408  1.0000
  C   C254      1.0  0.27349  0.76822  0.41881  1.0000
  N   N93       1.0  0.27130  0.78676  0.47293  1.0000
  O   O21       1.0  0.22920  0.74458  0.48169  1.0000
  C   C255      1.0  0.24516  0.77232  0.50965  1.0000
  H   H81       1.0  0.23759  0.78146  0.55386  1.0000
  C   C256      1.0  0.74501  0.50219  0.42401  1.0000
  C   C257      1.0  0.77075  0.50219  0.41879  1.0000
  N   N94       1.0  0.78931  0.52297  0.47272  1.0000
  O   O22       1.0  0.74714  0.52291  0.48143  1.0000
  C   C258      1.0  0.77485  0.53463  0.50963  1.0000
  H   H82       1.0  0.78409  0.55156  0.55303  1.0000
  C   C259      1.0  0.51043  0.24541  0.42489  1.0000
  C   C260      1.0  0.51036  0.27110  0.41951  1.0000
  N   N95       1.0  0.48965  0.26891  0.47372  1.0000
  O   O23       1.0  0.48982  0.22686  0.48267  1.0000
  C   C261      1.0  0.47801  0.24280  0.51061  1.0000
  H   H83       1.0  0.46133  0.23523  0.55493  1.0000
  C   C262      1.0  0.76704  0.26748  0.42486  1.0000
  C   C263      1.0  0.74132  0.24174  0.41964  1.0000
  N   N96       1.0  0.74353  0.22320  0.47368  1.0000
  O   O24       1.0  0.78562  0.26538  0.48241  1.0000
  C   C264      1.0  0.76963  0.23768  0.51067  1.0000
  H   H84       1.0  0.77731  0.22846  0.55418  1.0000
  C   C265      1.0  0.17772  0.61781  0.31518  1.0000
  C   C266      1.0  0.17702  0.56382  0.30888  1.0000
  C   C267      1.0  0.15441  0.56601  0.34957  1.0000
  C   C268      1.0  0.15482  0.59251  0.35298  1.0000
  H   H85       1.0  0.13925  0.59357  0.38924  1.0000
  H   H86       1.0  0.13866  0.54889  0.38369  1.0000
  C   C269      1.0  0.39461  0.56241  0.31543  1.0000
  C   C270      1.0  0.44862  0.61568  0.30883  1.0000
  C   C271      1.0  0.44640  0.59091  0.34984  1.0000
  C   C272      1.0  0.41990  0.56480  0.35316  1.0000
  H   H87       1.0  0.41882  0.54818  0.38956  1.0000
  H   H88       1.0  0.46353  0.59226  0.38381  1.0000
  C   C273      1.0  0.45004  0.83467  0.31518  1.0000
  C   C274      1.0  0.39673  0.83533  0.30890  1.0000
  C   C275      1.0  0.42152  0.85795  0.34955  1.0000
  C   C276      1.0  0.44762  0.85755  0.35299  1.0000
  H   H89       1.0  0.46424  0.87312  0.38925  1.0000
  H   H90       1.0  0.42015  0.87371  0.38364  1.0000
  C   C277      1.0  0.83718  0.39210  0.31524  1.0000
  C   C278      1.0  0.83788  0.44611  0.30872  1.0000
  C   C279      1.0  0.86045  0.44390  0.34963  1.0000
  C   C280      1.0  0.86008  0.41741  0.35296  1.0000
  H   H91       1.0  0.87562  0.41634  0.38931  1.0000
  H   H92       1.0  0.87624  0.46105  0.38353  1.0000
  C   C281      1.0  0.62033  0.44755  0.31518  1.0000
  C   C282      1.0  0.56632  0.39426  0.30876  1.0000
  C   C283      1.0  0.56852  0.41905  0.34954  1.0000
  C   C284      1.0  0.59503  0.44515  0.35298  1.0000
  H   H93       1.0  0.59609  0.46177  0.38927  1.0000
  H   H94       1.0  0.55141  0.41769  0.38367  1.0000
  C   C285      1.0  0.56490  0.17525  0.31539  1.0000
  C   C286      1.0  0.61816  0.17449  0.30879  1.0000
  C   C287      1.0  0.59339  0.15196  0.34983  1.0000
  C   C288      1.0  0.56729  0.15234  0.35316  1.0000
  H   H95       1.0  0.55067  0.13682  0.38958  1.0000
  H   H96       1.0  0.59475  0.13618  0.38383  1.0000
  C   C289      1.0  0.99352  0.29674  0.40627  1.0000
  C   C290      1.0  0.02336  0.31135  0.40487  1.0000
  N   N97       1.0  0.03223  0.33458  0.45612  1.0000
  O   O25       1.0  0.98351  0.31066  0.45866  1.0000
  C   C291      1.0  0.00848  0.33366  0.48724  1.0000
  H   H97       1.0  0.00901  0.34908  0.52842  1.0000
  C   C292      1.0  0.71576  0.69936  0.40656  1.0000
  C   C293      1.0  0.70116  0.71460  0.40514  1.0000
  N   N98       1.0  0.67795  0.70026  0.45648  1.0000
  O   O26       1.0  0.70186  0.67546  0.45909  1.0000
  C   C294      1.0  0.67891  0.67748  0.48788  1.0000
  H   H98       1.0  0.66343  0.66254  0.52875  1.0000
  C   C295      1.0  0.31319  0.01889  0.40639  1.0000
  C   C296      1.0  0.29797  0.98905  0.40494  1.0000
  N   N99       1.0  0.31233  0.98019  0.45622  1.0000
  O   O27       1.0  0.33711  0.02890  0.45885  1.0000
  C   C297      1.0  0.33515  0.00394  0.48741  1.0000
  H   H99       1.0  0.35003  0.00341  0.52863  1.0000
  C   C298      1.0  0.02138  0.71327  0.40656  1.0000
  C   C299      1.0  0.99154  0.69866  0.40516  1.0000
  N   N100      1.0  0.98268  0.67544  0.45648  1.0000
  O   O28       1.0  0.03139  0.69936  0.45906  1.0000
  C   C300      1.0  0.00642  0.67641  0.48786  1.0000
  H   H100      1.0  0.00589  0.66093  0.52872  1.0000
  C   C301      1.0  0.29926  0.31067  0.40637  1.0000
  C   C302      1.0  0.31386  0.29543  0.40489  1.0000
  N   N101      1.0  0.33709  0.30978  0.45614  1.0000
  O   O29       1.0  0.31319  0.33458  0.45882  1.0000
  C   C303      1.0  0.33618  0.33261  0.48733  1.0000
  H   H101      1.0  0.35160  0.34748  0.52854  1.0000
  C   C304      1.0  0.70186  0.99105  0.40671  1.0000
  C   C305      1.0  0.71710  0.02089  0.40524  1.0000
  N   N102      1.0  0.70279  0.02978  0.45666  1.0000
  O   O30       1.0  0.67798  0.98106  0.45934  1.0000
  C   C306      1.0  0.68003  0.00604  0.48815  1.0000
  H   H102      1.0  0.66510  0.00658  0.52910  1.0000
  C   C307      1.0  0.18765  0.33985  0.42260  1.0000
  C   C308      1.0  0.16197  0.34013  0.41750  1.0000
  N   N103      1.0  0.16295  0.35820  0.48054  1.0000
  O   O31       1.0  0.20492  0.35773  0.48866  1.0000
  C   C309      1.0  0.18822  0.36801  0.52209  1.0000
  H   H103      1.0  0.19482  0.38266  0.57305  1.0000
  C   C310      1.0  0.67244  0.85020  0.42237  1.0000
  C   C311      1.0  0.67220  0.82425  0.41736  1.0000
  N   N104      1.0  0.65398  0.80709  0.47997  1.0000
  O   O32       1.0  0.65441  0.84950  0.48805  1.0000
  C   C312      1.0  0.64422  0.82256  0.52172  1.0000
  H   H104      1.0  0.62914  0.81430  0.57140  1.0000
  C   C313      1.0  0.16219  0.82472  0.42284  1.0000
  C   C314      1.0  0.18818  0.85038  0.41779  1.0000
  N   N105      1.0  0.20526  0.84935  0.48074  1.0000
  O   O33       1.0  0.16278  0.80741  0.48879  1.0000
  C   C315      1.0  0.18978  0.82407  0.52221  1.0000
  H   H105      1.0  0.19782  0.81744  0.57309  1.0000
  C   C316      1.0  0.82724  0.67005  0.42275  1.0000
  C   C317      1.0  0.85294  0.66980  0.41784  1.0000
  N   N106      1.0  0.85187  0.65162  0.48061  1.0000
  O   O34       1.0  0.80990  0.65207  0.48851  1.0000
  C   C318      1.0  0.82665  0.64189  0.52232  1.0000
  H   H106      1.0  0.81982  0.62685  0.57213  1.0000
  C   C319      1.0  0.34231  0.15964  0.42255  1.0000
  C   C320      1.0  0.34260  0.18561  0.41744  1.0000
  N   N107      1.0  0.36066  0.20269  0.48050  1.0000
  O   O35       1.0  0.36018  0.16024  0.48864  1.0000
  C   C321      1.0  0.37046  0.18723  0.52207  1.0000
  H   H107      1.0  0.38510  0.19528  0.57306  1.0000
  C   C322      1.0  0.85277  0.18513  0.42239  1.0000
  C   C323      1.0  0.82681  0.15944  0.41740  1.0000
  N   N108      1.0  0.80969  0.16050  0.48016  1.0000
  O   O36       1.0  0.85213  0.20245  0.48819  1.0000
  C   C324      1.0  0.82520  0.18570  0.52197  1.0000
  H   H108      1.0  0.81698  0.19253  0.57178  1.0000
