data_image0
_chemical_formula_structural       C2NHCHOHC2NHCHOH3CHC5OCHC5OHNCN2HN2CHNCN2HN2C4NH4C6N2H6C6N2H6NCHCHNCHNCHNCHC3HNHC3HNC3NH3C3HNC3NH3C3O2HC2NC2O2HC3NC2O2HC2NC2O2HC2NC2O2HC3NH4C6N2H6C6N2H6NCHCHNCHNCHNCHC3HNHC3HNC3NH3C3HNC3NH3C3O2HC2NC2O2HC3NC2O2HC2NC2O2HC2NC2O2HC6N2H5C6N2H6C6N2H6NCHNCHNCHNCHNCHNCHC3HNC3NH3C3HNC3NH3C3HNC3NH3C2NC2O2HC2NC2O2HC2NC2O2HC2NC2O2HC2NC2O2HC2NC2O2HC6N2H5C6N2H6C6N2H6NCHNCHNCHNCHNCHNCHC3HNC3NH3C3HNC3NH3C3HNC3NH3C2NC2O2HC2NC2O2HC2NC2O2HC2NC2O2HC2NC2O2HC2NC2O2H
_chemical_formula_sum              "C264 N96 H168 O48"
_cell_length_a       45.7238
_cell_length_b       45.7238
_cell_length_c       14.913
_cell_angle_alpha    90
_cell_angle_beta     90
_cell_angle_gamma    120

_space_group_name_H-M_alt    "P 1"
_space_group_IT_number       1

loop_
  _space_group_symop_operation_xyz
  'x, y, z'

loop_
  _atom_site_type_symbol
  _atom_site_label
  _atom_site_symmetry_multiplicity
  _atom_site_fract_x
  _atom_site_fract_y
  _atom_site_fract_z
  _atom_site_occupancy
  C   C1        1.0  0.02256  0.26119  0.31945  1.0000
  C   C2        1.0  0.04446  0.29705  0.31174  1.0000
  N   N1        1.0  0.03562  0.31533  0.25700  1.0000
  H   H1        1.0  0.05036  0.33933  0.24658  1.0000
  C   C3        1.0  0.03967  0.24275  0.33561  1.0000
  H   H2        1.0  0.02678  0.21705  0.33651  1.0000
  O   O1        1.0  0.05354  0.35397  0.47520  1.0000
  H   H3        1.0  0.04413  0.35652  0.42617  1.0000
  C   C4        1.0  0.02256  0.76119  0.31945  1.0000
  C   C5        1.0  0.04446  0.79705  0.31174  1.0000
  N   N2        1.0  0.03562  0.81534  0.25700  1.0000
  H   H4        1.0  0.05036  0.83933  0.24658  1.0000
  C   C6        1.0  0.03967  0.74275  0.33561  1.0000
  H   H5        1.0  0.02678  0.71705  0.33651  1.0000
  O   O2        1.0  0.05354  0.85397  0.47520  1.0000
  H   H6        1.0  0.04413  0.85652  0.42617  1.0000
  H   H7        1.0  0.01684  0.30399  0.21536  1.0000
  H   H8        1.0  0.01684  0.80399  0.21536  1.0000
  C   C7        1.0  0.07696  0.31297  0.35384  1.0000
  H   H9        1.0  0.09202  0.24636  0.20579  1.0000
  C   C8        1.0  0.09026  0.29268  0.38770  1.0000
  C   C9        1.0  0.07343  0.25770  0.36564  1.0000
  C   C10       1.0  0.09235  0.24134  0.34763  1.0000
  C   C11       1.0  0.09974  0.34817  0.34495  1.0000
  C   C12       1.0  0.08427  0.36605  0.48546  1.0000
  O   O3        1.0  0.09233  0.35925  0.55725  1.0000
  C   C13       1.0  0.07695  0.81296  0.35384  1.0000
  H   H10       1.0  0.09202  0.74636  0.20579  1.0000
  C   C14       1.0  0.09026  0.79268  0.38770  1.0000
  C   C15       1.0  0.07342  0.75770  0.36564  1.0000
  C   C16       1.0  0.09235  0.74134  0.34763  1.0000
  C   C17       1.0  0.09974  0.84817  0.34495  1.0000
  C   C18       1.0  0.08427  0.86606  0.48546  1.0000
  O   O4        1.0  0.09233  0.85925  0.55725  1.0000
  H   H11       1.0  0.12897  0.32970  0.45988  1.0000
  N   N3        1.0  0.13328  0.24299  0.24459  1.0000
  C   C19       1.0  0.10294  0.24111  0.25855  1.0000
  N   N4        1.0  0.12552  0.35591  0.28687  1.0000
  N   N5        1.0  0.11920  0.30684  0.43789  1.0000
  H   H12       1.0  0.12628  0.29323  0.47050  1.0000
  N   N6        1.0  0.11175  0.23869  0.41265  1.0000
  N   N7        1.0  0.13733  0.40015  0.41933  1.0000
  C   C20       1.0  0.10593  0.37212  0.41402  1.0000
  H   H13       1.0  0.12898  0.82970  0.45988  1.0000
  N   N8        1.0  0.13328  0.74299  0.24459  1.0000
  C   C21       1.0  0.10294  0.74111  0.25855  1.0000
  N   N9        1.0  0.12552  0.85592  0.28687  1.0000
  N   N10       1.0  0.11920  0.80684  0.43789  1.0000
  H   H14       1.0  0.12628  0.79323  0.47050  1.0000
  N   N11       1.0  0.11176  0.73869  0.41265  1.0000
  N   N12       1.0  0.13733  0.90015  0.41933  1.0000
  C   C22       1.0  0.10593  0.87212  0.41402  1.0000
  C   C23       1.0  0.48599  0.24460  0.32028  1.0000
  C   C24       1.0  0.43161  0.19275  0.35465  1.0000
  C   C25       1.0  0.46399  0.20877  0.31183  1.0000
  N   N13       1.0  0.47261  0.19065  0.25572  1.0000
  H   H15       1.0  0.99111  0.20220  0.21341  1.0000
  H   H16       1.0  0.45758  0.16678  0.24433  1.0000
  H   H17       1.0  0.51684  0.30399  0.21536  1.0000
  H   H18       1.0  0.38035  0.17581  0.46388  1.0000
  C   C26       1.0  0.26468  0.24523  0.30250  1.0000
  C   C27       1.0  0.32010  0.24655  0.30520  1.0000
  C   C28       1.0  0.30063  0.26246  0.28548  1.0000
  C   C29       1.0  0.24383  0.26090  0.30030  1.0000
  C   C30       1.0  0.20805  0.24348  0.28099  1.0000
  C   C31       1.0  0.18836  0.25945  0.29649  1.0000
  N   N14       1.0  0.31653  0.29247  0.24027  1.0000
  N   N15       1.0  0.19257  0.21317  0.23710  1.0000
  H   H19       1.0  0.30356  0.30031  0.20684  1.0000
  H   H20       1.0  0.34016  0.30295  0.22301  1.0000
  H   H21       1.0  0.16916  0.20277  0.21780  1.0000
  H   H22       1.0  0.20588  0.20520  0.20595  1.0000
  H   H23       1.0  0.16299  0.30071  0.31695  1.0000
  H   H24       1.0  0.34502  0.20507  0.32938  1.0000
  C   C32       1.0  0.26199  0.02123  0.33995  1.0000
  C   C33       1.0  0.25676  0.07216  0.36761  1.0000
  C   C34       1.0  0.24420  0.03951  0.32762  1.0000
  C   C35       1.0  0.24636  0.48489  0.33911  1.0000
  C   C36       1.0  0.26409  0.46669  0.32413  1.0000
  C   C37       1.0  0.25165  0.43377  0.36228  1.0000
  N   N16       1.0  0.21639  0.02652  0.27345  1.0000
  N   N17       1.0  0.29171  0.48005  0.26922  1.0000
  H   H25       1.0  0.21095  0.50744  0.23435  1.0000
  H   H26       1.0  0.20397  0.03824  0.26211  1.0000
  H   H27       1.0  0.30394  0.46828  0.25583  1.0000
  H   H28       1.0  0.29692  0.99931  0.23112  1.0000
  H   H29       1.0  0.21783  0.37657  0.46083  1.0000
  H   H30       1.0  0.29086  0.12854  0.46891  1.0000
  N   N18       1.0  0.25369  0.39614  0.26227  1.0000
  C   C38       1.0  0.25222  0.36658  0.24230  1.0000
  H   H31       1.0  0.23967  0.35414  0.18545  1.0000
  C   C39       1.0  0.15544  0.38506  0.28814  1.0000
  H   H32       1.0  0.17385  0.38760  0.24459  1.0000
  N   N19       1.0  0.37475  0.26245  0.25143  1.0000
  C   C40       1.0  0.40506  0.26415  0.26407  1.0000
  H   H33       1.0  0.41563  0.25874  0.21079  1.0000
  N   N20       1.0  0.25477  0.11037  0.26977  1.0000
  C   C41       1.0  0.25613  0.13996  0.25073  1.0000
  H   H34       1.0  0.26861  0.15257  0.19399  1.0000
  N   N21       1.0  0.38238  0.15048  0.28870  1.0000
  C   C42       1.0  0.35235  0.12146  0.29024  1.0000
  H   H35       1.0  0.33363  0.11934  0.24854  1.0000
  C   C43       1.0  0.46903  0.26302  0.33860  1.0000
  C   C44       1.0  0.43544  0.24804  0.36985  1.0000
  C   C45       1.0  0.41864  0.21299  0.39091  1.0000
  H   H36       1.0  0.48190  0.28872  0.33979  1.0000
  N   N22       1.0  0.39006  0.19875  0.44255  1.0000
  H   H37       1.0  0.38368  0.21254  0.47707  1.0000
  C   C46       1.0  0.24971  0.21051  0.32686  1.0000
  C   C47       1.0  0.26722  0.19245  0.32319  1.0000
  C   C48       1.0  0.30316  0.21090  0.31980  1.0000
  H   H38       1.0  0.22469  0.19704  0.34330  1.0000
  N   N23       1.0  0.32080  0.19433  0.33424  1.0000
  C   C49       1.0  0.20509  0.29520  0.30931  1.0000
  C   C50       1.0  0.24102  0.31378  0.31424  1.0000
  C   C51       1.0  0.25851  0.29580  0.32245  1.0000
  N   N24       1.0  0.18722  0.31165  0.32177  1.0000
  H   H39       1.0  0.28336  0.30941  0.34047  1.0000
  H   H40       1.0  0.19781  0.33485  0.34114  1.0000
  H   H41       1.0  0.30997  0.17115  0.35373  1.0000
  C   C52       1.0  0.29690  0.04134  0.36136  1.0000
  C   C53       1.0  0.31182  0.07559  0.38492  1.0000
  C   C54       1.0  0.29044  0.08916  0.40188  1.0000
  H   H42       1.0  0.31220  0.03108  0.36523  1.0000
  N   N25       1.0  0.30417  0.11887  0.44847  1.0000
  C   C55       1.0  0.21808  0.41652  0.39731  1.0000
  C   C56       1.0  0.19668  0.43025  0.38303  1.0000
  C   C57       1.0  0.21154  0.46466  0.36137  1.0000
  N   N26       1.0  0.20451  0.38648  0.44229  1.0000
  H   H43       1.0  0.19628  0.47491  0.36695  1.0000
  H   H44       1.0  0.18292  0.37746  0.47263  1.0000
  H   H45       1.0  0.32595  0.12779  0.47775  1.0000
  C   C58       1.0  0.15271  0.24032  0.30993  1.0000
  C   C59       1.0  0.13988  0.23618  0.39896  1.0000
  C   C60       1.0  0.15735  0.23626  0.47511  1.0000
  O   O5        1.0  0.17083  0.26256  0.51804  1.0000
  O   O6        1.0  0.17170  0.21951  0.48007  1.0000
  H   H46       1.0  0.16537  0.20054  0.45011  1.0000
  C   C61       1.0  0.26604  0.41341  0.34022  1.0000
  C   C62       1.0  0.25915  0.34959  0.31098  1.0000
  N   N27       1.0  0.27213  0.36692  0.38866  1.0000
  C   C63       1.0  0.27803  0.39890  0.40478  1.0000
  C   C64       1.0  0.28916  0.41301  0.48939  1.0000
  O   O7        1.0  0.28483  0.39462  0.55356  1.0000
  O   O8        1.0  0.30966  0.44329  0.50140  1.0000
  H   H47       1.0  0.31751  0.45897  0.45910  1.0000
  C   C65       1.0  0.16254  0.40831  0.35878  1.0000
  C   C66       1.0  0.35581  0.26546  0.31760  1.0000
  C   C67       1.0  0.41624  0.26415  0.35262  1.0000
  N   N28       1.0  0.39721  0.26696  0.41852  1.0000
  C   C68       1.0  0.36910  0.26962  0.40610  1.0000
  C   C69       1.0  0.35204  0.26969  0.48304  1.0000
  O   O9        1.0  0.33997  0.24421  0.52923  1.0000
  O   O10       1.0  0.33760  0.28638  0.48827  1.0000
  H   H48       1.0  0.34326  0.30488  0.45676  1.0000
  C   C70       1.0  0.24249  0.09276  0.34732  1.0000
  C   C71       1.0  0.24900  0.15665  0.31988  1.0000
  N   N29       1.0  0.23627  0.13907  0.39735  1.0000
  C   C72       1.0  0.23066  0.10717  0.41265  1.0000
  C   C73       1.0  0.21910  0.09311  0.49698  1.0000
  O   O11       1.0  0.23136  0.11093  0.56313  1.0000
  O   O12       1.0  0.20320  0.06239  0.51166  1.0000
  H   H49       1.0  0.19248  0.04677  0.47016  1.0000
  C   C74       1.0  0.40860  0.15765  0.34465  1.0000
  C   C75       1.0  0.34575  0.09778  0.35930  1.0000
  N   N30       1.0  0.37140  0.10521  0.41776  1.0000
  C   C76       1.0  0.40284  0.13316  0.41178  1.0000
  C   C77       1.0  0.42509  0.13857  0.48123  1.0000
  O   O13       1.0  0.41806  0.14555  0.55425  1.0000
  O   O14       1.0  0.45561  0.15013  0.46841  1.0000
  H   H50       1.0  0.46432  0.14737  0.41827  1.0000
  C   C78       1.0  0.48599  0.74460  0.32028  1.0000
  C   C79       1.0  0.43161  0.69276  0.35465  1.0000
  C   C80       1.0  0.46399  0.70877  0.31183  1.0000
  N   N31       1.0  0.47261  0.69065  0.25572  1.0000
  H   H51       1.0  0.99111  0.70220  0.21341  1.0000
  H   H52       1.0  0.45758  0.66678  0.24433  1.0000
  H   H53       1.0  0.51684  0.80399  0.21536  1.0000
  H   H54       1.0  0.38035  0.67581  0.46388  1.0000
  C   C81       1.0  0.26468  0.74523  0.30250  1.0000
  C   C82       1.0  0.32010  0.74655  0.30520  1.0000
  C   C83       1.0  0.30063  0.76246  0.28548  1.0000
  C   C84       1.0  0.24383  0.76090  0.30030  1.0000
  C   C85       1.0  0.20805  0.74348  0.28098  1.0000
  C   C86       1.0  0.18836  0.75945  0.29649  1.0000
  N   N32       1.0  0.31653  0.79247  0.24027  1.0000
  N   N33       1.0  0.19257  0.71317  0.23710  1.0000
  H   H55       1.0  0.30356  0.80031  0.20684  1.0000
  H   H56       1.0  0.34016  0.80295  0.22301  1.0000
  H   H57       1.0  0.16916  0.70277  0.21780  1.0000
  H   H58       1.0  0.20588  0.70520  0.20595  1.0000
  H   H59       1.0  0.16299  0.80071  0.31695  1.0000
  H   H60       1.0  0.34502  0.70507  0.32938  1.0000
  C   C87       1.0  0.26199  0.52123  0.33995  1.0000
  C   C88       1.0  0.25676  0.57216  0.36761  1.0000
  C   C89       1.0  0.24420  0.53951  0.32762  1.0000
  C   C90       1.0  0.24636  0.98489  0.33911  1.0000
  C   C91       1.0  0.26409  0.96669  0.32413  1.0000
  C   C92       1.0  0.25165  0.93376  0.36228  1.0000
  N   N34       1.0  0.21639  0.52652  0.27345  1.0000
  N   N35       1.0  0.29171  0.98005  0.26922  1.0000
  H   H61       1.0  0.21095  0.00744  0.23435  1.0000
  H   H62       1.0  0.20397  0.53824  0.26211  1.0000
  H   H63       1.0  0.30394  0.96829  0.25583  1.0000
  H   H64       1.0  0.29692  0.49931  0.23112  1.0000
  H   H65       1.0  0.21784  0.87657  0.46083  1.0000
  H   H66       1.0  0.29086  0.62854  0.46891  1.0000
  N   N36       1.0  0.25369  0.89614  0.26227  1.0000
  C   C93       1.0  0.25222  0.86658  0.24230  1.0000
  H   H67       1.0  0.23967  0.85414  0.18545  1.0000
  C   C94       1.0  0.15544  0.88506  0.28814  1.0000
  H   H68       1.0  0.17385  0.88760  0.24459  1.0000
  N   N37       1.0  0.37475  0.76245  0.25143  1.0000
  C   C95       1.0  0.40506  0.76415  0.26407  1.0000
  H   H69       1.0  0.41563  0.75874  0.21079  1.0000
  N   N38       1.0  0.25477  0.61037  0.26977  1.0000
  C   C96       1.0  0.25613  0.63996  0.25074  1.0000
  H   H70       1.0  0.26861  0.65257  0.19399  1.0000
  N   N39       1.0  0.38238  0.65048  0.28870  1.0000
  C   C97       1.0  0.35235  0.62146  0.29024  1.0000
  H   H71       1.0  0.33363  0.61933  0.24854  1.0000
  C   C98       1.0  0.46903  0.76302  0.33860  1.0000
  C   C99       1.0  0.43544  0.74804  0.36985  1.0000
  C   C100      1.0  0.41864  0.71299  0.39091  1.0000
  H   H72       1.0  0.48190  0.78873  0.33979  1.0000
  N   N40       1.0  0.39006  0.69875  0.44255  1.0000
  H   H73       1.0  0.38368  0.71254  0.47707  1.0000
  C   C101      1.0  0.24971  0.71051  0.32686  1.0000
  C   C102      1.0  0.26722  0.69244  0.32319  1.0000
  C   C103      1.0  0.30316  0.71090  0.31981  1.0000
  H   H74       1.0  0.22469  0.69704  0.34330  1.0000
  N   N41       1.0  0.32080  0.69433  0.33424  1.0000
  C   C104      1.0  0.20509  0.79520  0.30931  1.0000
  C   C105      1.0  0.24102  0.81378  0.31424  1.0000
  C   C106      1.0  0.25851  0.79580  0.32245  1.0000
  N   N42       1.0  0.18722  0.81165  0.32177  1.0000
  H   H75       1.0  0.28336  0.80941  0.34047  1.0000
  H   H76       1.0  0.19781  0.83485  0.34114  1.0000
  H   H77       1.0  0.30997  0.67115  0.35373  1.0000
  C   C107      1.0  0.29690  0.54134  0.36136  1.0000
  C   C108      1.0  0.31182  0.57559  0.38492  1.0000
  C   C109      1.0  0.29044  0.58916  0.40188  1.0000
  H   H78       1.0  0.31220  0.53108  0.36523  1.0000
  N   N43       1.0  0.30417  0.61887  0.44847  1.0000
  C   C110      1.0  0.21808  0.91652  0.39731  1.0000
  C   C111      1.0  0.19668  0.93025  0.38303  1.0000
  C   C112      1.0  0.21154  0.96467  0.36137  1.0000
  N   N44       1.0  0.20451  0.88648  0.44229  1.0000
  H   H79       1.0  0.19628  0.97491  0.36695  1.0000
  H   H80       1.0  0.18292  0.87746  0.47263  1.0000
  H   H81       1.0  0.32595  0.62779  0.47775  1.0000
  C   C113      1.0  0.15271  0.74032  0.30993  1.0000
  C   C114      1.0  0.13988  0.73618  0.39896  1.0000
  C   C115      1.0  0.15735  0.73626  0.47511  1.0000
  O   O15       1.0  0.17083  0.76256  0.51804  1.0000
  O   O16       1.0  0.17170  0.71951  0.48007  1.0000
  H   H82       1.0  0.16537  0.70054  0.45011  1.0000
  C   C116      1.0  0.26604  0.91341  0.34022  1.0000
  C   C117      1.0  0.25915  0.84959  0.31098  1.0000
  N   N45       1.0  0.27213  0.86692  0.38866  1.0000
  C   C118      1.0  0.27803  0.89890  0.40478  1.0000
  C   C119      1.0  0.28916  0.91301  0.48939  1.0000
  O   O17       1.0  0.28483  0.89462  0.55356  1.0000
  O   O18       1.0  0.30966  0.94329  0.50140  1.0000
  H   H83       1.0  0.31750  0.95897  0.45910  1.0000
  C   C120      1.0  0.16254  0.90831  0.35878  1.0000
  C   C121      1.0  0.35581  0.76545  0.31760  1.0000
  C   C122      1.0  0.41624  0.76416  0.35262  1.0000
  N   N46       1.0  0.39721  0.76696  0.41852  1.0000
  C   C123      1.0  0.36910  0.76962  0.40610  1.0000
  C   C124      1.0  0.35204  0.76969  0.48304  1.0000
  O   O19       1.0  0.33998  0.74421  0.52923  1.0000
  O   O20       1.0  0.33761  0.78638  0.48827  1.0000
  H   H84       1.0  0.34326  0.80488  0.45676  1.0000
  C   C125      1.0  0.24249  0.59276  0.34732  1.0000
  C   C126      1.0  0.24900  0.65665  0.31988  1.0000
  N   N47       1.0  0.23627  0.63907  0.39735  1.0000
  C   C127      1.0  0.23066  0.60716  0.41265  1.0000
  C   C128      1.0  0.21910  0.59311  0.49698  1.0000
  O   O21       1.0  0.23136  0.61093  0.56314  1.0000
  O   O22       1.0  0.20320  0.56239  0.51166  1.0000
  H   H85       1.0  0.19248  0.54677  0.47016  1.0000
  C   C129      1.0  0.40860  0.65765  0.34465  1.0000
  C   C130      1.0  0.34575  0.59778  0.35930  1.0000
  N   N48       1.0  0.37140  0.60520  0.41776  1.0000
  C   C131      1.0  0.40284  0.63316  0.41178  1.0000
  C   C132      1.0  0.42509  0.63857  0.48123  1.0000
  O   O23       1.0  0.41806  0.64555  0.55425  1.0000
  O   O24       1.0  0.45561  0.65012  0.46841  1.0000
  H   H86       1.0  0.46432  0.64737  0.41827  1.0000
  C   C133      1.0  0.98599  0.24460  0.32028  1.0000
  C   C134      1.0  0.93161  0.19275  0.35465  1.0000
  C   C135      1.0  0.96399  0.20877  0.31183  1.0000
  C   C136      1.0  0.52256  0.26119  0.31945  1.0000
  C   C137      1.0  0.54446  0.29705  0.31174  1.0000
  C   C138      1.0  0.57696  0.31297  0.35384  1.0000
  N   N49       1.0  0.97261  0.19065  0.25572  1.0000
  N   N50       1.0  0.53562  0.31533  0.25700  1.0000
  H   H87       1.0  0.49111  0.20220  0.21341  1.0000
  H   H88       1.0  0.95758  0.16678  0.24433  1.0000
  H   H89       1.0  0.55036  0.33933  0.24658  1.0000
  H   H90       1.0  0.62897  0.32970  0.45988  1.0000
  H   H91       1.0  0.88035  0.17581  0.46388  1.0000
  C   C139      1.0  0.76468  0.24523  0.30250  1.0000
  C   C140      1.0  0.82010  0.24655  0.30520  1.0000
  C   C141      1.0  0.80063  0.26246  0.28548  1.0000
  C   C142      1.0  0.74382  0.26090  0.30030  1.0000
  C   C143      1.0  0.70805  0.24348  0.28099  1.0000
  C   C144      1.0  0.68836  0.25945  0.29649  1.0000
  N   N51       1.0  0.81653  0.29247  0.24027  1.0000
  N   N52       1.0  0.69257  0.21317  0.23710  1.0000
  H   H92       1.0  0.80355  0.30031  0.20684  1.0000
  H   H93       1.0  0.84016  0.30295  0.22301  1.0000
  H   H94       1.0  0.66916  0.20277  0.21780  1.0000
  H   H95       1.0  0.70588  0.20520  0.20595  1.0000
  H   H96       1.0  0.66299  0.30071  0.31695  1.0000
  H   H97       1.0  0.84501  0.20507  0.32938  1.0000
  C   C145      1.0  0.76199  0.02123  0.33995  1.0000
  C   C146      1.0  0.75676  0.07216  0.36761  1.0000
  C   C147      1.0  0.74420  0.03951  0.32762  1.0000
  C   C148      1.0  0.74636  0.48489  0.33911  1.0000
  C   C149      1.0  0.76409  0.46669  0.32413  1.0000
  C   C150      1.0  0.75165  0.43377  0.36228  1.0000
  N   N53       1.0  0.71639  0.02652  0.27345  1.0000
  N   N54       1.0  0.79171  0.48005  0.26922  1.0000
  H   H98       1.0  0.71095  0.50744  0.23435  1.0000
  H   H99       1.0  0.70397  0.03824  0.26211  1.0000
  H   H100      1.0  0.80394  0.46828  0.25583  1.0000
  H   H101      1.0  0.79692  0.99931  0.23112  1.0000
  H   H102      1.0  0.71783  0.37657  0.46083  1.0000
  H   H103      1.0  0.79086  0.12854  0.46891  1.0000
  N   N55       1.0  0.63328  0.24299  0.24459  1.0000
  C   C151      1.0  0.60294  0.24111  0.25855  1.0000
  H   H104      1.0  0.59202  0.24636  0.20579  1.0000
  N   N56       1.0  0.75369  0.39614  0.26227  1.0000
  C   C152      1.0  0.75221  0.36658  0.24230  1.0000
  H   H105      1.0  0.73967  0.35414  0.18545  1.0000
  N   N57       1.0  0.62552  0.35591  0.28687  1.0000
  C   C153      1.0  0.65544  0.38506  0.28814  1.0000
  H   H106      1.0  0.67385  0.38760  0.24459  1.0000
  N   N58       1.0  0.87475  0.26245  0.25143  1.0000
  C   C154      1.0  0.90506  0.26415  0.26407  1.0000
  H   H107      1.0  0.91563  0.25874  0.21079  1.0000
  N   N59       1.0  0.75477  0.11037  0.26977  1.0000
  C   C155      1.0  0.75613  0.13996  0.25073  1.0000
  H   H108      1.0  0.76861  0.15257  0.19399  1.0000
  N   N60       1.0  0.88238  0.15048  0.28870  1.0000
  C   C156      1.0  0.85235  0.12146  0.29024  1.0000
  H   H109      1.0  0.83363  0.11934  0.24854  1.0000
  C   C157      1.0  0.96903  0.26302  0.33860  1.0000
  C   C158      1.0  0.93544  0.24804  0.36985  1.0000
  C   C159      1.0  0.91864  0.21299  0.39091  1.0000
  H   H110      1.0  0.98190  0.28872  0.33979  1.0000
  N   N61       1.0  0.89006  0.19875  0.44255  1.0000
  C   C160      1.0  0.59026  0.29268  0.38770  1.0000
  C   C161      1.0  0.57342  0.25770  0.36564  1.0000
  C   C162      1.0  0.53967  0.24275  0.33561  1.0000
  N   N62       1.0  0.61920  0.30684  0.43789  1.0000
  H   H111      1.0  0.52678  0.21705  0.33651  1.0000
  H   H112      1.0  0.62628  0.29323  0.47050  1.0000
  H   H113      1.0  0.88368  0.21254  0.47707  1.0000
  C   C163      1.0  0.74971  0.21051  0.32686  1.0000
  C   C164      1.0  0.76722  0.19245  0.32319  1.0000
  C   C165      1.0  0.80316  0.21090  0.31980  1.0000
  H   H114      1.0  0.72469  0.19704  0.34330  1.0000
  N   N63       1.0  0.82080  0.19433  0.33424  1.0000
  C   C166      1.0  0.70509  0.29520  0.30931  1.0000
  C   C167      1.0  0.74102  0.31378  0.31424  1.0000
  C   C168      1.0  0.75851  0.29580  0.32245  1.0000
  N   N64       1.0  0.68722  0.31165  0.32177  1.0000
  H   H115      1.0  0.78336  0.30941  0.34047  1.0000
  H   H116      1.0  0.69781  0.33485  0.34114  1.0000
  H   H117      1.0  0.80997  0.17115  0.35373  1.0000
  C   C169      1.0  0.79690  0.04134  0.36136  1.0000
  C   C170      1.0  0.81181  0.07559  0.38492  1.0000
  C   C171      1.0  0.79044  0.08916  0.40188  1.0000
  H   H118      1.0  0.81220  0.03108  0.36523  1.0000
  N   N65       1.0  0.80417  0.11887  0.44847  1.0000
  C   C172      1.0  0.71808  0.41652  0.39731  1.0000
  C   C173      1.0  0.69668  0.43025  0.38303  1.0000
  C   C174      1.0  0.71154  0.46466  0.36137  1.0000
  N   N66       1.0  0.70451  0.38648  0.44229  1.0000
  H   H119      1.0  0.69628  0.47491  0.36695  1.0000
  H   H120      1.0  0.68292  0.37746  0.47263  1.0000
  H   H121      1.0  0.82595  0.12779  0.47775  1.0000
  C   C175      1.0  0.65271  0.24032  0.30993  1.0000
  C   C176      1.0  0.59235  0.24134  0.34763  1.0000
  N   N67       1.0  0.61175  0.23869  0.41265  1.0000
  C   C177      1.0  0.63988  0.23618  0.39896  1.0000
  C   C178      1.0  0.65735  0.23626  0.47511  1.0000
  O   O25       1.0  0.67083  0.26256  0.51804  1.0000
  O   O26       1.0  0.67170  0.21951  0.48007  1.0000
  H   H122      1.0  0.66537  0.20054  0.45011  1.0000
  C   C179      1.0  0.76604  0.41341  0.34022  1.0000
  C   C180      1.0  0.75915  0.34959  0.31098  1.0000
  N   N68       1.0  0.77213  0.36692  0.38866  1.0000
  C   C181      1.0  0.77803  0.39890  0.40478  1.0000
  C   C182      1.0  0.78916  0.41301  0.48939  1.0000
  O   O27       1.0  0.78483  0.39462  0.55356  1.0000
  O   O28       1.0  0.80966  0.44329  0.50140  1.0000
  H   H123      1.0  0.81751  0.45897  0.45910  1.0000
  C   C183      1.0  0.59974  0.34817  0.34495  1.0000
  C   C184      1.0  0.66254  0.40831  0.35878  1.0000
  N   N69       1.0  0.63733  0.40015  0.41933  1.0000
  C   C185      1.0  0.60593  0.37212  0.41402  1.0000
  C   C186      1.0  0.58427  0.36605  0.48546  1.0000
  O   O29       1.0  0.59233  0.35925  0.55725  1.0000
  O   O30       1.0  0.55354  0.35397  0.47520  1.0000
  H   H124      1.0  0.54413  0.35652  0.42617  1.0000
  C   C187      1.0  0.85581  0.26546  0.31760  1.0000
  C   C188      1.0  0.91624  0.26415  0.35262  1.0000
  N   N70       1.0  0.89721  0.26696  0.41852  1.0000
  C   C189      1.0  0.86910  0.26962  0.40610  1.0000
  C   C190      1.0  0.85204  0.26969  0.48304  1.0000
  O   O31       1.0  0.83997  0.24421  0.52923  1.0000
  O   O32       1.0  0.83760  0.28638  0.48827  1.0000
  H   H125      1.0  0.84326  0.30488  0.45676  1.0000
  C   C191      1.0  0.74248  0.09276  0.34732  1.0000
  C   C192      1.0  0.74900  0.15665  0.31988  1.0000
  N   N71       1.0  0.73628  0.13907  0.39735  1.0000
  C   C193      1.0  0.73066  0.10717  0.41265  1.0000
  C   C194      1.0  0.71910  0.09311  0.49698  1.0000
  O   O33       1.0  0.73136  0.11093  0.56313  1.0000
  O   O34       1.0  0.70320  0.06239  0.51166  1.0000
  H   H126      1.0  0.69248  0.04677  0.47016  1.0000
  C   C195      1.0  0.90860  0.15765  0.34465  1.0000
  C   C196      1.0  0.84575  0.09778  0.35930  1.0000
  N   N72       1.0  0.87140  0.10521  0.41776  1.0000
  C   C197      1.0  0.90284  0.13316  0.41178  1.0000
  C   C198      1.0  0.92509  0.13857  0.48123  1.0000
  O   O35       1.0  0.91806  0.14555  0.55425  1.0000
  O   O36       1.0  0.95561  0.15013  0.46841  1.0000
  H   H127      1.0  0.96432  0.14737  0.41827  1.0000
  C   C199      1.0  0.98599  0.74460  0.32028  1.0000
  C   C200      1.0  0.93161  0.69276  0.35465  1.0000
  C   C201      1.0  0.96399  0.70877  0.31183  1.0000
  C   C202      1.0  0.52256  0.76119  0.31945  1.0000
  C   C203      1.0  0.54446  0.79705  0.31174  1.0000
  C   C204      1.0  0.57695  0.81296  0.35384  1.0000
  N   N73       1.0  0.97261  0.69065  0.25572  1.0000
  N   N74       1.0  0.53562  0.81534  0.25700  1.0000
  H   H128      1.0  0.49111  0.70220  0.21341  1.0000
  H   H129      1.0  0.95758  0.66678  0.24433  1.0000
  H   H130      1.0  0.55035  0.83933  0.24658  1.0000
  H   H131      1.0  0.62897  0.82970  0.45988  1.0000
  H   H132      1.0  0.88035  0.67581  0.46388  1.0000
  C   C205      1.0  0.76468  0.74523  0.30250  1.0000
  C   C206      1.0  0.82010  0.74655  0.30520  1.0000
  C   C207      1.0  0.80063  0.76246  0.28548  1.0000
  C   C208      1.0  0.74383  0.76090  0.30030  1.0000
  C   C209      1.0  0.70805  0.74348  0.28098  1.0000
  C   C210      1.0  0.68836  0.75945  0.29649  1.0000
  N   N75       1.0  0.81653  0.79247  0.24027  1.0000
  N   N76       1.0  0.69258  0.71317  0.23710  1.0000
  H   H133      1.0  0.80356  0.80031  0.20684  1.0000
  H   H134      1.0  0.84016  0.80295  0.22301  1.0000
  H   H135      1.0  0.66916  0.70277  0.21780  1.0000
  H   H136      1.0  0.70588  0.70520  0.20595  1.0000
  H   H137      1.0  0.66299  0.80071  0.31695  1.0000
  H   H138      1.0  0.84501  0.70507  0.32938  1.0000
  C   C211      1.0  0.76199  0.52123  0.33995  1.0000
  C   C212      1.0  0.75676  0.57216  0.36761  1.0000
  C   C213      1.0  0.74420  0.53951  0.32762  1.0000
  C   C214      1.0  0.74636  0.98489  0.33911  1.0000
  C   C215      1.0  0.76409  0.96669  0.32413  1.0000
  C   C216      1.0  0.75165  0.93376  0.36228  1.0000
  N   N77       1.0  0.71639  0.52652  0.27345  1.0000
  N   N78       1.0  0.79171  0.98005  0.26922  1.0000
  H   H139      1.0  0.71095  0.00744  0.23435  1.0000
  H   H140      1.0  0.70397  0.53824  0.26211  1.0000
  H   H141      1.0  0.80394  0.96829  0.25583  1.0000
  H   H142      1.0  0.79692  0.49931  0.23112  1.0000
  H   H143      1.0  0.71783  0.87657  0.46083  1.0000
  H   H144      1.0  0.79085  0.62854  0.46891  1.0000
  N   N79       1.0  0.63328  0.74299  0.24459  1.0000
  C   C217      1.0  0.60294  0.74111  0.25855  1.0000
  H   H145      1.0  0.59202  0.74636  0.20579  1.0000
  N   N80       1.0  0.75369  0.89614  0.26227  1.0000
  C   C218      1.0  0.75222  0.86658  0.24230  1.0000
  H   H146      1.0  0.73967  0.85414  0.18545  1.0000
  N   N81       1.0  0.62552  0.85592  0.28687  1.0000
  C   C219      1.0  0.65544  0.88506  0.28814  1.0000
  H   H147      1.0  0.67385  0.88760  0.24459  1.0000
  N   N82       1.0  0.87475  0.76245  0.25143  1.0000
  C   C220      1.0  0.90506  0.76415  0.26407  1.0000
  H   H148      1.0  0.91563  0.75874  0.21079  1.0000
  N   N83       1.0  0.75477  0.61037  0.26977  1.0000
  C   C221      1.0  0.75613  0.63996  0.25074  1.0000
  H   H149      1.0  0.76862  0.65257  0.19399  1.0000
  N   N84       1.0  0.88238  0.65048  0.28870  1.0000
  C   C222      1.0  0.85235  0.62146  0.29024  1.0000
  H   H150      1.0  0.83363  0.61933  0.24854  1.0000
  C   C223      1.0  0.96903  0.76302  0.33860  1.0000
  C   C224      1.0  0.93544  0.74804  0.36985  1.0000
  C   C225      1.0  0.91864  0.71299  0.39091  1.0000
  H   H151      1.0  0.98190  0.78873  0.33979  1.0000
  N   N85       1.0  0.89006  0.69875  0.44255  1.0000
  C   C226      1.0  0.59026  0.79268  0.38770  1.0000
  C   C227      1.0  0.57342  0.75770  0.36564  1.0000
  C   C228      1.0  0.53967  0.74275  0.33561  1.0000
  N   N86       1.0  0.61920  0.80684  0.43789  1.0000
  H   H152      1.0  0.52678  0.71705  0.33651  1.0000
  H   H153      1.0  0.62628  0.79323  0.47050  1.0000
  H   H154      1.0  0.88368  0.71254  0.47707  1.0000
  C   C229      1.0  0.74971  0.71051  0.32686  1.0000
  C   C230      1.0  0.76722  0.69244  0.32319  1.0000
  C   C231      1.0  0.80316  0.71090  0.31981  1.0000
  H   H155      1.0  0.72469  0.69704  0.34330  1.0000
  N   N87       1.0  0.82080  0.69433  0.33424  1.0000
  C   C232      1.0  0.70509  0.79520  0.30931  1.0000
  C   C233      1.0  0.74101  0.81378  0.31424  1.0000
  C   C234      1.0  0.75851  0.79580  0.32245  1.0000
  N   N88       1.0  0.68722  0.81165  0.32177  1.0000
  H   H156      1.0  0.78336  0.80941  0.34047  1.0000
  H   H157      1.0  0.69781  0.83485  0.34114  1.0000
  H   H158      1.0  0.80998  0.67115  0.35373  1.0000
  C   C235      1.0  0.79691  0.54134  0.36136  1.0000
  C   C236      1.0  0.81182  0.57559  0.38492  1.0000
  C   C237      1.0  0.79044  0.58916  0.40188  1.0000
  H   H159      1.0  0.81219  0.53108  0.36523  1.0000
  N   N89       1.0  0.80417  0.61887  0.44847  1.0000
  C   C238      1.0  0.71808  0.91652  0.39731  1.0000
  C   C239      1.0  0.69668  0.93025  0.38303  1.0000
  C   C240      1.0  0.71154  0.96467  0.36137  1.0000
  N   N90       1.0  0.70451  0.88648  0.44229  1.0000
  H   H160      1.0  0.69627  0.97491  0.36695  1.0000
  H   H161      1.0  0.68292  0.87746  0.47263  1.0000
  H   H162      1.0  0.82595  0.62779  0.47775  1.0000
  C   C241      1.0  0.65271  0.74032  0.30993  1.0000
  C   C242      1.0  0.59235  0.74134  0.34763  1.0000
  N   N91       1.0  0.61176  0.73869  0.41265  1.0000
  C   C243      1.0  0.63988  0.73618  0.39896  1.0000
  C   C244      1.0  0.65735  0.73626  0.47511  1.0000
  O   O37       1.0  0.67083  0.76256  0.51804  1.0000
  O   O38       1.0  0.67170  0.71951  0.48007  1.0000
  H   H163      1.0  0.66537  0.70054  0.45011  1.0000
  C   C245      1.0  0.76604  0.91341  0.34022  1.0000
  C   C246      1.0  0.75915  0.84959  0.31098  1.0000
  N   N92       1.0  0.77213  0.86692  0.38866  1.0000
  C   C247      1.0  0.77803  0.89890  0.40478  1.0000
  C   C248      1.0  0.78916  0.91301  0.48939  1.0000
  O   O39       1.0  0.78483  0.89462  0.55356  1.0000
  O   O40       1.0  0.80966  0.94329  0.50140  1.0000
  H   H164      1.0  0.81751  0.95897  0.45910  1.0000
  C   C249      1.0  0.59974  0.84817  0.34495  1.0000
  C   C250      1.0  0.66254  0.90831  0.35878  1.0000
  N   N93       1.0  0.63733  0.90015  0.41933  1.0000
  C   C251      1.0  0.60593  0.87212  0.41402  1.0000
  C   C252      1.0  0.58427  0.86606  0.48546  1.0000
  O   O41       1.0  0.59233  0.85925  0.55725  1.0000
  O   O42       1.0  0.55354  0.85397  0.47520  1.0000
  H   H165      1.0  0.54412  0.85652  0.42617  1.0000
  C   C253      1.0  0.85581  0.76545  0.31760  1.0000
  C   C254      1.0  0.91624  0.76416  0.35262  1.0000
  N   N94       1.0  0.89721  0.76696  0.41852  1.0000
  C   C255      1.0  0.86910  0.76962  0.40610  1.0000
  C   C256      1.0  0.85204  0.76969  0.48304  1.0000
  O   O43       1.0  0.83997  0.74421  0.52923  1.0000
  O   O44       1.0  0.83761  0.78638  0.48827  1.0000
  H   H166      1.0  0.84326  0.80488  0.45676  1.0000
  C   C257      1.0  0.74249  0.59276  0.34732  1.0000
  C   C258      1.0  0.74900  0.65665  0.31988  1.0000
  N   N95       1.0  0.73627  0.63907  0.39735  1.0000
  C   C259      1.0  0.73066  0.60716  0.41265  1.0000
  C   C260      1.0  0.71910  0.59311  0.49698  1.0000
  O   O45       1.0  0.73136  0.61093  0.56314  1.0000
  O   O46       1.0  0.70320  0.56239  0.51166  1.0000
  H   H167      1.0  0.69248  0.54677  0.47016  1.0000
  C   C261      1.0  0.90860  0.65765  0.34465  1.0000
  C   C262      1.0  0.84575  0.59778  0.35930  1.0000
  N   N96       1.0  0.87140  0.60520  0.41776  1.0000
  C   C263      1.0  0.90284  0.63316  0.41178  1.0000
  C   C264      1.0  0.92509  0.63857  0.48123  1.0000
  O   O47       1.0  0.91806  0.64555  0.55425  1.0000
  O   O48       1.0  0.95561  0.65012  0.46841  1.0000
  H   H168      1.0  0.96432  0.64737  0.41827  1.0000
