data_image0
_chemical_formula_structural       C5NH3NHC5NH3NHC5NH3NHCNCNCNC18H12C3O3CNCNCNC18H12C3O3C2NC3H3NHC2NC3H3NHC2NC3H3NH
_chemical_formula_sum              "C78 N18 H48 O6"
_cell_length_a       44.0806
_cell_length_b       44.0801
_cell_length_c       15.0765
_cell_angle_alpha    90
_cell_angle_beta     90
_cell_angle_gamma    120

_space_group_name_H-M_alt    "P 1"
_space_group_IT_number       1

loop_
  _space_group_symop_operation_xyz
  'x, y, z'

loop_
  _atom_site_type_symbol
  _atom_site_label
  _atom_site_symmetry_multiplicity
  _atom_site_fract_x
  _atom_site_fract_y
  _atom_site_fract_z
  _atom_site_occupancy
  C   C1        1.0  0.44745  0.52518  0.26885  1.0000
  C   C2        1.0  0.46873  0.51011  0.25742  1.0000
  C   C3        1.0  0.50735  0.49019  0.32471  1.0000
  C   C4        1.0  0.55061  0.46020  0.30238  1.0000
  C   C5        1.0  0.53346  0.46565  0.23030  1.0000
  N   N1        1.0  0.51313  0.48023  0.24388  1.0000
  H   H1        1.0  0.53595  0.45856  0.16737  1.0000
  H   H2        1.0  0.43722  0.53034  0.21387  1.0000
  H   H3        1.0  0.47259  0.50388  0.19469  1.0000
  N   N2        1.0  0.56845  0.44257  0.28992  1.0000
  H   H4        1.0  0.55890  0.42394  0.24560  1.0000
  C   C6        1.0  0.46845  0.92100  0.26889  1.0000
  C   C7        1.0  0.48352  0.95734  0.25745  1.0000
  C   C8        1.0  0.50346  0.01589  0.32473  1.0000
  C   C9        1.0  0.53351  0.08914  0.30241  1.0000
  C   C10       1.0  0.52802  0.06654  0.23031  1.0000
  N   N3        1.0  0.51343  0.03163  0.24390  1.0000
  H   H5        1.0  0.53510  0.07612  0.16737  1.0000
  H   H6        1.0  0.46327  0.90560  0.21390  1.0000
  H   H7        1.0  0.48974  0.96743  0.19471  1.0000
  N   N4        1.0  0.55111  0.12461  0.28991  1.0000
  H   H8        1.0  0.56974  0.13370  0.24559  1.0000
  C   C11       1.0  0.07266  0.54615  0.26889  1.0000
  C   C12       1.0  0.03631  0.52489  0.25744  1.0000
  C   C13       1.0  0.97776  0.48630  0.32474  1.0000
  C   C14       1.0  0.90451  0.44311  0.30243  1.0000
  C   C15       1.0  0.92711  0.46021  0.23032  1.0000
  N   N5        1.0  0.96202  0.48052  0.24391  1.0000
  H   H9        1.0  0.91753  0.45770  0.16738  1.0000
  H   H10       1.0  0.08805  0.55644  0.21392  1.0000
  H   H11       1.0  0.02621  0.52105  0.19471  1.0000
  N   N6        1.0  0.86904  0.42523  0.28993  1.0000
  H   H12       1.0  0.85994  0.43477  0.24562  1.0000
  C   C16       1.0  0.29399  0.65179  0.33008  1.0000
  N   N7        1.0  0.30700  0.62960  0.33004  1.0000
  C   C17       1.0  0.34186  0.64093  0.33004  1.0000
  N   N8        1.0  0.36405  0.67613  0.33001  1.0000
  C   C18       1.0  0.35272  0.69966  0.33005  1.0000
  N   N9        1.0  0.31752  0.68665  0.33004  1.0000
  C   C19       1.0  0.35464  0.61700  0.32970  1.0000
  C   C20       1.0  0.33156  0.58029  0.32704  1.0000
  C   C21       1.0  0.34439  0.55681  0.32552  1.0000
  C   C22       1.0  0.38078  0.56922  0.32811  1.0000
  C   C23       1.0  0.40390  0.60582  0.33027  1.0000
  C   C24       1.0  0.39108  0.62925  0.33110  1.0000
  C   C25       1.0  0.25728  0.63901  0.32977  1.0000
  C   C26       1.0  0.23309  0.60257  0.33122  1.0000
  C   C27       1.0  0.19684  0.58975  0.33044  1.0000
  C   C28       1.0  0.18336  0.61287  0.32822  1.0000
  C   C29       1.0  0.20734  0.64926  0.32557  1.0000
  C   C30       1.0  0.24366  0.66209  0.32709  1.0000
  C   C31       1.0  0.37664  0.73637  0.32971  1.0000
  C   C32       1.0  0.36440  0.76056  0.33112  1.0000
  C   C33       1.0  0.38782  0.79681  0.33033  1.0000
  C   C34       1.0  0.42443  0.81030  0.32815  1.0000
  C   C35       1.0  0.43684  0.78632  0.32552  1.0000
  C   C36       1.0  0.41335  0.74999  0.32706  1.0000
  H   H13       1.0  0.18045  0.56320  0.32902  1.0000
  H   H14       1.0  0.24147  0.58472  0.33216  1.0000
  H   H15       1.0  0.19860  0.66683  0.32356  1.0000
  H   H16       1.0  0.26001  0.68865  0.32552  1.0000
  H   H17       1.0  0.33817  0.75218  0.33207  1.0000
  H   H18       1.0  0.37766  0.81320  0.32894  1.0000
  H   H19       1.0  0.42356  0.73365  0.32551  1.0000
  H   H20       1.0  0.46315  0.79506  0.32355  1.0000
  H   H21       1.0  0.40893  0.65548  0.33203  1.0000
  H   H22       1.0  0.43046  0.61599  0.32888  1.0000
  H   H23       1.0  0.32682  0.53050  0.32355  1.0000
  H   H24       1.0  0.30500  0.57009  0.32552  1.0000
  C   C37       1.0  0.14666  0.59961  0.32396  1.0000
  C   C38       1.0  0.44786  0.84699  0.32392  1.0000
  C   C39       1.0  0.39404  0.54578  0.32389  1.0000
  O   O1        1.0  0.37562  0.51577  0.27693  1.0000
  O   O2        1.0  0.47787  0.85858  0.27697  1.0000
  O   O3        1.0  0.13508  0.61803  0.27697  1.0000
  C   C40       1.0  0.69840  0.34314  0.32639  1.0000
  N   N10       1.0  0.68539  0.36532  0.32640  1.0000
  C   C41       1.0  0.65053  0.35399  0.32635  1.0000
  N   N11       1.0  0.62835  0.31880  0.32637  1.0000
  C   C42       1.0  0.63967  0.29526  0.32635  1.0000
  N   N12       1.0  0.67487  0.30827  0.32641  1.0000
  C   C43       1.0  0.63775  0.37792  0.32668  1.0000
  C   C44       1.0  0.66084  0.41463  0.32939  1.0000
  C   C45       1.0  0.64801  0.43812  0.33095  1.0000
  C   C46       1.0  0.61162  0.42572  0.32830  1.0000
  C   C47       1.0  0.58850  0.38911  0.32603  1.0000
  C   C48       1.0  0.60132  0.36568  0.32523  1.0000
  C   C49       1.0  0.73511  0.35591  0.32677  1.0000
  C   C50       1.0  0.75930  0.39235  0.32537  1.0000
  C   C51       1.0  0.79555  0.40517  0.32624  1.0000
  C   C52       1.0  0.80903  0.38205  0.32842  1.0000
  C   C53       1.0  0.78505  0.34566  0.33100  1.0000
  C   C54       1.0  0.74873  0.33282  0.32945  1.0000
  C   C55       1.0  0.61574  0.25856  0.32669  1.0000
  C   C56       1.0  0.62798  0.23436  0.32527  1.0000
  C   C57       1.0  0.60455  0.19811  0.32609  1.0000
  C   C58       1.0  0.56795  0.18463  0.32830  1.0000
  C   C59       1.0  0.55555  0.20861  0.33092  1.0000
  C   C60       1.0  0.57903  0.24494  0.32938  1.0000
  H   H25       1.0  0.81194  0.43173  0.32760  1.0000
  H   H26       1.0  0.75092  0.41020  0.32439  1.0000
  H   H27       1.0  0.79379  0.32809  0.33299  1.0000
  H   H28       1.0  0.73238  0.30627  0.33096  1.0000
  H   H29       1.0  0.65421  0.24274  0.32434  1.0000
  H   H30       1.0  0.61472  0.18172  0.32753  1.0000
  H   H31       1.0  0.56883  0.26128  0.33092  1.0000
  H   H32       1.0  0.52924  0.19988  0.33293  1.0000
  H   H33       1.0  0.58347  0.33945  0.32428  1.0000
  H   H34       1.0  0.56194  0.37895  0.32750  1.0000
  H   H35       1.0  0.66558  0.46443  0.33300  1.0000
  H   H36       1.0  0.68739  0.42483  0.33096  1.0000
  C   C61       1.0  0.84572  0.39531  0.33265  1.0000
  C   C62       1.0  0.54452  0.14794  0.33260  1.0000
  C   C63       1.0  0.59836  0.44915  0.33264  1.0000
  O   O4        1.0  0.61680  0.47915  0.37961  1.0000
  O   O5        1.0  0.51452  0.13636  0.37960  1.0000
  O   O6        1.0  0.85731  0.37689  0.37964  1.0000
  C   C64       1.0  0.44185  0.53480  0.35413  1.0000
  C   C65       1.0  0.48505  0.50475  0.33183  1.0000
  N   N13       1.0  0.47927  0.51472  0.41266  1.0000
  C   C66       1.0  0.45895  0.52931  0.42624  1.0000
  C   C67       1.0  0.52368  0.48484  0.39912  1.0000
  C   C68       1.0  0.54496  0.46978  0.38767  1.0000
  H   H37       1.0  0.51979  0.49105  0.46186  1.0000
  H   H38       1.0  0.55519  0.46461  0.44265  1.0000
  H   H39       1.0  0.45645  0.53640  0.48917  1.0000
  N   N14       1.0  0.42397  0.55239  0.36659  1.0000
  H   H40       1.0  0.43350  0.57103  0.41090  1.0000
  C   C69       1.0  0.45884  0.90578  0.35417  1.0000
  C   C70       1.0  0.48890  0.97903  0.33187  1.0000
  N   N15       1.0  0.47894  0.96329  0.41269  1.0000
  C   C71       1.0  0.46435  0.92837  0.42629  1.0000
  C   C72       1.0  0.50882  0.03757  0.39914  1.0000
  C   C73       1.0  0.52391  0.07392  0.38770  1.0000
  H   H41       1.0  0.50261  0.02748  0.46188  1.0000
  H   H42       1.0  0.52908  0.08932  0.44267  1.0000
  H   H43       1.0  0.45726  0.91879  0.48922  1.0000
  N   N16       1.0  0.44126  0.87031  0.36664  1.0000
  H   H44       1.0  0.42261  0.86120  0.41094  1.0000
  C   C74       1.0  0.08787  0.55182  0.35419  1.0000
  C   C75       1.0  0.01463  0.50858  0.33186  1.0000
  N   N17       1.0  0.03037  0.51436  0.41269  1.0000
  C   C76       1.0  0.06528  0.53469  0.42627  1.0000
  C   C77       1.0  0.95608  0.47000  0.39916  1.0000
  C   C78       1.0  0.91973  0.44876  0.38772  1.0000
  H   H45       1.0  0.96617  0.47385  0.46189  1.0000
  H   H46       1.0  0.90434  0.43848  0.44269  1.0000
  H   H47       1.0  0.07486  0.53719  0.48921  1.0000
  N   N18       1.0  0.12334  0.56969  0.36668  1.0000
  H   H48       1.0  0.13244  0.56015  0.41100  1.0000
