data_image0
_chemical_formula_structural       C3NC3NC5NC5NC20H18N4C8H8C6H3C3H3C6H3C3H3C3NC3NC5NC5NC20H18N4C8H8C6H3C3H3C6H3C3H3C3NC3NC5NC5NC20H18N4C8H8C6H3C3H3C6H3C3H3C3NC3NC5NC5NC20H18N4C8H8C6H3C3H3C6H3C3H3
_chemical_formula_sum              "C248 N32 H152"
_cell_length_a       46.6193
_cell_length_b       38.3989
_cell_length_c       15.0327
_cell_angle_alpha    89.9134
_cell_angle_beta     90.0712
_cell_angle_gamma    89.9444

_space_group_name_H-M_alt    "P 1"
_space_group_IT_number       1

loop_
  _space_group_symop_operation_xyz
  'x, y, z'

loop_
  _atom_site_type_symbol
  _atom_site_label
  _atom_site_symmetry_multiplicity
  _atom_site_fract_x
  _atom_site_fract_y
  _atom_site_fract_z
  _atom_site_occupancy
  C   C1        1.0  0.47336  0.10394  0.33180  1.0000
  C   C2        1.0  0.44394  0.10455  0.33800  1.0000
  C   C3        1.0  0.43327  0.07346  0.30317  1.0000
  N   N1        1.0  0.45682  0.05394  0.28439  1.0000
  C   C4        1.0  0.48179  0.07121  0.30073  1.0000
  C   C5        1.0  0.01055  0.06060  0.28202  1.0000
  C   C6        1.0  0.01750  0.02521  0.26456  1.0000
  N   N2        1.0  0.00053  0.99745  0.28248  1.0000
  C   C7        1.0  0.01472  0.46706  0.27128  1.0000
  C   C8        1.0  0.04208  0.47585  0.24113  1.0000
  C   C9        1.0  0.04416  0.01157  0.24039  1.0000
  C   C10       1.0  0.00488  0.43288  0.29081  1.0000
  C   C11       1.0  0.47522  0.42540  0.30436  1.0000
  N   N3        1.0  0.45168  0.44502  0.28575  1.0000
  C   C12       1.0  0.42672  0.42770  0.30179  1.0000
  C   C13       1.0  0.43515  0.39501  0.33343  1.0000
  C   C14       1.0  0.46457  0.39435  0.33959  1.0000
  C   C15       1.0  0.39798  0.43823  0.28216  1.0000
  C   C16       1.0  0.39107  0.47358  0.26364  1.0000
  N   N4        1.0  0.40799  0.00136  0.28173  1.0000
  C   C17       1.0  0.39379  0.03175  0.27017  1.0000
  C   C18       1.0  0.36643  0.02295  0.23995  1.0000
  C   C19       1.0  0.36437  0.48723  0.23958  1.0000
  C   C20       1.0  0.40360  0.06592  0.28988  1.0000
  C   C21       1.0  0.38284  0.09300  0.29943  1.0000
  C   C22       1.0  0.34220  0.14787  0.32262  1.0000
  C   C23       1.0  0.36706  0.15315  0.27130  1.0000
  C   C24       1.0  0.38656  0.12581  0.25769  1.0000
  C   C25       1.0  0.37505  0.41390  0.29033  1.0000
  C   C26       1.0  0.33117  0.36203  0.30555  1.0000
  C   C27       1.0  0.33346  0.38255  0.22805  1.0000
  C   C28       1.0  0.35579  0.40704  0.21937  1.0000
  C   C29       1.0  0.02562  0.40577  0.30063  1.0000
  C   C30       1.0  0.02185  0.37297  0.25913  1.0000
  C   C31       1.0  0.04136  0.34561  0.27295  1.0000
  C   C32       1.0  0.06623  0.35084  0.32436  1.0000
  C   C33       1.0  0.03348  0.08488  0.29053  1.0000
  C   C34       1.0  0.05278  0.09184  0.21982  1.0000
  C   C35       1.0  0.07730  0.13678  0.30630  1.0000
  C   C36       1.0  0.07514  0.11628  0.22886  1.0000
  H   H1        1.0  0.08775  0.12171  0.17492  1.0000
  H   H2        1.0  0.05003  0.08001  0.15945  1.0000
  H   H3        1.0  0.48582  0.12487  0.34727  1.0000
  H   H4        1.0  0.43265  0.12547  0.36100  1.0000
  H   H5        1.0  0.45583  0.03203  0.25288  1.0000
  H   H6        1.0  0.45267  0.46662  0.25266  1.0000
  H   H7        1.0  0.06275  0.02447  0.22700  1.0000
  H   H8        1.0  0.05864  0.45943  0.22615  1.0000
  H   H9        1.0  0.00472  0.36864  0.21799  1.0000
  H   H10       1.0  0.03773  0.32215  0.24268  1.0000
  H   H11       1.0  0.47586  0.37337  0.36247  1.0000
  H   H12       1.0  0.42271  0.37400  0.34841  1.0000
  H   H13       1.0  0.34978  0.03934  0.22551  1.0000
  H   H14       1.0  0.34572  0.47433  0.22687  1.0000
  H   H15       1.0  0.35857  0.41895  0.15905  1.0000
  H   H16       1.0  0.32080  0.37731  0.17402  1.0000
  H   H17       1.0  0.40367  0.13016  0.21653  1.0000
  H   H18       1.0  0.37065  0.17661  0.24084  1.0000
  N   N5        1.0  0.31259  0.33478  0.30472  1.0000
  N   N6        1.0  0.08385  0.32327  0.33383  1.0000
  N   N7        1.0  0.09585  0.16405  0.30573  1.0000
  N   N8        1.0  0.32458  0.17544  0.33180  1.0000
  C   C37       1.0  0.35782  0.08839  0.35206  1.0000
  C   C38       1.0  0.33735  0.11505  0.36171  1.0000
  C   C39       1.0  0.37043  0.39579  0.37116  1.0000
  C   C40       1.0  0.34978  0.36930  0.37750  1.0000
  C   C41       1.0  0.07110  0.38364  0.36336  1.0000
  C   C42       1.0  0.05067  0.41034  0.35334  1.0000
  C   C43       1.0  0.03805  0.10289  0.37143  1.0000
  C   C44       1.0  0.05865  0.12941  0.37802  1.0000
  H   H19       1.0  0.06046  0.14256  0.43683  1.0000
  H   H20       1.0  0.02571  0.09757  0.42606  1.0000
  H   H21       1.0  0.05393  0.43307  0.38733  1.0000
  H   H22       1.0  0.08863  0.38771  0.40292  1.0000
  H   H23       1.0  0.38270  0.40107  0.42600  1.0000
  H   H24       1.0  0.34793  0.35607  0.43628  1.0000
  H   H25       1.0  0.31987  0.11099  0.40141  1.0000
  H   H26       1.0  0.35460  0.06566  0.38625  1.0000
  C   C45       1.0  0.16304  0.24439  0.33767  1.0000
  C   C46       1.0  0.14332  0.21617  0.33347  1.0000
  C   C47       1.0  0.11375  0.22090  0.35021  1.0000
  C   C48       1.0  0.10360  0.25502  0.36432  1.0000
  C   C49       1.0  0.12198  0.28418  0.36125  1.0000
  C   C50       1.0  0.15173  0.27826  0.35249  1.0000
  H   H27       1.0  0.08208  0.25883  0.37472  1.0000
  H   H28       1.0  0.16496  0.29939  0.35388  1.0000
  H   H29       1.0  0.15080  0.19132  0.32457  1.0000
  C   C51       1.0  0.09397  0.19331  0.35543  1.0000
  C   C52       1.0  0.11070  0.31820  0.36502  1.0000
  C   C53       1.0  0.19282  0.23726  0.33042  1.0000
  H   H30       1.0  0.19833  0.21161  0.32583  1.0000
  H   H31       1.0  0.12390  0.33928  0.37202  1.0000
  H   H32       1.0  0.07439  0.19841  0.38364  1.0000
  C   C54       1.0  0.24536  0.25445  0.33697  1.0000
  C   C55       1.0  0.26508  0.28266  0.33273  1.0000
  C   C56       1.0  0.29468  0.27787  0.34895  1.0000
  C   C57       1.0  0.30487  0.24370  0.36244  1.0000
  C   C58       1.0  0.28645  0.21457  0.35946  1.0000
  C   C59       1.0  0.25668  0.22054  0.35130  1.0000
  H   H33       1.0  0.32640  0.23985  0.37242  1.0000
  H   H34       1.0  0.24345  0.19941  0.35274  1.0000
  H   H35       1.0  0.25759  0.30754  0.32427  1.0000
  C   C60       1.0  0.31449  0.30543  0.35433  1.0000
  C   C61       1.0  0.29773  0.18054  0.36268  1.0000
  C   C62       1.0  0.21556  0.26162  0.33036  1.0000
  H   H36       1.0  0.21004  0.28727  0.32618  1.0000
  H   H37       1.0  0.28456  0.15944  0.37027  1.0000
  H   H38       1.0  0.33409  0.30025  0.38243  1.0000
  C   C63       1.0  0.47336  0.60393  0.33180  1.0000
  C   C64       1.0  0.44395  0.60455  0.33800  1.0000
  C   C65       1.0  0.43327  0.57346  0.30317  1.0000
  N   N9        1.0  0.45682  0.55394  0.28439  1.0000
  C   C66       1.0  0.48179  0.57121  0.30073  1.0000
  C   C67       1.0  0.01055  0.56060  0.28202  1.0000
  C   C68       1.0  0.01750  0.52521  0.26456  1.0000
  N   N10       1.0  0.00053  0.49745  0.28248  1.0000
  C   C69       1.0  0.01472  0.96706  0.27128  1.0000
  C   C70       1.0  0.04208  0.97585  0.24113  1.0000
  C   C71       1.0  0.04416  0.51157  0.24039  1.0000
  C   C72       1.0  0.00488  0.93288  0.29081  1.0000
  C   C73       1.0  0.47522  0.92540  0.30436  1.0000
  N   N11       1.0  0.45168  0.94503  0.28575  1.0000
  C   C74       1.0  0.42672  0.92770  0.30179  1.0000
  C   C75       1.0  0.43515  0.89501  0.33343  1.0000
  C   C76       1.0  0.46457  0.89435  0.33959  1.0000
  C   C77       1.0  0.39798  0.93823  0.28216  1.0000
  C   C78       1.0  0.39107  0.97358  0.26364  1.0000
  N   N12       1.0  0.40799  0.50136  0.28173  1.0000
  C   C79       1.0  0.39379  0.53175  0.27017  1.0000
  C   C80       1.0  0.36643  0.52295  0.23995  1.0000
  C   C81       1.0  0.36437  0.98723  0.23958  1.0000
  C   C82       1.0  0.40360  0.56592  0.28988  1.0000
  C   C83       1.0  0.38284  0.59300  0.29943  1.0000
  C   C84       1.0  0.34220  0.64787  0.32262  1.0000
  C   C85       1.0  0.36705  0.65315  0.27130  1.0000
  C   C86       1.0  0.38656  0.62581  0.25769  1.0000
  C   C87       1.0  0.37505  0.91390  0.29033  1.0000
  C   C88       1.0  0.33117  0.86203  0.30555  1.0000
  C   C89       1.0  0.33346  0.88255  0.22805  1.0000
  C   C90       1.0  0.35579  0.90704  0.21937  1.0000
  C   C91       1.0  0.02562  0.90577  0.30063  1.0000
  C   C92       1.0  0.02185  0.87297  0.25913  1.0000
  C   C93       1.0  0.04136  0.84561  0.27295  1.0000
  C   C94       1.0  0.06623  0.85084  0.32436  1.0000
  C   C95       1.0  0.03348  0.58488  0.29053  1.0000
  C   C96       1.0  0.05278  0.59184  0.21982  1.0000
  C   C97       1.0  0.07730  0.63678  0.30630  1.0000
  C   C98       1.0  0.07513  0.61628  0.22886  1.0000
  H   H39       1.0  0.08775  0.62171  0.17492  1.0000
  H   H40       1.0  0.05003  0.58001  0.15945  1.0000
  H   H41       1.0  0.48582  0.62487  0.34727  1.0000
  H   H42       1.0  0.43266  0.62547  0.36100  1.0000
  H   H43       1.0  0.45583  0.53203  0.25288  1.0000
  H   H44       1.0  0.45267  0.96662  0.25266  1.0000
  H   H45       1.0  0.06275  0.52447  0.22700  1.0000
  H   H46       1.0  0.05864  0.95943  0.22615  1.0000
  H   H47       1.0  0.00472  0.86864  0.21799  1.0000
  H   H48       1.0  0.03773  0.82214  0.24268  1.0000
  H   H49       1.0  0.47586  0.87337  0.36247  1.0000
  H   H50       1.0  0.42271  0.87400  0.34841  1.0000
  H   H51       1.0  0.34978  0.53934  0.22551  1.0000
  H   H52       1.0  0.34572  0.97433  0.22687  1.0000
  H   H53       1.0  0.35857  0.91895  0.15905  1.0000
  H   H54       1.0  0.32080  0.87731  0.17402  1.0000
  H   H55       1.0  0.40366  0.63016  0.21653  1.0000
  H   H56       1.0  0.37065  0.67662  0.24084  1.0000
  N   N13       1.0  0.31259  0.83478  0.30472  1.0000
  N   N14       1.0  0.08385  0.82327  0.33383  1.0000
  N   N15       1.0  0.09585  0.66405  0.30573  1.0000
  N   N16       1.0  0.32458  0.67544  0.33180  1.0000
  C   C99       1.0  0.35782  0.58839  0.35206  1.0000
  C   C100      1.0  0.33735  0.61505  0.36171  1.0000
  C   C101      1.0  0.37042  0.89578  0.37116  1.0000
  C   C102      1.0  0.34978  0.86930  0.37750  1.0000
  C   C103      1.0  0.07110  0.88364  0.36336  1.0000
  C   C104      1.0  0.05067  0.91034  0.35334  1.0000
  C   C105      1.0  0.03805  0.60289  0.37143  1.0000
  C   C106      1.0  0.05865  0.62941  0.37802  1.0000
  H   H57       1.0  0.06046  0.64256  0.43683  1.0000
  H   H58       1.0  0.02571  0.59757  0.42606  1.0000
  H   H59       1.0  0.05393  0.93307  0.38733  1.0000
  H   H60       1.0  0.08863  0.88771  0.40292  1.0000
  H   H61       1.0  0.38270  0.90106  0.42600  1.0000
  H   H62       1.0  0.34793  0.85607  0.43628  1.0000
  H   H63       1.0  0.31987  0.61099  0.40141  1.0000
  H   H64       1.0  0.35460  0.56566  0.38625  1.0000
  C   C107      1.0  0.16304  0.74438  0.33767  1.0000
  C   C108      1.0  0.14332  0.71617  0.33347  1.0000
  C   C109      1.0  0.11375  0.72090  0.35021  1.0000
  C   C110      1.0  0.10360  0.75502  0.36432  1.0000
  C   C111      1.0  0.12198  0.78418  0.36125  1.0000
  C   C112      1.0  0.15173  0.77826  0.35249  1.0000
  H   H65       1.0  0.08208  0.75883  0.37472  1.0000
  H   H66       1.0  0.16496  0.79939  0.35388  1.0000
  H   H67       1.0  0.15080  0.69132  0.32457  1.0000
  C   C113      1.0  0.09397  0.69331  0.35543  1.0000
  C   C114      1.0  0.11070  0.81819  0.36502  1.0000
  C   C115      1.0  0.19282  0.73725  0.33042  1.0000
  H   H68       1.0  0.19833  0.71161  0.32583  1.0000
  H   H69       1.0  0.12390  0.83928  0.37202  1.0000
  H   H70       1.0  0.07439  0.69841  0.38364  1.0000
  C   C116      1.0  0.24536  0.75445  0.33697  1.0000
  C   C117      1.0  0.26508  0.78266  0.33273  1.0000
  C   C118      1.0  0.29468  0.77786  0.34895  1.0000
  C   C119      1.0  0.30487  0.74370  0.36244  1.0000
  C   C120      1.0  0.28645  0.71457  0.35946  1.0000
  C   C121      1.0  0.25669  0.72054  0.35130  1.0000
  H   H71       1.0  0.32640  0.73985  0.37242  1.0000
  H   H72       1.0  0.24345  0.69940  0.35274  1.0000
  H   H73       1.0  0.25759  0.80755  0.32427  1.0000
  C   C122      1.0  0.31449  0.80543  0.35433  1.0000
  C   C123      1.0  0.29773  0.68054  0.36268  1.0000
  C   C124      1.0  0.21556  0.76162  0.33036  1.0000
  H   H74       1.0  0.21004  0.78727  0.32618  1.0000
  H   H75       1.0  0.28456  0.65944  0.37027  1.0000
  H   H76       1.0  0.33409  0.80025  0.38243  1.0000
  C   C125      1.0  0.97336  0.10394  0.33180  1.0000
  C   C126      1.0  0.94395  0.10455  0.33800  1.0000
  C   C127      1.0  0.93327  0.07346  0.30317  1.0000
  N   N17       1.0  0.95682  0.05394  0.28439  1.0000
  C   C128      1.0  0.98179  0.07121  0.30073  1.0000
  C   C129      1.0  0.51055  0.06060  0.28202  1.0000
  C   C130      1.0  0.51750  0.02521  0.26456  1.0000
  N   N18       1.0  0.50053  0.99745  0.28248  1.0000
  C   C131      1.0  0.51472  0.46706  0.27128  1.0000
  C   C132      1.0  0.54208  0.47585  0.24113  1.0000
  C   C133      1.0  0.54416  0.01157  0.24039  1.0000
  C   C134      1.0  0.50488  0.43288  0.29081  1.0000
  C   C135      1.0  0.97522  0.42540  0.30436  1.0000
  N   N19       1.0  0.95168  0.44502  0.28575  1.0000
  C   C136      1.0  0.92672  0.42770  0.30179  1.0000
  C   C137      1.0  0.93515  0.39501  0.33343  1.0000
  C   C138      1.0  0.96457  0.39435  0.33959  1.0000
  C   C139      1.0  0.89798  0.43823  0.28216  1.0000
  C   C140      1.0  0.89107  0.47358  0.26364  1.0000
  N   N20       1.0  0.90799  0.00136  0.28173  1.0000
  C   C141      1.0  0.89380  0.03175  0.27017  1.0000
  C   C142      1.0  0.86643  0.02295  0.23995  1.0000
  C   C143      1.0  0.86437  0.48723  0.23958  1.0000
  C   C144      1.0  0.90360  0.06592  0.28988  1.0000
  C   C145      1.0  0.88284  0.09300  0.29943  1.0000
  C   C146      1.0  0.84220  0.14787  0.32262  1.0000
  C   C147      1.0  0.86706  0.15315  0.27130  1.0000
  C   C148      1.0  0.88656  0.12581  0.25769  1.0000
  C   C149      1.0  0.87505  0.41390  0.29033  1.0000
  C   C150      1.0  0.83117  0.36203  0.30555  1.0000
  C   C151      1.0  0.83346  0.38255  0.22805  1.0000
  C   C152      1.0  0.85579  0.40704  0.21937  1.0000
  C   C153      1.0  0.52562  0.40577  0.30063  1.0000
  C   C154      1.0  0.52185  0.37297  0.25913  1.0000
  C   C155      1.0  0.54136  0.34561  0.27295  1.0000
  C   C156      1.0  0.56623  0.35084  0.32436  1.0000
  C   C157      1.0  0.53348  0.08488  0.29053  1.0000
  C   C158      1.0  0.55278  0.09184  0.21982  1.0000
  C   C159      1.0  0.57730  0.13678  0.30630  1.0000
  C   C160      1.0  0.57514  0.11628  0.22886  1.0000
  H   H77       1.0  0.58775  0.12171  0.17492  1.0000
  H   H78       1.0  0.55003  0.08001  0.15945  1.0000
  H   H79       1.0  0.98582  0.12487  0.34727  1.0000
  H   H80       1.0  0.93266  0.12547  0.36100  1.0000
  H   H81       1.0  0.95583  0.03203  0.25288  1.0000
  H   H82       1.0  0.95267  0.46662  0.25266  1.0000
  H   H83       1.0  0.56275  0.02447  0.22700  1.0000
  H   H84       1.0  0.55864  0.45943  0.22615  1.0000
  H   H85       1.0  0.50472  0.36864  0.21799  1.0000
  H   H86       1.0  0.53773  0.32215  0.24268  1.0000
  H   H87       1.0  0.97586  0.37337  0.36247  1.0000
  H   H88       1.0  0.92271  0.37400  0.34841  1.0000
  H   H89       1.0  0.84978  0.03934  0.22551  1.0000
  H   H90       1.0  0.84572  0.47433  0.22687  1.0000
  H   H91       1.0  0.85857  0.41895  0.15905  1.0000
  H   H92       1.0  0.82080  0.37731  0.17402  1.0000
  H   H93       1.0  0.90367  0.13016  0.21653  1.0000
  H   H94       1.0  0.87065  0.17661  0.24084  1.0000
  N   N21       1.0  0.81259  0.33478  0.30472  1.0000
  N   N22       1.0  0.58385  0.32327  0.33383  1.0000
  N   N23       1.0  0.59585  0.16405  0.30573  1.0000
  N   N24       1.0  0.82458  0.17544  0.33180  1.0000
  C   C161      1.0  0.85782  0.08839  0.35206  1.0000
  C   C162      1.0  0.83735  0.11505  0.36171  1.0000
  C   C163      1.0  0.87042  0.39579  0.37116  1.0000
  C   C164      1.0  0.84978  0.36930  0.37750  1.0000
  C   C165      1.0  0.57110  0.38364  0.36336  1.0000
  C   C166      1.0  0.55067  0.41034  0.35334  1.0000
  C   C167      1.0  0.53805  0.10289  0.37143  1.0000
  C   C168      1.0  0.55865  0.12941  0.37802  1.0000
  H   H95       1.0  0.56046  0.14256  0.43683  1.0000
  H   H96       1.0  0.52571  0.09757  0.42606  1.0000
  H   H97       1.0  0.55393  0.43307  0.38733  1.0000
  H   H98       1.0  0.58863  0.38771  0.40292  1.0000
  H   H99       1.0  0.88270  0.40107  0.42600  1.0000
  H   H100      1.0  0.84793  0.35607  0.43628  1.0000
  H   H101      1.0  0.81987  0.11099  0.40141  1.0000
  H   H102      1.0  0.85460  0.06566  0.38625  1.0000
  C   C169      1.0  0.66304  0.24439  0.33767  1.0000
  C   C170      1.0  0.64332  0.21617  0.33347  1.0000
  C   C171      1.0  0.61375  0.22090  0.35021  1.0000
  C   C172      1.0  0.60359  0.25502  0.36432  1.0000
  C   C173      1.0  0.62199  0.28418  0.36125  1.0000
  C   C174      1.0  0.65174  0.27826  0.35249  1.0000
  H   H103      1.0  0.58209  0.25883  0.37472  1.0000
  H   H104      1.0  0.66497  0.29939  0.35388  1.0000
  H   H105      1.0  0.65080  0.19132  0.32457  1.0000
  C   C175      1.0  0.59397  0.19331  0.35543  1.0000
  C   C176      1.0  0.61070  0.31820  0.36502  1.0000
  C   C177      1.0  0.69282  0.23726  0.33042  1.0000
  H   H106      1.0  0.69833  0.21161  0.32583  1.0000
  H   H107      1.0  0.62390  0.33928  0.37202  1.0000
  H   H108      1.0  0.57439  0.19841  0.38364  1.0000
  C   C178      1.0  0.74536  0.25445  0.33697  1.0000
  C   C179      1.0  0.76508  0.28266  0.33273  1.0000
  C   C180      1.0  0.79468  0.27787  0.34895  1.0000
  C   C181      1.0  0.80487  0.24370  0.36244  1.0000
  C   C182      1.0  0.78645  0.21457  0.35946  1.0000
  C   C183      1.0  0.75669  0.22054  0.35130  1.0000
  H   H109      1.0  0.82640  0.23985  0.37242  1.0000
  H   H110      1.0  0.74345  0.19941  0.35274  1.0000
  H   H111      1.0  0.75759  0.30754  0.32427  1.0000
  C   C184      1.0  0.81449  0.30543  0.35433  1.0000
  C   C185      1.0  0.79773  0.18054  0.36268  1.0000
  C   C186      1.0  0.71556  0.26162  0.33036  1.0000
  H   H112      1.0  0.71004  0.28727  0.32618  1.0000
  H   H113      1.0  0.78456  0.15944  0.37027  1.0000
  H   H114      1.0  0.83409  0.30025  0.38243  1.0000
  C   C187      1.0  0.97336  0.60393  0.33180  1.0000
  C   C188      1.0  0.94395  0.60455  0.33800  1.0000
  C   C189      1.0  0.93327  0.57346  0.30317  1.0000
  N   N25       1.0  0.95683  0.55394  0.28439  1.0000
  C   C190      1.0  0.98179  0.57121  0.30073  1.0000
  C   C191      1.0  0.51055  0.56060  0.28202  1.0000
  C   C192      1.0  0.51750  0.52521  0.26456  1.0000
  N   N26       1.0  0.50053  0.49745  0.28248  1.0000
  C   C193      1.0  0.51472  0.96706  0.27128  1.0000
  C   C194      1.0  0.54208  0.97585  0.24113  1.0000
  C   C195      1.0  0.54416  0.51157  0.24039  1.0000
  C   C196      1.0  0.50489  0.93288  0.29081  1.0000
  C   C197      1.0  0.97522  0.92540  0.30436  1.0000
  N   N27       1.0  0.95168  0.94503  0.28575  1.0000
  C   C198      1.0  0.92672  0.92770  0.30179  1.0000
  C   C199      1.0  0.93515  0.89501  0.33343  1.0000
  C   C200      1.0  0.96457  0.89435  0.33959  1.0000
  C   C201      1.0  0.89798  0.93823  0.28216  1.0000
  C   C202      1.0  0.89107  0.97358  0.26364  1.0000
  N   N28       1.0  0.90799  0.50136  0.28173  1.0000
  C   C203      1.0  0.89379  0.53175  0.27017  1.0000
  C   C204      1.0  0.86643  0.52295  0.23995  1.0000
  C   C205      1.0  0.86437  0.98723  0.23958  1.0000
  C   C206      1.0  0.90360  0.56592  0.28988  1.0000
  C   C207      1.0  0.88284  0.59300  0.29943  1.0000
  C   C208      1.0  0.84220  0.64787  0.32262  1.0000
  C   C209      1.0  0.86706  0.65315  0.27130  1.0000
  C   C210      1.0  0.88656  0.62581  0.25769  1.0000
  C   C211      1.0  0.87505  0.91390  0.29033  1.0000
  C   C212      1.0  0.83117  0.86203  0.30555  1.0000
  C   C213      1.0  0.83346  0.88255  0.22805  1.0000
  C   C214      1.0  0.85579  0.90704  0.21937  1.0000
  C   C215      1.0  0.52563  0.90577  0.30063  1.0000
  C   C216      1.0  0.52185  0.87297  0.25913  1.0000
  C   C217      1.0  0.54136  0.84561  0.27295  1.0000
  C   C218      1.0  0.56623  0.85084  0.32436  1.0000
  C   C219      1.0  0.53348  0.58488  0.29053  1.0000
  C   C220      1.0  0.55278  0.59184  0.21982  1.0000
  C   C221      1.0  0.57730  0.63678  0.30630  1.0000
  C   C222      1.0  0.57513  0.61628  0.22886  1.0000
  H   H115      1.0  0.58775  0.62171  0.17492  1.0000
  H   H116      1.0  0.55003  0.58001  0.15945  1.0000
  H   H117      1.0  0.98582  0.62487  0.34727  1.0000
  H   H118      1.0  0.93266  0.62547  0.36100  1.0000
  H   H119      1.0  0.95583  0.53203  0.25288  1.0000
  H   H120      1.0  0.95267  0.96662  0.25266  1.0000
  H   H121      1.0  0.56276  0.52447  0.22700  1.0000
  H   H122      1.0  0.55864  0.95943  0.22615  1.0000
  H   H123      1.0  0.50472  0.86864  0.21799  1.0000
  H   H124      1.0  0.53773  0.82214  0.24268  1.0000
  H   H125      1.0  0.97586  0.87337  0.36247  1.0000
  H   H126      1.0  0.92271  0.87400  0.34841  1.0000
  H   H127      1.0  0.84978  0.53934  0.22551  1.0000
  H   H128      1.0  0.84572  0.97433  0.22687  1.0000
  H   H129      1.0  0.85857  0.91895  0.15905  1.0000
  H   H130      1.0  0.82080  0.87731  0.17402  1.0000
  H   H131      1.0  0.90367  0.63016  0.21653  1.0000
  H   H132      1.0  0.87065  0.67662  0.24084  1.0000
  N   N29       1.0  0.81259  0.83478  0.30472  1.0000
  N   N30       1.0  0.58385  0.82327  0.33383  1.0000
  N   N31       1.0  0.59585  0.66405  0.30573  1.0000
  N   N32       1.0  0.82458  0.67544  0.33180  1.0000
  C   C223      1.0  0.85782  0.58839  0.35206  1.0000
  C   C224      1.0  0.83735  0.61505  0.36171  1.0000
  C   C225      1.0  0.87043  0.89578  0.37116  1.0000
  C   C226      1.0  0.84978  0.86930  0.37750  1.0000
  C   C227      1.0  0.57110  0.88364  0.36336  1.0000
  C   C228      1.0  0.55067  0.91034  0.35334  1.0000
  C   C229      1.0  0.53805  0.60289  0.37143  1.0000
  C   C230      1.0  0.55865  0.62941  0.37802  1.0000
  H   H133      1.0  0.56047  0.64256  0.43683  1.0000
  H   H134      1.0  0.52571  0.59757  0.42606  1.0000
  H   H135      1.0  0.55393  0.93307  0.38733  1.0000
  H   H136      1.0  0.58863  0.88771  0.40292  1.0000
  H   H137      1.0  0.88270  0.90106  0.42600  1.0000
  H   H138      1.0  0.84793  0.85607  0.43628  1.0000
  H   H139      1.0  0.81988  0.61099  0.40141  1.0000
  H   H140      1.0  0.85460  0.56566  0.38625  1.0000
  C   C231      1.0  0.66304  0.74438  0.33767  1.0000
  C   C232      1.0  0.64332  0.71617  0.33347  1.0000
  C   C233      1.0  0.61375  0.72090  0.35021  1.0000
  C   C234      1.0  0.60360  0.75502  0.36432  1.0000
  C   C235      1.0  0.62199  0.78418  0.36125  1.0000
  C   C236      1.0  0.65174  0.77826  0.35249  1.0000
  H   H141      1.0  0.58208  0.75883  0.37472  1.0000
  H   H142      1.0  0.66496  0.79939  0.35388  1.0000
  H   H143      1.0  0.65080  0.69132  0.32457  1.0000
  C   C237      1.0  0.59397  0.69331  0.35543  1.0000
  C   C238      1.0  0.61070  0.81819  0.36502  1.0000
  C   C239      1.0  0.69282  0.73725  0.33042  1.0000
  H   H144      1.0  0.69833  0.71161  0.32583  1.0000
  H   H145      1.0  0.62390  0.83928  0.37202  1.0000
  H   H146      1.0  0.57439  0.69841  0.38364  1.0000
  C   C240      1.0  0.74536  0.75445  0.33697  1.0000
  C   C241      1.0  0.76508  0.78266  0.33273  1.0000
  C   C242      1.0  0.79469  0.77786  0.34895  1.0000
  C   C243      1.0  0.80487  0.74370  0.36244  1.0000
  C   C244      1.0  0.78645  0.71457  0.35946  1.0000
  C   C245      1.0  0.75668  0.72054  0.35130  1.0000
  H   H147      1.0  0.82640  0.73985  0.37242  1.0000
  H   H148      1.0  0.74345  0.69940  0.35274  1.0000
  H   H149      1.0  0.75759  0.80755  0.32427  1.0000
  C   C246      1.0  0.81449  0.80543  0.35433  1.0000
  C   C247      1.0  0.79773  0.68054  0.36268  1.0000
  C   C248      1.0  0.71556  0.76162  0.33036  1.0000
  H   H150      1.0  0.71004  0.78727  0.32618  1.0000
  H   H151      1.0  0.78456  0.65944  0.37027  1.0000
  H   H152      1.0  0.83409  0.80025  0.38243  1.0000
