data_image0
_chemical_formula_structural       COHCOH3C2H2C2H2C9OH4C6O2H4C6O2H4CNHCNHCNHCNHCNHCNHC3HOCOC3HOC3OHC3HOC3OHC3NC3H5C3NC3H5C3NC2H3C3NC3H5C3NC3H5C3NC3H5C3OH4C6O2H4C6O2H4CNHCNHCNHCNHCNHCNHC3HOCOC3HOC3OHC3HOC3OHC3NC3H5C3NC3H5C3NC2H3C3NC3H5C3NC3H5C3NC3H5C6O2H3C6O2H4C6O2H4CNHCNHCNHCNHCNHCNHC3HOC3OHC3HOC3OHC3HOC3OHC3NC3H5C3NC3H5C3NC3H5C3NC3H5C3NC3H5C3NC3H5C6O2H3C6O2H4C6O2H4CNHCNHCNHCNHCNHCNHC3HOC3OHC3HOC3OHC3HOC3OHC3NC3H5C3NC3H5C3NC3H5C3NC3H5C3NC3H5C3NC3H5
_chemical_formula_sum              "C312 O48 H216 N48"
_cell_length_a       46.1709
_cell_length_b       46.171
_cell_length_c       14.9528
_cell_angle_alpha    90
_cell_angle_beta     90
_cell_angle_gamma    120

_space_group_name_H-M_alt    "P 1"
_space_group_IT_number       1

loop_
  _space_group_symop_operation_xyz
  'x, y, z'

loop_
  _atom_site_type_symbol
  _atom_site_label
  _atom_site_symmetry_multiplicity
  _atom_site_fract_x
  _atom_site_fract_y
  _atom_site_fract_z
  _atom_site_occupancy
  C   C1        1.0  0.02045  0.26078  0.31985  1.0000
  O   O1        1.0  0.02818  0.31622  0.28124  1.0000
  H   H1        1.0  0.02746  0.21920  0.34791  1.0000
  C   C2        1.0  0.02045  0.76078  0.31985  1.0000
  O   O2        1.0  0.02818  0.81622  0.28124  1.0000
  H   H2        1.0  0.02746  0.71920  0.34791  1.0000
  H   H3        1.0  0.02397  0.31152  0.21693  1.0000
  H   H4        1.0  0.02397  0.81152  0.21693  1.0000
  C   C3        1.0  0.04043  0.29663  0.31169  1.0000
  C   C4        1.0  0.03909  0.24408  0.33491  1.0000
  H   H5        1.0  0.05618  0.30956  0.58606  1.0000
  H   H6        1.0  0.04998  0.33806  0.50806  1.0000
  C   C5        1.0  0.04043  0.79663  0.31169  1.0000
  C   C6        1.0  0.03909  0.74408  0.33491  1.0000
  H   H7        1.0  0.05618  0.80956  0.58606  1.0000
  H   H8        1.0  0.04998  0.83806  0.50806  1.0000
  C   C7        1.0  0.07508  0.31432  0.33220  1.0000
  C   C8        1.0  0.07420  0.26075  0.34180  1.0000
  C   C9        1.0  0.06669  0.33261  0.54709  1.0000
  C   C10       1.0  0.07508  0.81432  0.33220  1.0000
  C   C11       1.0  0.07420  0.76075  0.34180  1.0000
  C   C12       1.0  0.06669  0.83261  0.54709  1.0000
  C   C13       1.0  0.48421  0.24240  0.31965  1.0000
  C   C14       1.0  0.42948  0.18888  0.33070  1.0000
  C   C15       1.0  0.46422  0.20655  0.31113  1.0000
  O   O3        1.0  0.47651  0.18696  0.28112  1.0000
  H   H9        1.0  0.98083  0.19164  0.21684  1.0000
  H   H10       1.0  0.52397  0.31152  0.21693  1.0000
  H   H11       1.0  0.37116  0.18741  0.28231  1.0000
  H   H12       1.0  0.13357  0.31598  0.28540  1.0000
  C   C16       1.0  0.26149  0.24263  0.32007  1.0000
  C   C17       1.0  0.31506  0.24160  0.33296  1.0000
  C   C18       1.0  0.29735  0.25851  0.31189  1.0000
  C   C19       1.0  0.24310  0.26047  0.31958  1.0000
  C   C20       1.0  0.20725  0.24459  0.31107  1.0000
  C   C21       1.0  0.18957  0.26163  0.33074  1.0000
  O   O4        1.0  0.31691  0.29030  0.28114  1.0000
  O   O5        1.0  0.18766  0.21270  0.28105  1.0000
  H   H13       1.0  0.31216  0.28972  0.21684  1.0000
  H   H14       1.0  0.19236  0.21307  0.21678  1.0000
  H   H15       1.0  0.31660  0.18465  0.28667  1.0000
  H   H16       1.0  0.18800  0.31850  0.28322  1.0000
  C   C22       1.0  0.26125  0.01971  0.31951  1.0000
  C   C23       1.0  0.26236  0.07435  0.33150  1.0000
  C   C24       1.0  0.24536  0.03968  0.31128  1.0000
  C   C25       1.0  0.24340  0.48347  0.31982  1.0000
  C   C26       1.0  0.25928  0.46350  0.31159  1.0000
  C   C27       1.0  0.24234  0.42886  0.33238  1.0000
  O   O6        1.0  0.21350  0.02740  0.28110  1.0000
  O   O7        1.0  0.29108  0.47573  0.28092  1.0000
  H   H17       1.0  0.21391  0.52312  0.21681  1.0000
  H   H18       1.0  0.29052  0.97991  0.21661  1.0000
  H   H19       1.0  0.31917  0.13280  0.28388  1.0000
  H   H20       1.0  0.18542  0.37037  0.28584  1.0000
  C   C28       1.0  0.13422  0.23917  0.26422  1.0000
  N   N1        1.0  0.10536  0.24025  0.26947  1.0000
  H   H21       1.0  0.14366  0.23978  0.20195  1.0000
  C   C29       1.0  0.26496  0.39638  0.26443  1.0000
  N   N2        1.0  0.26377  0.36636  0.26868  1.0000
  H   H22       1.0  0.26438  0.40546  0.20249  1.0000
  C   C30       1.0  0.10777  0.36961  0.26497  1.0000
  N   N3        1.0  0.13769  0.39850  0.26976  1.0000
  H   H23       1.0  0.09861  0.36021  0.20286  1.0000
  C   C31       1.0  0.37006  0.26407  0.26457  1.0000
  N   N4        1.0  0.39899  0.26309  0.26848  1.0000
  H   H24       1.0  0.36042  0.26372  0.20274  1.0000
  C   C32       1.0  0.23965  0.10710  0.26487  1.0000
  N   N5        1.0  0.24067  0.13700  0.27001  1.0000
  H   H25       1.0  0.23982  0.09799  0.20264  1.0000
  C   C33       1.0  0.39676  0.13352  0.26351  1.0000
  N   N6        1.0  0.36688  0.10458  0.26830  1.0000
  H   H26       1.0  0.40594  0.14297  0.20148  1.0000
  C   C34       1.0  0.46557  0.25909  0.33474  1.0000
  C   C35       1.0  0.43044  0.24247  0.34058  1.0000
  C   C36       1.0  0.41274  0.20724  0.34096  1.0000
  H   H27       1.0  0.47721  0.28397  0.34802  1.0000
  O   O8        1.0  0.37864  0.19067  0.34494  1.0000
  C   C37       1.0  0.09183  0.29598  0.34315  1.0000
  O   O9        1.0  0.12591  0.31258  0.34787  1.0000
  C   C38       1.0  0.24482  0.20731  0.33532  1.0000
  C   C39       1.0  0.26150  0.18891  0.34290  1.0000
  C   C40       1.0  0.29673  0.20654  0.34436  1.0000
  H   H28       1.0  0.21989  0.19401  0.34776  1.0000
  O   O10       1.0  0.31336  0.18908  0.34912  1.0000
  C   C41       1.0  0.20790  0.29672  0.34133  1.0000
  C   C42       1.0  0.24313  0.31429  0.34056  1.0000
  C   C43       1.0  0.25978  0.29581  0.33453  1.0000
  O   O11       1.0  0.19128  0.31419  0.34575  1.0000
  H   H29       1.0  0.28466  0.30907  0.34765  1.0000
  C   C44       1.0  0.29661  0.03838  0.33431  1.0000
  C   C45       1.0  0.31506  0.07350  0.34099  1.0000
  C   C46       1.0  0.29745  0.09113  0.34205  1.0000
  H   H30       1.0  0.30988  0.02676  0.34733  1.0000
  O   O12       1.0  0.31492  0.12522  0.34642  1.0000
  C   C47       1.0  0.20727  0.41212  0.34361  1.0000
  C   C48       1.0  0.18965  0.42973  0.34231  1.0000
  C   C49       1.0  0.20808  0.46483  0.33509  1.0000
  O   O13       1.0  0.18981  0.37803  0.34831  1.0000
  H   H31       1.0  0.19479  0.47646  0.34769  1.0000
  C   C50       1.0  0.14040  0.24867  0.42294  1.0000
  C   C51       1.0  0.15430  0.24536  0.34123  1.0000
  C   C52       1.0  0.09226  0.24363  0.34774  1.0000
  N   N7        1.0  0.11132  0.24925  0.42183  1.0000
  C   C53       1.0  0.15873  0.25741  0.50893  1.0000
  C   C54       1.0  0.14110  0.23418  0.58891  1.0000
  C   C55       1.0  0.17136  0.23458  0.54566  1.0000
  H   H32       1.0  0.17353  0.28380  0.52720  1.0000
  H   H33       1.0  0.19450  0.24702  0.58428  1.0000
  H   H34       1.0  0.16570  0.21238  0.50655  1.0000
  H   H35       1.0  0.11719  0.21150  0.57652  1.0000
  H   H36       1.0  0.14585  0.24610  0.65448  1.0000
  C   C56       1.0  0.25527  0.39236  0.42328  1.0000
  C   C57       1.0  0.25859  0.40979  0.34206  1.0000
  C   C58       1.0  0.26025  0.34946  0.34624  1.0000
  N   N8        1.0  0.25464  0.36267  0.42094  1.0000
  C   C59       1.0  0.24646  0.40155  0.50976  1.0000
  C   C60       1.0  0.26979  0.40704  0.58940  1.0000
  C   C61       1.0  0.26911  0.43693  0.54725  1.0000
  H   H37       1.0  0.22008  0.38970  0.52824  1.0000
  H   H38       1.0  0.25655  0.44734  0.58654  1.0000
  H   H39       1.0  0.29123  0.45372  0.50823  1.0000
  H   H40       1.0  0.29258  0.40607  0.57645  1.0000
  H   H41       1.0  0.25793  0.39958  0.65499  1.0000
  C   C62       1.0  0.11146  0.36354  0.42369  1.0000
  C   C63       1.0  0.09414  0.34962  0.34214  1.0000
  C   C64       1.0  0.15447  0.41164  0.34763  1.0000
  N   N9        1.0  0.14114  0.39260  0.42193  1.0000
  C   C65       1.0  0.10211  0.34535  0.50990  1.0000
  C   C66       1.0  0.09654  0.36307  0.58973  1.0000
  H   H42       1.0  0.11389  0.33075  0.52827  1.0000
  H   H43       1.0  0.09758  0.38687  0.57707  1.0000
  H   H44       1.0  0.10389  0.35851  0.65530  1.0000
  C   C67       1.0  0.36462  0.25456  0.42344  1.0000
  C   C68       1.0  0.35038  0.25783  0.34236  1.0000
  C   C69       1.0  0.41242  0.25965  0.34601  1.0000
  N   N10       1.0  0.39371  0.25399  0.42096  1.0000
  C   C70       1.0  0.34668  0.24574  0.51002  1.0000
  C   C71       1.0  0.36456  0.26911  0.58958  1.0000
  C   C72       1.0  0.33391  0.26833  0.54766  1.0000
  H   H45       1.0  0.33223  0.21936  0.52859  1.0000
  H   H46       1.0  0.31097  0.25573  0.58709  1.0000
  H   H47       1.0  0.33915  0.29043  0.50863  1.0000
  H   H48       1.0  0.38827  0.29192  0.57650  1.0000
  H   H49       1.0  0.36024  0.25727  0.65518  1.0000
  C   C73       1.0  0.24956  0.11064  0.42340  1.0000
  C   C74       1.0  0.24609  0.09337  0.34171  1.0000
  C   C75       1.0  0.24442  0.15373  0.34803  1.0000
  N   N11       1.0  0.25020  0.14033  0.42207  1.0000
  C   C76       1.0  0.25851  0.10126  0.50939  1.0000
  C   C77       1.0  0.23534  0.09568  0.58951  1.0000
  C   C78       1.0  0.23587  0.06583  0.54659  1.0000
  H   H50       1.0  0.28492  0.11303  0.52750  1.0000
  H   H51       1.0  0.24846  0.05531  0.58529  1.0000
  H   H52       1.0  0.21366  0.04914  0.50772  1.0000
  H   H53       1.0  0.21256  0.09672  0.57719  1.0000
  H   H54       1.0  0.24733  0.10301  0.65497  1.0000
  C   C79       1.0  0.39302  0.13971  0.42217  1.0000
  C   C80       1.0  0.41039  0.15359  0.34060  1.0000
  C   C81       1.0  0.35027  0.09157  0.34637  1.0000
  N   N12       1.0  0.36340  0.11057  0.42073  1.0000
  C   C82       1.0  0.40241  0.15798  0.50827  1.0000
  C   C83       1.0  0.40788  0.14032  0.58838  1.0000
  C   C84       1.0  0.43781  0.17065  0.54554  1.0000
  H   H55       1.0  0.39073  0.17271  0.52634  1.0000
  H   H56       1.0  0.44839  0.19376  0.58429  1.0000
  H   H57       1.0  0.45445  0.16506  0.50672  1.0000
  H   H58       1.0  0.40675  0.11645  0.57603  1.0000
  H   H59       1.0  0.40056  0.14500  0.65384  1.0000
  C   C85       1.0  0.48421  0.74240  0.31965  1.0000
  C   C86       1.0  0.42949  0.68888  0.33070  1.0000
  C   C87       1.0  0.46422  0.70655  0.31113  1.0000
  O   O14       1.0  0.47651  0.68696  0.28112  1.0000
  H   H60       1.0  0.98083  0.69164  0.21684  1.0000
  H   H61       1.0  0.52397  0.81152  0.21693  1.0000
  H   H62       1.0  0.37116  0.68741  0.28231  1.0000
  H   H63       1.0  0.13357  0.81598  0.28540  1.0000
  C   C88       1.0  0.26149  0.74263  0.32007  1.0000
  C   C89       1.0  0.31506  0.74160  0.33296  1.0000
  C   C90       1.0  0.29735  0.75851  0.31189  1.0000
  C   C91       1.0  0.24310  0.76047  0.31958  1.0000
  C   C92       1.0  0.20725  0.74459  0.31107  1.0000
  C   C93       1.0  0.18957  0.76163  0.33074  1.0000
  O   O15       1.0  0.31691  0.79030  0.28114  1.0000
  O   O16       1.0  0.18766  0.71270  0.28105  1.0000
  H   H64       1.0  0.31216  0.78972  0.21684  1.0000
  H   H65       1.0  0.19236  0.71307  0.21678  1.0000
  H   H66       1.0  0.31661  0.68465  0.28667  1.0000
  H   H67       1.0  0.18800  0.81850  0.28322  1.0000
  C   C94       1.0  0.26126  0.51971  0.31951  1.0000
  C   C95       1.0  0.26236  0.57435  0.33150  1.0000
  C   C96       1.0  0.24536  0.53967  0.31128  1.0000
  C   C97       1.0  0.24340  0.98347  0.31982  1.0000
  C   C98       1.0  0.25927  0.96350  0.31159  1.0000
  C   C99       1.0  0.24234  0.92886  0.33238  1.0000
  O   O17       1.0  0.21350  0.52740  0.28110  1.0000
  O   O18       1.0  0.29108  0.97573  0.28092  1.0000
  H   H68       1.0  0.21391  0.02312  0.21681  1.0000
  H   H69       1.0  0.29052  0.47991  0.21661  1.0000
  H   H70       1.0  0.31917  0.63280  0.28388  1.0000
  H   H71       1.0  0.18542  0.87037  0.28584  1.0000
  C   C100      1.0  0.13423  0.73917  0.26422  1.0000
  N   N13       1.0  0.10536  0.74026  0.26947  1.0000
  H   H72       1.0  0.14366  0.73978  0.20195  1.0000
  C   C101      1.0  0.26496  0.89638  0.26443  1.0000
  N   N14       1.0  0.26376  0.86636  0.26868  1.0000
  H   H73       1.0  0.26438  0.90546  0.20249  1.0000
  C   C102      1.0  0.10777  0.86961  0.26497  1.0000
  N   N15       1.0  0.13769  0.89850  0.26976  1.0000
  H   H74       1.0  0.09861  0.86021  0.20286  1.0000
  C   C103      1.0  0.37006  0.76407  0.26457  1.0000
  N   N16       1.0  0.39899  0.76309  0.26848  1.0000
  H   H75       1.0  0.36042  0.76372  0.20274  1.0000
  C   C104      1.0  0.23965  0.60709  0.26487  1.0000
  N   N17       1.0  0.24067  0.63701  0.27001  1.0000
  H   H76       1.0  0.23982  0.59799  0.20264  1.0000
  C   C105      1.0  0.39676  0.63352  0.26351  1.0000
  N   N18       1.0  0.36688  0.60458  0.26830  1.0000
  H   H77       1.0  0.40594  0.64297  0.20148  1.0000
  C   C106      1.0  0.46557  0.75909  0.33474  1.0000
  C   C107      1.0  0.43044  0.74247  0.34058  1.0000
  C   C108      1.0  0.41274  0.70724  0.34096  1.0000
  H   H78       1.0  0.47721  0.78397  0.34802  1.0000
  O   O19       1.0  0.37864  0.69067  0.34494  1.0000
  C   C109      1.0  0.09183  0.79598  0.34315  1.0000
  O   O20       1.0  0.12591  0.81258  0.34787  1.0000
  C   C110      1.0  0.24482  0.70731  0.33532  1.0000
  C   C111      1.0  0.26150  0.68891  0.34290  1.0000
  C   C112      1.0  0.29673  0.70654  0.34435  1.0000
  H   H79       1.0  0.21989  0.69401  0.34776  1.0000
  O   O21       1.0  0.31336  0.68908  0.34912  1.0000
  C   C113      1.0  0.20790  0.79672  0.34133  1.0000
  C   C114      1.0  0.24313  0.81429  0.34056  1.0000
  C   C115      1.0  0.25978  0.79581  0.33453  1.0000
  O   O22       1.0  0.19128  0.81419  0.34575  1.0000
  H   H80       1.0  0.28466  0.80907  0.34765  1.0000
  C   C116      1.0  0.29661  0.53838  0.33431  1.0000
  C   C117      1.0  0.31506  0.57350  0.34099  1.0000
  C   C118      1.0  0.29745  0.59113  0.34205  1.0000
  H   H81       1.0  0.30988  0.52676  0.34733  1.0000
  O   O23       1.0  0.31492  0.62522  0.34642  1.0000
  C   C119      1.0  0.20727  0.91211  0.34361  1.0000
  C   C120      1.0  0.18965  0.92973  0.34231  1.0000
  C   C121      1.0  0.20808  0.96483  0.33509  1.0000
  O   O24       1.0  0.18981  0.87803  0.34831  1.0000
  H   H82       1.0  0.19479  0.97646  0.34769  1.0000
  C   C122      1.0  0.14040  0.74867  0.42294  1.0000
  C   C123      1.0  0.15430  0.74535  0.34123  1.0000
  C   C124      1.0  0.09226  0.74364  0.34774  1.0000
  N   N19       1.0  0.11132  0.74925  0.42183  1.0000
  C   C125      1.0  0.15873  0.75741  0.50893  1.0000
  C   C126      1.0  0.14110  0.73418  0.58891  1.0000
  C   C127      1.0  0.17136  0.73458  0.54566  1.0000
  H   H83       1.0  0.17353  0.78379  0.52720  1.0000
  H   H84       1.0  0.19450  0.74702  0.58428  1.0000
  H   H85       1.0  0.16569  0.71238  0.50655  1.0000
  H   H86       1.0  0.11719  0.71150  0.57652  1.0000
  H   H87       1.0  0.14585  0.74611  0.65448  1.0000
  C   C128      1.0  0.25527  0.89236  0.42328  1.0000
  C   C129      1.0  0.25859  0.90979  0.34206  1.0000
  C   C130      1.0  0.26025  0.84946  0.34624  1.0000
  N   N20       1.0  0.25464  0.86267  0.42094  1.0000
  C   C131      1.0  0.24646  0.90155  0.50976  1.0000
  C   C132      1.0  0.26979  0.90704  0.58940  1.0000
  C   C133      1.0  0.26911  0.93693  0.54725  1.0000
  H   H88       1.0  0.22008  0.88970  0.52824  1.0000
  H   H89       1.0  0.25655  0.94734  0.58654  1.0000
  H   H90       1.0  0.29123  0.95372  0.50823  1.0000
  H   H91       1.0  0.29258  0.90607  0.57645  1.0000
  H   H92       1.0  0.25793  0.89958  0.65499  1.0000
  C   C134      1.0  0.11145  0.86354  0.42369  1.0000
  C   C135      1.0  0.09414  0.84962  0.34214  1.0000
  C   C136      1.0  0.15447  0.91164  0.34763  1.0000
  N   N21       1.0  0.14114  0.89260  0.42193  1.0000
  C   C137      1.0  0.10211  0.84535  0.50990  1.0000
  C   C138      1.0  0.09654  0.86307  0.58973  1.0000
  H   H93       1.0  0.11389  0.83075  0.52827  1.0000
  H   H94       1.0  0.09758  0.88687  0.57707  1.0000
  H   H95       1.0  0.10389  0.85851  0.65530  1.0000
  C   C139      1.0  0.36462  0.75456  0.42344  1.0000
  C   C140      1.0  0.35038  0.75784  0.34236  1.0000
  C   C141      1.0  0.41242  0.75965  0.34601  1.0000
  N   N22       1.0  0.39371  0.75399  0.42096  1.0000
  C   C142      1.0  0.34668  0.74574  0.51002  1.0000
  C   C143      1.0  0.36456  0.76911  0.58958  1.0000
  C   C144      1.0  0.33391  0.76833  0.54766  1.0000
  H   H96       1.0  0.33223  0.71936  0.52859  1.0000
  H   H97       1.0  0.31097  0.75573  0.58709  1.0000
  H   H98       1.0  0.33915  0.79043  0.50863  1.0000
  H   H99       1.0  0.38827  0.79192  0.57650  1.0000
  H   H100      1.0  0.36024  0.75726  0.65518  1.0000
  C   C145      1.0  0.24956  0.61064  0.42340  1.0000
  C   C146      1.0  0.24609  0.59337  0.34171  1.0000
  C   C147      1.0  0.24442  0.65373  0.34803  1.0000
  N   N23       1.0  0.25021  0.64033  0.42207  1.0000
  C   C148      1.0  0.25851  0.60126  0.50939  1.0000
  C   C149      1.0  0.23534  0.59568  0.58951  1.0000
  C   C150      1.0  0.23587  0.56583  0.54659  1.0000
  H   H101      1.0  0.28492  0.61303  0.52749  1.0000
  H   H102      1.0  0.24846  0.55531  0.58529  1.0000
  H   H103      1.0  0.21366  0.54914  0.50772  1.0000
  H   H104      1.0  0.21256  0.59672  0.57719  1.0000
  H   H105      1.0  0.24733  0.60301  0.65497  1.0000
  C   C151      1.0  0.39302  0.63971  0.42217  1.0000
  C   C152      1.0  0.41039  0.65359  0.34060  1.0000
  C   C153      1.0  0.35027  0.59157  0.34637  1.0000
  N   N24       1.0  0.36340  0.61057  0.42073  1.0000
  C   C154      1.0  0.40241  0.65798  0.50827  1.0000
  C   C155      1.0  0.40788  0.64032  0.58838  1.0000
  C   C156      1.0  0.43780  0.67065  0.54554  1.0000
  H   H106      1.0  0.39073  0.67271  0.52634  1.0000
  H   H107      1.0  0.44839  0.69376  0.58429  1.0000
  H   H108      1.0  0.45445  0.66506  0.50672  1.0000
  H   H109      1.0  0.40675  0.61645  0.57603  1.0000
  H   H110      1.0  0.40056  0.64500  0.65384  1.0000
  C   C157      1.0  0.98421  0.24240  0.31965  1.0000
  C   C158      1.0  0.92949  0.18888  0.33070  1.0000
  C   C159      1.0  0.96422  0.20655  0.31113  1.0000
  C   C160      1.0  0.52045  0.26078  0.31985  1.0000
  C   C161      1.0  0.54043  0.29663  0.31169  1.0000
  C   C162      1.0  0.57508  0.31432  0.33220  1.0000
  O   O25       1.0  0.97651  0.18696  0.28112  1.0000
  O   O26       1.0  0.52818  0.31622  0.28124  1.0000
  H   H111      1.0  0.48083  0.19164  0.21684  1.0000
  H   H112      1.0  0.87116  0.18741  0.28231  1.0000
  H   H113      1.0  0.63357  0.31598  0.28540  1.0000
  C   C163      1.0  0.76149  0.24263  0.32007  1.0000
  C   C164      1.0  0.81506  0.24160  0.33296  1.0000
  C   C165      1.0  0.79735  0.25851  0.31189  1.0000
  C   C166      1.0  0.74310  0.26047  0.31958  1.0000
  C   C167      1.0  0.70725  0.24459  0.31107  1.0000
  C   C168      1.0  0.68957  0.26163  0.33074  1.0000
  O   O27       1.0  0.81691  0.29030  0.28114  1.0000
  O   O28       1.0  0.68766  0.21270  0.28105  1.0000
  H   H114      1.0  0.81216  0.28972  0.21684  1.0000
  H   H115      1.0  0.69236  0.21307  0.21678  1.0000
  H   H116      1.0  0.81661  0.18465  0.28667  1.0000
  H   H117      1.0  0.68800  0.31850  0.28322  1.0000
  C   C169      1.0  0.76125  0.01971  0.31951  1.0000
  C   C170      1.0  0.76236  0.07435  0.33150  1.0000
  C   C171      1.0  0.74536  0.03968  0.31128  1.0000
  C   C172      1.0  0.74340  0.48347  0.31982  1.0000
  C   C173      1.0  0.75928  0.46350  0.31159  1.0000
  C   C174      1.0  0.74234  0.42886  0.33238  1.0000
  O   O29       1.0  0.71350  0.02740  0.28110  1.0000
  O   O30       1.0  0.79108  0.47573  0.28092  1.0000
  H   H118      1.0  0.71391  0.52312  0.21681  1.0000
  H   H119      1.0  0.79052  0.97991  0.21661  1.0000
  H   H120      1.0  0.81917  0.13280  0.28388  1.0000
  H   H121      1.0  0.68542  0.37037  0.28584  1.0000
  C   C175      1.0  0.63423  0.23917  0.26422  1.0000
  N   N25       1.0  0.60536  0.24025  0.26947  1.0000
  H   H122      1.0  0.64366  0.23978  0.20195  1.0000
  C   C176      1.0  0.76496  0.39638  0.26443  1.0000
  N   N26       1.0  0.76377  0.36636  0.26868  1.0000
  H   H123      1.0  0.76438  0.40546  0.20249  1.0000
  C   C177      1.0  0.60777  0.36961  0.26497  1.0000
  N   N27       1.0  0.63769  0.39850  0.26976  1.0000
  H   H124      1.0  0.59861  0.36021  0.20286  1.0000
  C   C178      1.0  0.87006  0.26407  0.26457  1.0000
  N   N28       1.0  0.89899  0.26309  0.26848  1.0000
  H   H125      1.0  0.86042  0.26372  0.20274  1.0000
  C   C179      1.0  0.73965  0.10710  0.26487  1.0000
  N   N29       1.0  0.74067  0.13700  0.27001  1.0000
  H   H126      1.0  0.73982  0.09799  0.20264  1.0000
  C   C180      1.0  0.89676  0.13352  0.26351  1.0000
  N   N30       1.0  0.86688  0.10458  0.26830  1.0000
  H   H127      1.0  0.90594  0.14297  0.20148  1.0000
  C   C181      1.0  0.96557  0.25909  0.33474  1.0000
  C   C182      1.0  0.93044  0.24247  0.34058  1.0000
  C   C183      1.0  0.91274  0.20724  0.34096  1.0000
  H   H128      1.0  0.97721  0.28397  0.34802  1.0000
  O   O31       1.0  0.87864  0.19067  0.34494  1.0000
  C   C184      1.0  0.59183  0.29598  0.34315  1.0000
  C   C185      1.0  0.57420  0.26075  0.34180  1.0000
  C   C186      1.0  0.53909  0.24408  0.33491  1.0000
  O   O32       1.0  0.62591  0.31258  0.34787  1.0000
  H   H129      1.0  0.52746  0.21920  0.34791  1.0000
  C   C187      1.0  0.74482  0.20731  0.33532  1.0000
  C   C188      1.0  0.76150  0.18891  0.34290  1.0000
  C   C189      1.0  0.79673  0.20654  0.34436  1.0000
  H   H130      1.0  0.71989  0.19401  0.34776  1.0000
  O   O33       1.0  0.81336  0.18908  0.34912  1.0000
  C   C190      1.0  0.70790  0.29672  0.34133  1.0000
  C   C191      1.0  0.74313  0.31429  0.34056  1.0000
  C   C192      1.0  0.75978  0.29581  0.33453  1.0000
  O   O34       1.0  0.69128  0.31419  0.34575  1.0000
  H   H131      1.0  0.78466  0.30907  0.34765  1.0000
  C   C193      1.0  0.79661  0.03838  0.33431  1.0000
  C   C194      1.0  0.81506  0.07350  0.34099  1.0000
  C   C195      1.0  0.79745  0.09113  0.34205  1.0000
  H   H132      1.0  0.80988  0.02676  0.34733  1.0000
  O   O35       1.0  0.81492  0.12522  0.34642  1.0000
  C   C196      1.0  0.70727  0.41212  0.34361  1.0000
  C   C197      1.0  0.68965  0.42973  0.34231  1.0000
  C   C198      1.0  0.70808  0.46483  0.33509  1.0000
  O   O36       1.0  0.68981  0.37803  0.34831  1.0000
  H   H133      1.0  0.69479  0.47646  0.34769  1.0000
  C   C199      1.0  0.64040  0.24867  0.42294  1.0000
  C   C200      1.0  0.65430  0.24536  0.34123  1.0000
  C   C201      1.0  0.59226  0.24363  0.34774  1.0000
  N   N31       1.0  0.61132  0.24925  0.42183  1.0000
  C   C202      1.0  0.65873  0.25741  0.50893  1.0000
  C   C203      1.0  0.64110  0.23418  0.58891  1.0000
  C   C204      1.0  0.67136  0.23458  0.54566  1.0000
  H   H134      1.0  0.67353  0.28380  0.52720  1.0000
  H   H135      1.0  0.69450  0.24702  0.58428  1.0000
  H   H136      1.0  0.66570  0.21238  0.50655  1.0000
  H   H137      1.0  0.61719  0.21150  0.57652  1.0000
  H   H138      1.0  0.64585  0.24610  0.65448  1.0000
  C   C205      1.0  0.75528  0.39236  0.42328  1.0000
  C   C206      1.0  0.75859  0.40979  0.34206  1.0000
  C   C207      1.0  0.76025  0.34946  0.34624  1.0000
  N   N32       1.0  0.75464  0.36267  0.42094  1.0000
  C   C208      1.0  0.74646  0.40155  0.50976  1.0000
  C   C209      1.0  0.76979  0.40704  0.58940  1.0000
  C   C210      1.0  0.76911  0.43693  0.54725  1.0000
  H   H139      1.0  0.72008  0.38970  0.52824  1.0000
  H   H140      1.0  0.75655  0.44734  0.58654  1.0000
  H   H141      1.0  0.79123  0.45372  0.50823  1.0000
  H   H142      1.0  0.79258  0.40607  0.57645  1.0000
  H   H143      1.0  0.75793  0.39958  0.65499  1.0000
  C   C211      1.0  0.61145  0.36354  0.42369  1.0000
  C   C212      1.0  0.59415  0.34962  0.34214  1.0000
  C   C213      1.0  0.65447  0.41164  0.34763  1.0000
  N   N33       1.0  0.64114  0.39260  0.42193  1.0000
  C   C214      1.0  0.60211  0.34535  0.50990  1.0000
  C   C215      1.0  0.59654  0.36307  0.58973  1.0000
  C   C216      1.0  0.56669  0.33261  0.54709  1.0000
  H   H144      1.0  0.61389  0.33075  0.52827  1.0000
  H   H145      1.0  0.55618  0.30956  0.58606  1.0000
  H   H146      1.0  0.54998  0.33806  0.50806  1.0000
  H   H147      1.0  0.59758  0.38687  0.57707  1.0000
  H   H148      1.0  0.60389  0.35851  0.65530  1.0000
  C   C217      1.0  0.86463  0.25456  0.42344  1.0000
  C   C218      1.0  0.85038  0.25783  0.34236  1.0000
  C   C219      1.0  0.91242  0.25965  0.34601  1.0000
  N   N34       1.0  0.89371  0.25399  0.42096  1.0000
  C   C220      1.0  0.84668  0.24574  0.51002  1.0000
  C   C221      1.0  0.86456  0.26911  0.58958  1.0000
  C   C222      1.0  0.83391  0.26833  0.54766  1.0000
  H   H149      1.0  0.83223  0.21936  0.52859  1.0000
  H   H150      1.0  0.81097  0.25573  0.58709  1.0000
  H   H151      1.0  0.83915  0.29043  0.50863  1.0000
  H   H152      1.0  0.88827  0.29192  0.57650  1.0000
  H   H153      1.0  0.86024  0.25727  0.65518  1.0000
  C   C223      1.0  0.74956  0.11064  0.42340  1.0000
  C   C224      1.0  0.74609  0.09337  0.34171  1.0000
  C   C225      1.0  0.74442  0.15373  0.34803  1.0000
  N   N35       1.0  0.75020  0.14033  0.42207  1.0000
  C   C226      1.0  0.75851  0.10126  0.50939  1.0000
  C   C227      1.0  0.73534  0.09568  0.58951  1.0000
  C   C228      1.0  0.73587  0.06583  0.54659  1.0000
  H   H154      1.0  0.78492  0.11303  0.52750  1.0000
  H   H155      1.0  0.74846  0.05531  0.58529  1.0000
  H   H156      1.0  0.71367  0.04914  0.50772  1.0000
  H   H157      1.0  0.71256  0.09672  0.57719  1.0000
  H   H158      1.0  0.74733  0.10301  0.65497  1.0000
  C   C229      1.0  0.89302  0.13971  0.42217  1.0000
  C   C230      1.0  0.91039  0.15359  0.34060  1.0000
  C   C231      1.0  0.85027  0.09157  0.34637  1.0000
  N   N36       1.0  0.86340  0.11057  0.42073  1.0000
  C   C232      1.0  0.90241  0.15798  0.50827  1.0000
  C   C233      1.0  0.90789  0.14032  0.58838  1.0000
  C   C234      1.0  0.93781  0.17065  0.54554  1.0000
  H   H159      1.0  0.89073  0.17271  0.52634  1.0000
  H   H160      1.0  0.94839  0.19376  0.58429  1.0000
  H   H161      1.0  0.95445  0.16506  0.50672  1.0000
  H   H162      1.0  0.90675  0.11645  0.57603  1.0000
  H   H163      1.0  0.90056  0.14500  0.65384  1.0000
  C   C235      1.0  0.98421  0.74240  0.31965  1.0000
  C   C236      1.0  0.92949  0.68888  0.33070  1.0000
  C   C237      1.0  0.96422  0.70655  0.31113  1.0000
  C   C238      1.0  0.52045  0.76078  0.31985  1.0000
  C   C239      1.0  0.54043  0.79663  0.31169  1.0000
  C   C240      1.0  0.57508  0.81432  0.33220  1.0000
  O   O37       1.0  0.97651  0.68696  0.28112  1.0000
  O   O38       1.0  0.52818  0.81622  0.28124  1.0000
  H   H164      1.0  0.48083  0.69164  0.21684  1.0000
  H   H165      1.0  0.87116  0.68741  0.28231  1.0000
  H   H166      1.0  0.63357  0.81598  0.28540  1.0000
  C   C241      1.0  0.76150  0.74263  0.32007  1.0000
  C   C242      1.0  0.81506  0.74160  0.33296  1.0000
  C   C243      1.0  0.79735  0.75851  0.31189  1.0000
  C   C244      1.0  0.74310  0.76047  0.31958  1.0000
  C   C245      1.0  0.70725  0.74459  0.31107  1.0000
  C   C246      1.0  0.68957  0.76163  0.33074  1.0000
  O   O39       1.0  0.81691  0.79030  0.28114  1.0000
  O   O40       1.0  0.68767  0.71270  0.28105  1.0000
  H   H167      1.0  0.81217  0.78972  0.21684  1.0000
  H   H168      1.0  0.69236  0.71307  0.21678  1.0000
  H   H169      1.0  0.81661  0.68465  0.28667  1.0000
  H   H170      1.0  0.68801  0.81850  0.28322  1.0000
  C   C247      1.0  0.76126  0.51971  0.31951  1.0000
  C   C248      1.0  0.76236  0.57435  0.33150  1.0000
  C   C249      1.0  0.74536  0.53967  0.31128  1.0000
  C   C250      1.0  0.74340  0.98347  0.31982  1.0000
  C   C251      1.0  0.75928  0.96350  0.31159  1.0000
  C   C252      1.0  0.74234  0.92886  0.33238  1.0000
  O   O41       1.0  0.71350  0.52740  0.28110  1.0000
  O   O42       1.0  0.79108  0.97573  0.28092  1.0000
  H   H171      1.0  0.71391  0.02312  0.21681  1.0000
  H   H172      1.0  0.79052  0.47991  0.21661  1.0000
  H   H173      1.0  0.81917  0.63280  0.28388  1.0000
  H   H174      1.0  0.68542  0.87037  0.28584  1.0000
  C   C253      1.0  0.63422  0.73917  0.26422  1.0000
  N   N37       1.0  0.60536  0.74026  0.26947  1.0000
  H   H175      1.0  0.64366  0.73978  0.20195  1.0000
  C   C254      1.0  0.76496  0.89638  0.26443  1.0000
  N   N38       1.0  0.76377  0.86636  0.26868  1.0000
  H   H176      1.0  0.76438  0.90546  0.20249  1.0000
  C   C255      1.0  0.60777  0.86961  0.26497  1.0000
  N   N39       1.0  0.63769  0.89850  0.26976  1.0000
  H   H177      1.0  0.59861  0.86021  0.20286  1.0000
  C   C256      1.0  0.87006  0.76407  0.26457  1.0000
  N   N40       1.0  0.89899  0.76309  0.26848  1.0000
  H   H178      1.0  0.86043  0.76372  0.20274  1.0000
  C   C257      1.0  0.73965  0.60709  0.26487  1.0000
  N   N41       1.0  0.74067  0.63701  0.27001  1.0000
  H   H179      1.0  0.73982  0.59799  0.20264  1.0000
  C   C258      1.0  0.89676  0.63352  0.26351  1.0000
  N   N42       1.0  0.86688  0.60458  0.26830  1.0000
  H   H180      1.0  0.90594  0.64297  0.20148  1.0000
  C   C259      1.0  0.96557  0.75909  0.33474  1.0000
  C   C260      1.0  0.93044  0.74247  0.34058  1.0000
  C   C261      1.0  0.91274  0.70724  0.34096  1.0000
  H   H181      1.0  0.97721  0.78397  0.34802  1.0000
  O   O43       1.0  0.87864  0.69067  0.34494  1.0000
  C   C262      1.0  0.59183  0.79598  0.34315  1.0000
  C   C263      1.0  0.57420  0.76075  0.34180  1.0000
  C   C264      1.0  0.53909  0.74408  0.33491  1.0000
  O   O44       1.0  0.62591  0.81258  0.34787  1.0000
  H   H182      1.0  0.52746  0.71920  0.34791  1.0000
  C   C265      1.0  0.74482  0.70731  0.33532  1.0000
  C   C266      1.0  0.76150  0.68891  0.34290  1.0000
  C   C267      1.0  0.79673  0.70654  0.34435  1.0000
  H   H183      1.0  0.71989  0.69401  0.34776  1.0000
  O   O45       1.0  0.81336  0.68908  0.34912  1.0000
  C   C268      1.0  0.70790  0.79672  0.34133  1.0000
  C   C269      1.0  0.74313  0.81429  0.34056  1.0000
  C   C270      1.0  0.75978  0.79581  0.33453  1.0000
  O   O46       1.0  0.69128  0.81419  0.34575  1.0000
  H   H184      1.0  0.78466  0.80907  0.34765  1.0000
  C   C271      1.0  0.79661  0.53838  0.33431  1.0000
  C   C272      1.0  0.81506  0.57350  0.34099  1.0000
  C   C273      1.0  0.79745  0.59113  0.34205  1.0000
  H   H185      1.0  0.80988  0.52676  0.34733  1.0000
  O   O47       1.0  0.81492  0.62522  0.34642  1.0000
  C   C274      1.0  0.70727  0.91211  0.34361  1.0000
  C   C275      1.0  0.68965  0.92973  0.34231  1.0000
  C   C276      1.0  0.70808  0.96483  0.33509  1.0000
  O   O48       1.0  0.68981  0.87803  0.34831  1.0000
  H   H186      1.0  0.69479  0.97646  0.34769  1.0000
  C   C277      1.0  0.64040  0.74867  0.42294  1.0000
  C   C278      1.0  0.65430  0.74535  0.34123  1.0000
  C   C279      1.0  0.59226  0.74364  0.34774  1.0000
  N   N43       1.0  0.61132  0.74925  0.42183  1.0000
  C   C280      1.0  0.65873  0.75741  0.50893  1.0000
  C   C281      1.0  0.64110  0.73418  0.58891  1.0000
  C   C282      1.0  0.67136  0.73458  0.54566  1.0000
  H   H187      1.0  0.67353  0.78379  0.52720  1.0000
  H   H188      1.0  0.69450  0.74702  0.58428  1.0000
  H   H189      1.0  0.66570  0.71238  0.50655  1.0000
  H   H190      1.0  0.61719  0.71150  0.57652  1.0000
  H   H191      1.0  0.64585  0.74611  0.65448  1.0000
  C   C283      1.0  0.75528  0.89236  0.42328  1.0000
  C   C284      1.0  0.75859  0.90979  0.34206  1.0000
  C   C285      1.0  0.76025  0.84946  0.34624  1.0000
  N   N44       1.0  0.75465  0.86267  0.42094  1.0000
  C   C286      1.0  0.74646  0.90155  0.50976  1.0000
  C   C287      1.0  0.76979  0.90704  0.58940  1.0000
  C   C288      1.0  0.76911  0.93693  0.54725  1.0000
  H   H192      1.0  0.72008  0.88970  0.52824  1.0000
  H   H193      1.0  0.75655  0.94734  0.58654  1.0000
  H   H194      1.0  0.79123  0.95372  0.50823  1.0000
  H   H195      1.0  0.79258  0.90607  0.57645  1.0000
  H   H196      1.0  0.75793  0.89958  0.65499  1.0000
  C   C289      1.0  0.61146  0.86354  0.42369  1.0000
  C   C290      1.0  0.59415  0.84962  0.34214  1.0000
  C   C291      1.0  0.65447  0.91164  0.34763  1.0000
  N   N45       1.0  0.64114  0.89260  0.42193  1.0000
  C   C292      1.0  0.60211  0.84535  0.50990  1.0000
  C   C293      1.0  0.59654  0.86307  0.58973  1.0000
  C   C294      1.0  0.56669  0.83261  0.54709  1.0000
  H   H197      1.0  0.61389  0.83075  0.52827  1.0000
  H   H198      1.0  0.55618  0.80956  0.58606  1.0000
  H   H199      1.0  0.54998  0.83806  0.50806  1.0000
  H   H200      1.0  0.59758  0.88687  0.57707  1.0000
  H   H201      1.0  0.60389  0.85851  0.65530  1.0000
  C   C295      1.0  0.86463  0.75456  0.42344  1.0000
  C   C296      1.0  0.85038  0.75784  0.34236  1.0000
  C   C297      1.0  0.91242  0.75965  0.34601  1.0000
  N   N46       1.0  0.89371  0.75399  0.42096  1.0000
  C   C298      1.0  0.84668  0.74574  0.51002  1.0000
  C   C299      1.0  0.86456  0.76911  0.58958  1.0000
  C   C300      1.0  0.83391  0.76833  0.54766  1.0000
  H   H202      1.0  0.83223  0.71936  0.52859  1.0000
  H   H203      1.0  0.81097  0.75573  0.58709  1.0000
  H   H204      1.0  0.83916  0.79043  0.50863  1.0000
  H   H205      1.0  0.88827  0.79192  0.57650  1.0000
  H   H206      1.0  0.86024  0.75726  0.65518  1.0000
  C   C301      1.0  0.74956  0.61064  0.42340  1.0000
  C   C302      1.0  0.74609  0.59337  0.34171  1.0000
  C   C303      1.0  0.74442  0.65373  0.34803  1.0000
  N   N47       1.0  0.75021  0.64033  0.42207  1.0000
  C   C304      1.0  0.75851  0.60126  0.50939  1.0000
  C   C305      1.0  0.73534  0.59568  0.58951  1.0000
  C   C306      1.0  0.73587  0.56583  0.54659  1.0000
  H   H207      1.0  0.78492  0.61303  0.52749  1.0000
  H   H208      1.0  0.74847  0.55531  0.58529  1.0000
  H   H209      1.0  0.71367  0.54914  0.50772  1.0000
  H   H210      1.0  0.71256  0.59672  0.57719  1.0000
  H   H211      1.0  0.74733  0.60301  0.65497  1.0000
  C   C307      1.0  0.89302  0.63971  0.42217  1.0000
  C   C308      1.0  0.91039  0.65359  0.34060  1.0000
  C   C309      1.0  0.85027  0.59157  0.34637  1.0000
  N   N48       1.0  0.86340  0.61057  0.42073  1.0000
  C   C310      1.0  0.90241  0.65798  0.50827  1.0000
  C   C311      1.0  0.90788  0.64032  0.58838  1.0000
  C   C312      1.0  0.93781  0.67065  0.54554  1.0000
  H   H212      1.0  0.89073  0.67271  0.52634  1.0000
  H   H213      1.0  0.94839  0.69376  0.58429  1.0000
  H   H214      1.0  0.95445  0.66506  0.50672  1.0000
  H   H215      1.0  0.90675  0.61645  0.57603  1.0000
  H   H216      1.0  0.90057  0.64500  0.65384  1.0000
