data_image0
_chemical_formula_structural       C3NC3NC5NC5NC36H26N4C3NC3NC5NC5NC36H26N4C3NC3NC5NC5NC36H26N4CN2CHCN2CHCN2CHCN2CHCN2CHCN2CHC16H16C16H16C16H16C3HC2H3OCHC3HC2H3OCHC3HC2H3OCHC3HC2H3OCHC3HC2H3OCHC3HC2H3OCH
_chemical_formula_sum              "C252 N36 H162 O6"
_cell_length_a       67.5358
_cell_length_b       67.5357
_cell_length_c       14.8924
_cell_angle_alpha    89.8352
_cell_angle_beta     90.1648
_cell_angle_gamma    120

_space_group_name_H-M_alt    "P 1"
_space_group_IT_number       1

loop_
  _space_group_symop_operation_xyz
  'x, y, z'

loop_
  _atom_site_type_symbol
  _atom_site_label
  _atom_site_symmetry_multiplicity
  _atom_site_fract_x
  _atom_site_fract_y
  _atom_site_fract_z
  _atom_site_occupancy
  C   C1        1.0  0.02547  0.62251  0.32101  1.0000
  C   C2        1.0  0.04910  0.63442  0.32294  1.0000
  C   C3        1.0  0.05676  0.61867  0.31847  1.0000
  N   N1        1.0  0.03748  0.59785  0.31477  1.0000
  C   C4        1.0  0.01807  0.59917  0.31640  1.0000
  C   C5        1.0  0.99478  0.58135  0.31369  1.0000
  C   C6        1.0  0.98747  0.55761  0.31323  1.0000
  N   N2        1.0  0.00044  0.54750  0.31624  1.0000
  C   C7        1.0  0.98759  0.52440  0.31616  1.0000
  C   C8        1.0  0.96487  0.51939  0.31258  1.0000
  C   C9        1.0  0.96479  0.53978  0.31115  1.0000
  C   C10       1.0  0.99505  0.50809  0.31929  1.0000
  C   C11       1.0  0.01842  0.51380  0.31932  1.0000
  N   N3        1.0  0.03769  0.53462  0.31513  1.0000
  C   C12       1.0  0.05710  0.53330  0.31636  1.0000
  C   C13       1.0  0.04971  0.50996  0.32137  1.0000
  C   C14       1.0  0.02609  0.49806  0.32378  1.0000
  C   C15       1.0  0.08038  0.55111  0.31291  1.0000
  C   C16       1.0  0.08769  0.57486  0.31197  1.0000
  N   N4        1.0  0.07473  0.58496  0.31519  1.0000
  C   C17       1.0  0.08758  0.60806  0.31472  1.0000
  C   C18       1.0  0.11029  0.61306  0.31067  1.0000
  C   C19       1.0  0.11037  0.59268  0.30933  1.0000
  C   C20       1.0  0.08012  0.62437  0.31804  1.0000
  C   C21       1.0  0.09746  0.64799  0.32255  1.0000
  C   C22       1.0  0.13566  0.69363  0.32751  1.0000
  C   C23       1.0  0.12276  0.68452  0.24784  1.0000
  C   C24       1.0  0.10411  0.66198  0.24508  1.0000
  C   C25       1.0  0.15552  0.71596  0.32900  1.0000
  C   C26       1.0  0.15506  0.73521  0.29354  1.0000
  C   C27       1.0  0.17453  0.75725  0.29725  1.0000
  C   C28       1.0  0.19530  0.76062  0.33369  1.0000
  C   C29       1.0  0.09782  0.54499  0.31232  1.0000
  C   C30       1.0  0.13623  0.53780  0.31295  1.0000
  C   C31       1.0  0.12739  0.54124  0.23165  1.0000
  C   C32       1.0  0.10850  0.54475  0.23119  1.0000
  C   C33       1.0  0.15609  0.53525  0.31390  1.0000
  C   C34       1.0  0.19649  0.53118  0.32043  1.0000
  C   C35       1.0  0.19537  0.54749  0.26447  1.0000
  C   C36       1.0  0.17557  0.54949  0.26113  1.0000
  C   C37       1.0  0.97773  0.48446  0.32358  1.0000
  C   C38       1.0  0.97112  0.47059  0.24596  1.0000
  C   C39       1.0  0.95258  0.44799  0.24852  1.0000
  C   C40       1.0  0.93978  0.43864  0.32815  1.0000
  C   C41       1.0  0.92009  0.41617  0.32943  1.0000
  C   C42       1.0  0.88058  0.37122  0.33238  1.0000
  C   C43       1.0  0.90134  0.37509  0.29434  1.0000
  C   C44       1.0  0.92067  0.39723  0.29173  1.0000
  C   C45       1.0  0.97732  0.58745  0.31334  1.0000
  C   C46       1.0  0.96635  0.58750  0.23247  1.0000
  C   C47       1.0  0.93854  0.59403  0.31485  1.0000
  C   C48       1.0  0.94728  0.59071  0.23335  1.0000
  C   C49       1.0  0.91842  0.59612  0.31628  1.0000
  C   C50       1.0  0.89885  0.58145  0.26462  1.0000
  C   C51       1.0  0.87879  0.58296  0.26839  1.0000
  C   C52       1.0  0.87755  0.59932  0.32318  1.0000
  H   H1        1.0  0.86492  0.57180  0.23106  1.0000
  H   H2        1.0  0.89875  0.56898  0.22547  1.0000
  H   H3        1.0  0.93970  0.59043  0.17346  1.0000
  H   H4        1.0  0.97177  0.58451  0.17257  1.0000
  H   H5        1.0  0.01551  0.62995  0.32342  1.0000
  H   H6        1.0  0.05889  0.65181  0.32662  1.0000
  H   H7        1.0  0.03755  0.58373  0.30970  1.0000
  H   H8        1.0  0.03761  0.54874  0.30986  1.0000
  H   H9        1.0  0.95035  0.54105  0.30908  1.0000
  H   H10       1.0  0.95049  0.50363  0.31107  1.0000
  H   H11       1.0  0.97939  0.47708  0.18639  1.0000
  H   H12       1.0  0.94787  0.43873  0.19029  1.0000
  H   H13       1.0  0.01631  0.48066  0.32777  1.0000
  H   H14       1.0  0.05967  0.50252  0.32353  1.0000
  H   H15       1.0  0.12466  0.62883  0.30882  1.0000
  H   H16       1.0  0.12480  0.59140  0.30704  1.0000
  H   H17       1.0  0.10295  0.54772  0.17137  1.0000
  H   H18       1.0  0.13471  0.54131  0.17154  1.0000
  H   H19       1.0  0.17582  0.56201  0.22152  1.0000
  H   H20       1.0  0.20920  0.55838  0.22644  1.0000
  H   H21       1.0  0.09579  0.65562  0.18545  1.0000
  H   H22       1.0  0.12752  0.69387  0.18973  1.0000
  H   H23       1.0  0.17345  0.77087  0.27301  1.0000
  H   H24       1.0  0.14027  0.73347  0.26718  1.0000
  H   H25       1.0  0.93544  0.39927  0.26420  1.0000
  H   H26       1.0  0.90253  0.36175  0.26800  1.0000
  N   N5        1.0  0.21296  0.78183  0.34128  1.0000
  N   N6        1.0  0.85768  0.59922  0.32502  1.0000
  N   N7        1.0  0.86316  0.34976  0.33664  1.0000
  N   N8        1.0  0.21615  0.53081  0.32159  1.0000
  C   C53       1.0  0.47947  0.49454  0.32391  1.0000
  C   C54       1.0  0.46757  0.50627  0.32577  1.0000
  C   C55       1.0  0.48331  0.52967  0.32103  1.0000
  N   N9        1.0  0.50412  0.53121  0.31720  1.0000
  C   C56       1.0  0.50281  0.51049  0.31904  1.0000
  C   C57       1.0  0.52062  0.50502  0.31620  1.0000
  C   C58       1.0  0.54437  0.52145  0.31553  1.0000
  N   N10       1.0  0.55448  0.54452  0.31855  1.0000
  C   C59       1.0  0.57758  0.55476  0.31828  1.0000
  C   C60       1.0  0.58258  0.53705  0.31460  1.0000
  C   C61       1.0  0.56220  0.51659  0.31328  1.0000
  C   C62       1.0  0.59390  0.57853  0.32139  1.0000
  C   C63       1.0  0.58819  0.59619  0.32154  1.0000
  N   N11       1.0  0.56737  0.59465  0.31736  1.0000
  C   C64       1.0  0.56869  0.61538  0.31867  1.0000
  C   C65       1.0  0.59204  0.63132  0.32370  1.0000
  C   C66       1.0  0.60394  0.61959  0.32610  1.0000
  C   C67       1.0  0.55089  0.62086  0.31516  1.0000
  C   C68       1.0  0.52714  0.60442  0.31417  1.0000
  N   N12       1.0  0.51703  0.58135  0.31759  1.0000
  C   C69       1.0  0.49393  0.57111  0.31698  1.0000
  C   C70       1.0  0.48894  0.58883  0.31256  1.0000
  C   C71       1.0  0.50933  0.60928  0.31125  1.0000
  C   C72       1.0  0.47760  0.54734  0.32043  1.0000
  C   C73       1.0  0.45398  0.54106  0.32478  1.0000
  C   C74       1.0  0.40833  0.53364  0.32903  1.0000
  C   C75       1.0  0.41741  0.52968  0.24986  1.0000
  C   C76       1.0  0.43994  0.53353  0.24746  1.0000
  C   C77       1.0  0.38602  0.53120  0.33005  1.0000
  C   C78       1.0  0.36672  0.51137  0.29582  1.0000
  C   C79       1.0  0.34470  0.50884  0.29915  1.0000
  C   C80       1.0  0.34138  0.52640  0.33382  1.0000
  C   C81       1.0  0.55702  0.64443  0.31456  1.0000
  C   C82       1.0  0.56421  0.69003  0.31520  1.0000
  C   C83       1.0  0.56076  0.67785  0.23390  1.0000
  C   C84       1.0  0.55727  0.65545  0.23343  1.0000
  C   C85       1.0  0.56674  0.71244  0.31616  1.0000
  C   C86       1.0  0.57079  0.75690  0.32266  1.0000
  C   C87       1.0  0.55448  0.73952  0.26670  1.0000
  C   C88       1.0  0.55249  0.71773  0.26344  1.0000
  C   C89       1.0  0.61753  0.58483  0.32552  1.0000
  C   C90       1.0  0.63136  0.59217  0.24780  1.0000
  C   C91       1.0  0.65395  0.59620  0.25019  1.0000
  C   C92       1.0  0.66334  0.59268  0.32978  1.0000
  C   C93       1.0  0.68582  0.59547  0.33091  1.0000
  C   C94       1.0  0.73077  0.60091  0.33345  1.0000
  C   C95       1.0  0.72687  0.61782  0.29536  1.0000
  C   C96       1.0  0.70473  0.61502  0.29302  1.0000
  C   C97       1.0  0.51452  0.48145  0.31585  1.0000
  C   C98       1.0  0.51445  0.47054  0.23496  1.0000
  C   C99       1.0  0.50794  0.43610  0.31732  1.0000
  C   C100      1.0  0.51124  0.44825  0.23582  1.0000
  C   C101      1.0  0.50586  0.41388  0.31871  1.0000
  C   C102      1.0  0.52051  0.40904  0.26697  1.0000
  C   C103      1.0  0.51899  0.38747  0.27071  1.0000
  C   C104      1.0  0.50264  0.36980  0.32555  1.0000
  H   H27       1.0  0.53014  0.38480  0.23333  1.0000
  H   H28       1.0  0.53297  0.42146  0.22779  1.0000
  H   H29       1.0  0.51149  0.44102  0.17591  1.0000
  H   H30       1.0  0.51741  0.47901  0.17506  1.0000
  H   H31       1.0  0.47203  0.47714  0.32636  1.0000
  H   H32       1.0  0.45017  0.49866  0.32954  1.0000
  H   H33       1.0  0.51825  0.54541  0.31210  1.0000
  H   H34       1.0  0.55325  0.58046  0.31194  1.0000
  H   H35       1.0  0.56092  0.50088  0.31119  1.0000
  H   H36       1.0  0.59835  0.53844  0.31297  1.0000
  H   H37       1.0  0.62484  0.59401  0.18828  1.0000
  H   H38       1.0  0.66319  0.60083  0.19193  1.0000
  H   H39       1.0  0.62133  0.62720  0.33005  1.0000
  H   H40       1.0  0.59948  0.64872  0.32593  1.0000
  H   H41       1.0  0.47318  0.58745  0.31047  1.0000
  H   H42       1.0  0.51061  0.62500  0.30869  1.0000
  H   H43       1.0  0.55428  0.64700  0.17361  1.0000
  H   H44       1.0  0.56069  0.68517  0.17379  1.0000
  H   H45       1.0  0.53999  0.70551  0.22377  1.0000
  H   H46       1.0  0.54358  0.74250  0.22870  1.0000
  H   H47       1.0  0.44628  0.53144  0.18812  1.0000
  H   H48       1.0  0.40801  0.52491  0.19186  1.0000
  H   H49       1.0  0.33104  0.49405  0.27594  1.0000
  H   H50       1.0  0.36842  0.49820  0.27083  1.0000
  H   H51       1.0  0.70266  0.62776  0.26534  1.0000
  H   H52       1.0  0.74019  0.63237  0.26880  1.0000
  N   N13       1.0  0.32017  0.52285  0.34111  1.0000
  N   N14       1.0  0.50274  0.35003  0.32737  1.0000
  N   N15       1.0  0.75222  0.60494  0.33739  1.0000
  N   N16       1.0  0.57114  0.77691  0.32382  1.0000
  C   C105      1.0  0.60727  0.07637  0.32511  1.0000
  C   C106      1.0  0.59550  0.05274  0.32713  1.0000
  C   C107      1.0  0.57210  0.04513  0.32250  1.0000
  N   N17       1.0  0.57061  0.06444  0.31859  1.0000
  C   C108      1.0  0.59136  0.08382  0.32026  1.0000
  C   C109      1.0  0.59688  0.10712  0.31738  1.0000
  C   C110      1.0  0.58048  0.11448  0.31695  1.0000
  N   N18       1.0  0.55741  0.10154  0.32014  1.0000
  C   C111      1.0  0.54720  0.11443  0.32014  1.0000
  C   C112      1.0  0.56494  0.13714  0.31648  1.0000
  C   C113      1.0  0.58537  0.13717  0.31486  1.0000
  C   C114      1.0  0.52344  0.10701  0.32329  1.0000
  C   C115      1.0  0.50574  0.08366  0.32329  1.0000
  N   N19       1.0  0.50722  0.06435  0.31965  1.0000
  C   C116      1.0  0.48646  0.04497  0.32022  1.0000
  C   C117      1.0  0.47056  0.05243  0.32435  1.0000
  C   C118      1.0  0.48234  0.07606  0.32693  1.0000
  C   C119      1.0  0.48093  0.02168  0.31679  1.0000
  C   C120      1.0  0.49734  0.01433  0.31630  1.0000
  N   N20       1.0  0.52042  0.02725  0.31933  1.0000
  C   C121      1.0  0.53063  0.01437  0.31908  1.0000
  C   C122      1.0  0.51289  0.99166  0.31535  1.0000
  C   C123      1.0  0.49245  0.99164  0.31411  1.0000
  C   C124      1.0  0.55440  0.02176  0.32222  1.0000
  C   C125      1.0  0.56065  0.00439  0.32658  1.0000
  C   C126      1.0  0.56818  0.96622  0.33108  1.0000
  C   C127      1.0  0.57210  0.97932  0.25183  1.0000
  C   C128      1.0  0.56819  0.99797  0.24931  1.0000
  C   C129      1.0  0.57067  0.94637  0.33224  1.0000
  C   C130      1.0  0.59051  0.94697  0.29790  1.0000
  C   C131      1.0  0.59308  0.92749  0.30136  1.0000
  C   C132      1.0  0.57558  0.90659  0.33625  1.0000
  C   C133      1.0  0.45733  0.00426  0.31519  1.0000
  C   C134      1.0  0.41171  0.96584  0.31475  1.0000
  C   C135      1.0  0.42442  0.97411  0.23419  1.0000
  C   C136      1.0  0.44681  0.99300  0.23425  1.0000
  C   C137      1.0  0.38931  0.94592  0.31538  1.0000
  C   C138      1.0  0.34487  0.90544  0.32131  1.0000
  C   C139      1.0  0.36249  0.90642  0.26739  1.0000
  C   C140      1.0  0.38427  0.92623  0.26445  1.0000
  C   C141      1.0  0.51717  0.12436  0.32736  1.0000
  C   C142      1.0  0.50989  0.13098  0.24958  1.0000
  C   C143      1.0  0.50584  0.14953  0.25199  1.0000
  C   C144      1.0  0.50930  0.16229  0.33167  1.0000
  C   C145      1.0  0.50650  0.18196  0.33284  1.0000
  C   C146      1.0  0.50106  0.22146  0.33538  1.0000
  C   C147      1.0  0.48414  0.20069  0.29731  1.0000
  C   C148      1.0  0.48695  0.18137  0.29491  1.0000
  C   C149      1.0  0.62046  0.12456  0.31680  1.0000
  C   C150      1.0  0.63132  0.13547  0.23577  1.0000
  C   C151      1.0  0.66582  0.16337  0.31767  1.0000
  C   C152      1.0  0.65360  0.15456  0.23635  1.0000
  C   C153      1.0  0.68804  0.18352  0.31875  1.0000
  C   C154      1.0  0.69283  0.20303  0.26679  1.0000
  C   C155      1.0  0.71441  0.22310  0.27019  1.0000
  C   C156      1.0  0.73214  0.22440  0.32482  1.0000
  H   H53       1.0  0.71705  0.23692  0.23263  1.0000
  H   H54       1.0  0.68038  0.20309  0.22775  1.0000
  H   H55       1.0  0.66077  0.16210  0.17633  1.0000
  H   H56       1.0  0.62279  0.13002  0.17598  1.0000
  H   H57       1.0  0.62467  0.08630  0.32762  1.0000
  H   H58       1.0  0.60308  0.04293  0.33108  1.0000
  H   H59       1.0  0.55643  0.06440  0.31339  1.0000
  H   H60       1.0  0.52141  0.06439  0.31525  1.0000
  H   H61       1.0  0.60109  0.15159  0.31272  1.0000
  H   H62       1.0  0.56357  0.15153  0.31497  1.0000
  H   H63       1.0  0.50811  0.12274  0.19000  1.0000
  H   H64       1.0  0.50127  0.15425  0.19369  1.0000
  H   H65       1.0  0.47476  0.08587  0.33026  1.0000
  H   H66       1.0  0.45315  0.04252  0.32578  1.0000
  H   H67       1.0  0.51423  0.97727  0.31372  1.0000
  H   H68       1.0  0.47672  0.97721  0.31217  1.0000
  H   H69       1.0  0.45564  0.99809  0.17506  1.0000
  H   H70       1.0  0.41749  0.96635  0.17422  1.0000
  H   H71       1.0  0.39667  0.92585  0.22648  1.0000
  H   H72       1.0  0.35970  0.89245  0.23074  1.0000
  H   H73       1.0  0.57027  0.00645  0.18993  1.0000
  H   H74       1.0  0.57688  0.97477  0.19387  1.0000
  H   H75       1.0  0.60787  0.92867  0.27804  1.0000
  H   H76       1.0  0.60364  0.96186  0.27274  1.0000
  H   H77       1.0  0.47421  0.16660  0.26725  1.0000
  H   H78       1.0  0.46959  0.19951  0.27076  1.0000
  N   N21       1.0  0.57914  0.88892  0.34365  1.0000
  N   N22       1.0  0.75192  0.24427  0.32625  1.0000
  N   N23       1.0  0.49702  0.23887  0.33946  1.0000
  N   N24       1.0  0.32488  0.88577  0.32233  1.0000
  C   C157      1.0  0.28975  0.53023  0.34118  1.0000
  N   N25       1.0  0.27911  0.53651  0.27893  1.0000
  N   N26       1.0  0.25836  0.53313  0.28827  1.0000
  C   C158      1.0  0.31236  0.53643  0.32492  1.0000
  H   H79       1.0  0.32278  0.55203  0.30089  1.0000
  C   C159      1.0  0.57173  0.85109  0.34349  1.0000
  N   N27       1.0  0.56559  0.83434  0.28097  1.0000
  N   N28       1.0  0.56895  0.81694  0.29036  1.0000
  C   C160      1.0  0.56558  0.86756  0.32711  1.0000
  H   H80       1.0  0.55003  0.86244  0.30267  1.0000
  C   C161      1.0  0.25078  0.81217  0.34179  1.0000
  N   N29       1.0  0.26747  0.82291  0.27909  1.0000
  N   N30       1.0  0.28484  0.84367  0.28849  1.0000
  C   C162      1.0  0.23433  0.78959  0.32529  1.0000
  H   H81       1.0  0.23946  0.77915  0.30127  1.0000
  C   C163      1.0  0.78379  0.59919  0.34480  1.0000
  N   N31       1.0  0.79186  0.58708  0.30038  1.0000
  N   N32       1.0  0.81310  0.59162  0.30426  1.0000
  C   C164      1.0  0.76049  0.59139  0.33754  1.0000
  H   H82       1.0  0.74992  0.57464  0.33127  1.0000
  C   C165      1.0  0.50278  0.27617  0.34700  1.0000
  N   N33       1.0  0.51487  0.29640  0.30254  1.0000
  N   N34       1.0  0.51033  0.31309  0.30649  1.0000
  C   C166      1.0  0.51058  0.26068  0.33962  1.0000
  H   H83       1.0  0.52732  0.26687  0.33324  1.0000
  C   C167      1.0  0.82586  0.31819  0.34441  1.0000
  N   N35       1.0  0.80560  0.31006  0.30008  1.0000
  N   N36       1.0  0.78890  0.28882  0.30442  1.0000
  C   C168      1.0  0.84135  0.34148  0.33674  1.0000
  H   H84       1.0  0.83516  0.35204  0.33012  1.0000
  C   C169      1.0  0.10983  0.65722  0.40297  1.0000
  C   C170      1.0  0.12868  0.67962  0.40519  1.0000
  C   C171      1.0  0.19590  0.74149  0.36920  1.0000
  C   C172      1.0  0.17633  0.71955  0.36690  1.0000
  C   C173      1.0  0.10633  0.54134  0.39367  1.0000
  C   C174      1.0  0.12513  0.53768  0.39380  1.0000
  C   C175      1.0  0.15720  0.51873  0.36920  1.0000
  C   C176      1.0  0.17695  0.51667  0.37225  1.0000
  C   C177      1.0  0.94673  0.45256  0.40594  1.0000
  C   C178      1.0  0.96544  0.47504  0.40390  1.0000
  C   C179      1.0  0.89930  0.41210  0.36877  1.0000
  C   C180      1.0  0.87989  0.39004  0.37022  1.0000
  C   C181      1.0  0.96895  0.59105  0.39485  1.0000
  C   C182      1.0  0.94998  0.59443  0.39540  1.0000
  C   C183      1.0  0.89707  0.61408  0.37474  1.0000
  C   C184      1.0  0.91707  0.61247  0.37136  1.0000
  H   H85       1.0  0.89687  0.62597  0.41635  1.0000
  H   H86       1.0  0.93079  0.62356  0.40940  1.0000
  H   H87       1.0  0.94395  0.59615  0.45610  1.0000
  H   H88       1.0  0.97617  0.59052  0.45466  1.0000
  H   H89       1.0  0.96962  0.48474  0.46093  1.0000
  H   H90       1.0  0.93812  0.44646  0.46514  1.0000
  H   H91       1.0  0.09932  0.54199  0.45364  1.0000
  H   H92       1.0  0.13124  0.53588  0.45436  1.0000
  H   H93       1.0  0.17685  0.50445  0.41311  1.0000
  H   H94       1.0  0.14347  0.50781  0.40750  1.0000
  H   H95       1.0  0.17750  0.70613  0.39287  1.0000
  H   H96       1.0  0.21049  0.74349  0.39863  1.0000
  H   H97       1.0  0.13738  0.68557  0.46437  1.0000
  H   H98       1.0  0.10564  0.64742  0.45986  1.0000
  H   H99       1.0  0.89801  0.42528  0.39623  1.0000
  H   H100      1.0  0.86534  0.38777  0.40063  1.0000
  C   C185      1.0  0.44477  0.54436  0.40475  1.0000
  C   C186      1.0  0.42238  0.54083  0.40660  1.0000
  C   C187      1.0  0.36057  0.54624  0.36800  1.0000
  C   C188      1.0  0.38249  0.54858  0.36619  1.0000
  C   C189      1.0  0.56066  0.65649  0.39591  1.0000
  C   C190      1.0  0.56434  0.67895  0.39604  1.0000
  C   C191      1.0  0.58326  0.73001  0.37141  1.0000
  C   C192      1.0  0.58531  0.75181  0.37446  1.0000
  C   C193      1.0  0.64946  0.58564  0.40767  1.0000
  C   C194      1.0  0.62698  0.58188  0.40579  1.0000
  C   C195      1.0  0.68991  0.57873  0.37031  1.0000
  C   C196      1.0  0.71197  0.58136  0.37153  1.0000
  C   C197      1.0  0.51095  0.46939  0.39736  1.0000
  C   C198      1.0  0.50757  0.44704  0.39790  1.0000
  C   C199      1.0  0.48790  0.37451  0.37719  1.0000
  C   C200      1.0  0.48951  0.39612  0.37383  1.0000
  H   H101      1.0  0.47602  0.36237  0.41882  1.0000
  H   H102      1.0  0.47843  0.39870  0.41193  1.0000
  H   H103      1.0  0.50589  0.43922  0.45858  1.0000
  H   H104      1.0  0.51152  0.47707  0.45719  1.0000
  H   H105      1.0  0.61730  0.57629  0.46288  1.0000
  H   H106      1.0  0.65559  0.58307  0.46684  1.0000
  H   H107      1.0  0.56004  0.64876  0.45587  1.0000
  H   H108      1.0  0.56615  0.68679  0.45660  1.0000
  H   H109      1.0  0.59753  0.76389  0.41528  1.0000
  H   H110      1.0  0.59420  0.72716  0.40969  1.0000
  H   H111      1.0  0.39595  0.56325  0.39125  1.0000
  H   H112      1.0  0.35861  0.55895  0.39623  1.0000
  H   H113      1.0  0.41646  0.54372  0.46542  1.0000
  H   H114      1.0  0.45460  0.55010  0.46152  1.0000
  H   H115      1.0  0.67675  0.56423  0.39790  1.0000
  H   H116      1.0  0.71426  0.56907  0.40196  1.0000
  C   C201      1.0  0.55740  0.99182  0.40662  1.0000
  C   C202      1.0  0.56096  0.97298  0.40858  1.0000
  C   C203      1.0  0.55573  0.90586  0.37057  1.0000
  C   C204      1.0  0.55335  0.92543  0.36863  1.0000
  C   C205      1.0  0.44474  0.99639  0.39573  1.0000
  C   C206      1.0  0.42228  0.97760  0.39528  1.0000
  C   C207      1.0  0.37147  0.94495  0.36847  1.0000
  C   C208      1.0  0.34969  0.92517  0.37127  1.0000
  C   C209      1.0  0.51630  0.15532  0.40961  1.0000
  C   C210      1.0  0.52008  0.13662  0.40769  1.0000
  C   C211      1.0  0.52324  0.20274  0.37233  1.0000
  C   C212      1.0  0.52059  0.22215  0.37357  1.0000
  C   C213      1.0  0.63259  0.13301  0.39815  1.0000
  C   C214      1.0  0.65495  0.15198  0.39839  1.0000
  C   C215      1.0  0.72748  0.20493  0.37667  1.0000
  C   C216      1.0  0.70586  0.18492  0.37369  1.0000
  H   H117      1.0  0.73965  0.20517  0.41816  1.0000
  H   H118      1.0  0.70331  0.17124  0.41194  1.0000
  H   H119      1.0  0.66281  0.15807  0.45897  1.0000
  H   H120      1.0  0.62496  0.12584  0.45807  1.0000
  H   H121      1.0  0.52560  0.13241  0.46483  1.0000
  H   H122      1.0  0.51881  0.16391  0.46883  1.0000
  H   H123      1.0  0.45208  0.00385  0.45566  1.0000
  H   H124      1.0  0.41407  0.97194  0.45548  1.0000
  H   H125      1.0  0.33742  0.92539  0.41045  1.0000
  H   H126      1.0  0.37411  0.95883  0.40529  1.0000
  H   H127      1.0  0.53868  0.92416  0.39375  1.0000
  H   H128      1.0  0.54306  0.89117  0.39894  1.0000
  H   H129      1.0  0.55809  0.96411  0.46745  1.0000
  H   H130      1.0  0.55164  0.99583  0.46336  1.0000
  H   H131      1.0  0.53772  0.20403  0.39996  1.0000
  H   H132      1.0  0.53288  0.23669  0.40409  1.0000
  C   C217      1.0  0.24531  0.52310  0.36208  1.0000
  C   C218      1.0  0.25513  0.51623  0.43062  1.0000
  C   C219      1.0  0.27754  0.51973  0.42134  1.0000
  H   H133      1.0  0.24616  0.50924  0.48862  1.0000
  C   C220      1.0  0.28766  0.51445  0.49182  1.0000
  C   C221      1.0  0.27714  0.49142  0.52761  1.0000
  H   H134      1.0  0.26306  0.48814  0.57262  1.0000
  H   H135      1.0  0.28977  0.48914  0.56520  1.0000
  H   H136      1.0  0.27060  0.47886  0.47349  1.0000
  O   O1        1.0  0.29762  0.52991  0.54623  1.0000
  C   C222      1.0  0.22354  0.52020  0.37110  1.0000
  H   H137      1.0  0.21368  0.51018  0.42029  1.0000
  C   C223      1.0  0.57880  0.81372  0.36451  1.0000
  C   C224      1.0  0.58552  0.83024  0.43330  1.0000
  C   C225      1.0  0.58208  0.84919  0.42392  1.0000
  H   H138      1.0  0.59238  0.82811  0.49154  1.0000
  C   C226      1.0  0.58719  0.86442  0.49466  1.0000
  C   C227      1.0  0.61039  0.87711  0.52877  1.0000
  H   H139      1.0  0.61410  0.86636  0.57260  1.0000
  H   H140      1.0  0.61262  0.89183  0.56725  1.0000
  H   H141      1.0  0.62271  0.88345  0.47377  1.0000
  O   O2        1.0  0.57189  0.85861  0.54994  1.0000
  C   C228      1.0  0.58167  0.79482  0.37357  1.0000
  H   H142      1.0  0.59163  0.79488  0.42297  1.0000
  C   C229      1.0  0.28807  0.85660  0.36279  1.0000
  C   C230      1.0  0.27161  0.84666  0.43176  1.0000
  C   C231      1.0  0.25268  0.82426  0.42241  1.0000
  H   H143      1.0  0.27377  0.85554  0.49009  1.0000
  C   C232      1.0  0.23750  0.81397  0.49327  1.0000
  C   C233      1.0  0.22557  0.82482  0.53136  1.0000
  H   H144      1.0  0.23662  0.83831  0.57816  1.0000
  H   H145      1.0  0.21045  0.81216  0.56762  1.0000
  H   H146      1.0  0.21992  0.83218  0.47876  1.0000
  O   O3        1.0  0.24266  0.80325  0.54544  1.0000
  C   C234      1.0  0.30693  0.87838  0.37179  1.0000
  H   H147      1.0  0.30682  0.88822  0.42103  1.0000
  C   C235      1.0  0.82944  0.60902  0.35390  1.0000
  C   C236      1.0  0.82255  0.62246  0.40275  1.0000
  C   C237      1.0  0.79959  0.61768  0.39928  1.0000
  H   H148      1.0  0.83416  0.63548  0.44260  1.0000
  C   C238      1.0  0.79283  0.63020  0.45194  1.0000
  C   C239      1.0  0.78730  0.62361  0.54532  1.0000
  H   H149      1.0  0.77572  0.60520  0.55131  1.0000
  H   H150      1.0  0.77878  0.63221  0.57456  1.0000
  H   H151      1.0  0.80280  0.62826  0.58394  1.0000
  O   O4        1.0  0.80257  0.65081  0.43745  1.0000
  C   C240      1.0  0.85171  0.61305  0.35830  1.0000
  H   H152      1.0  0.86338  0.62704  0.38962  1.0000
  C   C241      1.0  0.49294  0.31196  0.35622  1.0000
  C   C242      1.0  0.47952  0.29157  0.40509  1.0000
  C   C243      1.0  0.48430  0.27340  0.40159  1.0000
  H   H153      1.0  0.46650  0.29011  0.44499  1.0000
  C   C244      1.0  0.47179  0.25404  0.45420  1.0000
  C   C245      1.0  0.47837  0.25498  0.54758  1.0000
  H   H154      1.0  0.49678  0.26181  0.55359  1.0000
  H   H155      1.0  0.46979  0.23782  0.57677  1.0000
  H   H156      1.0  0.47370  0.26576  0.58623  1.0000
  O   O5        1.0  0.45119  0.24319  0.43966  1.0000
  C   C246      1.0  0.48891  0.33020  0.36064  1.0000
  H   H157      1.0  0.47491  0.32782  0.39197  1.0000
  C   C247      1.0  0.79002  0.27256  0.35452  1.0000
  C   C248      1.0  0.81043  0.27951  0.40333  1.0000
  C   C249      1.0  0.82863  0.30245  0.39931  1.0000
  H   H158      1.0  0.81191  0.26795  0.44348  1.0000
  C   C250      1.0  0.84799  0.30929  0.45197  1.0000
  C   C251      1.0  0.84720  0.31459  0.54562  1.0000
  H   H159      1.0  0.84018  0.32597  0.55276  1.0000
  H   H160      1.0  0.86443  0.32323  0.57414  1.0000
  H   H161      1.0  0.83664  0.29897  0.58395  1.0000
  O   O6        1.0  0.85900  0.29984  0.43498  1.0000
  C   C252      1.0  0.77177  0.25029  0.35939  1.0000
  H   H162      1.0  0.77416  0.23866  0.39095  1.0000
