data_image0
_chemical_formula_structural       NC3O2HNC3O2HNC3O2HNC3O2HNC3O2HNC3O2HCNC2O2HCNC2O2HCNC2O2HCNC2O2HCNC2O2HCNC2O2HCNC2O2HCNC2O2HCNC2O2HCNC2O2HCNC2O2HCNC2O2HNC3O2HNC3O2HNC3O2HNC3O2HNC3O2HNC3O2HCNC2O2HCNC2O2HCNC2O2HCNC2O2HCNC2O2HCNC2O2HCNC2O2HCNC2O2HCNC2O2HCNC2O2HCNC2O2HCNC2O2HCNCNCNCNCNCNCNCNCNCNCNCNCNCNCNCNCNCNCNCNCNCNCNCNCNCNCNCNCNCNCNCNCNCNCNCNCNCNCNCNCNCNCNCNCNCNCNCNCNCNCNCNCNCNCNCNCNCNCNCNCNCNCNCNCNCNCNCNCNCNCNCNCNC2O2HCNC2O2HCNC2O2HCNC2O2HCNC2O2HCNC2O2HNC3O2HNC3O2HNC3O2HNC3O2HNC3O2HNC3O2HNC3O2HNC3O2HNC3O2HNC3O2HNC3O2HNC3O2HCNC2O2HCNC2O2HCNC2O2HCNC2O2HCNC2O2HCNC2O2HNC3O2HNC3O2HNC3O2HNC3O2HNC3O2HNC3O2HNC3O2HNC3O2HNC3O2HNC3O2HNC3O2HNC3O2H
_chemical_formula_sum              "N144 C288 O144 H72"
_cell_length_a       53.5311
_cell_length_b       53.5311
_cell_length_c       14.8689
_cell_angle_alpha    90
_cell_angle_beta     90
_cell_angle_gamma    120

_space_group_name_H-M_alt    "P 1"
_space_group_IT_number       1

loop_
  _space_group_symop_operation_xyz
  'x, y, z'

loop_
  _atom_site_type_symbol
  _atom_site_label
  _atom_site_symmetry_multiplicity
  _atom_site_fract_x
  _atom_site_fract_y
  _atom_site_fract_z
  _atom_site_occupancy
  N   N1        1.0  0.15852  0.44619  0.25725  1.0000
  C   C1        1.0  0.14719  0.41726  0.25087  1.0000
  C   C2        1.0  0.12170  0.39948  0.30059  1.0000
  C   C3        1.0  0.16178  0.40725  0.19805  1.0000
  O   O1        1.0  0.18815  0.42039  0.19865  1.0000
  O   O2        1.0  0.15069  0.39229  0.13043  1.0000
  H   H1        1.0  0.13207  0.38344  0.11724  1.0000
  N   N2        1.0  0.56513  0.71497  0.25725  1.0000
  C   C4        1.0  0.59404  0.73268  0.25071  1.0000
  C   C5        1.0  0.61197  0.72482  0.29887  1.0000
  C   C6        1.0  0.60386  0.75750  0.19907  1.0000
  O   O3        1.0  0.59063  0.77064  0.20129  1.0000
  O   O4        1.0  0.61866  0.76170  0.13086  1.0000
  H   H2        1.0  0.62755  0.75205  0.11651  1.0000
  N   N3        1.0  0.29704  0.85314  0.25435  1.0000
  C   C7        1.0  0.27929  0.86430  0.24804  1.0000
  C   C8        1.0  0.28680  0.88970  0.29801  1.0000
  C   C9        1.0  0.25467  0.84953  0.19535  1.0000
  O   O5        1.0  0.24170  0.82316  0.19623  1.0000
  O   O6        1.0  0.25054  0.86064  0.12829  1.0000
  H   H3        1.0  0.26015  0.87928  0.11531  1.0000
  N   N4        1.0  0.85518  0.56276  0.25479  1.0000
  C   C10       1.0  0.86635  0.59167  0.24855  1.0000
  C   C11       1.0  0.89182  0.60954  0.29821  1.0000
  C   C12       1.0  0.85158  0.60156  0.19614  1.0000
  O   O7        1.0  0.82521  0.58829  0.19702  1.0000
  O   O8        1.0  0.86253  0.61662  0.12859  1.0000
  H   H4        1.0  0.88114  0.62558  0.11521  1.0000
  N   N5        1.0  0.44823  0.29423  0.25697  1.0000
  C   C13       1.0  0.41930  0.27665  0.25058  1.0000
  C   C14       1.0  0.40153  0.28434  0.30047  1.0000
  C   C15       1.0  0.40927  0.25209  0.19759  1.0000
  O   O9        1.0  0.42241  0.23885  0.19794  1.0000
  O   O10       1.0  0.39428  0.24825  0.13008  1.0000
  H   H5        1.0  0.38542  0.25802  0.11705  1.0000
  N   N6        1.0  0.71747  0.15679  0.25836  1.0000
  C   C16       1.0  0.73520  0.14561  0.25186  1.0000
  C   C17       1.0  0.72720  0.11967  0.29938  1.0000
  C   C18       1.0  0.76011  0.16072  0.20077  1.0000
  O   O11       1.0  0.77331  0.18707  0.20385  1.0000
  O   O12       1.0  0.76439  0.15032  0.13220  1.0000
  H   H6        1.0  0.75473  0.13183  0.11727  1.0000
  C   C19       1.0  0.45962  0.14173  0.36716  1.0000
  N   N7        1.0  0.41324  0.10414  0.32006  1.0000
  C   C20       1.0  0.44256  0.11612  0.31723  1.0000
  C   C21       1.0  0.45367  0.10449  0.25724  1.0000
  O   O13       1.0  0.45999  0.11559  0.18275  1.0000
  O   O14       1.0  0.46883  0.09449  0.28312  1.0000
  H   H7        1.0  0.46786  0.08726  0.33745  1.0000
  C   C22       1.0  0.69032  0.55127  0.36915  1.0000
  N   N8        1.0  0.69980  0.59742  0.31758  1.0000
  C   C23       1.0  0.68252  0.56805  0.31472  1.0000
  C   C24       1.0  0.66037  0.55581  0.25227  1.0000
  O   O15       1.0  0.66484  0.56629  0.17686  1.0000
  O   O16       1.0  0.63480  0.54371  0.27583  1.0000
  H   H8        1.0  0.62846  0.53744  0.33091  1.0000
  C   C25       1.0  0.86800  0.31920  0.36619  1.0000
  N   N9        1.0  0.90621  0.31109  0.32115  1.0000
  C   C26       1.0  0.89403  0.32825  0.31809  1.0000
  C   C27       1.0  0.90597  0.35135  0.25935  1.0000
  O   O17       1.0  0.89500  0.34687  0.18474  1.0000
  O   O18       1.0  0.91599  0.37628  0.28737  1.0000
  H   H9        1.0  0.92316  0.38211  0.34201  1.0000
  C   C28       1.0  0.55329  0.86638  0.36576  1.0000
  N   N10       1.0  0.59955  0.90400  0.31834  1.0000
  C   C29       1.0  0.57016  0.89177  0.31475  1.0000
  C   C30       1.0  0.55798  0.90251  0.25500  1.0000
  O   O19       1.0  0.56850  0.90905  0.17973  1.0000
  O   O20       1.0  0.54649  0.91625  0.28143  1.0000
  H   H10       1.0  0.54026  0.91580  0.33694  1.0000
  C   C31       1.0  0.32218  0.45753  0.36702  1.0000
  N   N11       1.0  0.31346  0.41117  0.32010  1.0000
  C   C32       1.0  0.33080  0.44048  0.31736  1.0000
  C   C33       1.0  0.35363  0.45159  0.25770  1.0000
  O   O21       1.0  0.34897  0.45796  0.18311  1.0000
  O   O22       1.0  0.37875  0.46671  0.28396  1.0000
  H   H11       1.0  0.38492  0.46571  0.33840  1.0000
  C   C34       1.0  0.14294  0.68784  0.37008  1.0000
  N   N12       1.0  0.10673  0.69772  0.31680  1.0000
  C   C35       1.0  0.11877  0.68040  0.31409  1.0000
  C   C36       1.0  0.10928  0.65863  0.25040  1.0000
  O   O23       1.0  0.10371  0.66352  0.17494  1.0000
  O   O24       1.0  0.09575  0.63292  0.27244  1.0000
  H   H12       1.0  0.09535  0.62626  0.32727  1.0000
  C   C37       1.0  0.24405  0.52969  0.35317  1.0000
  N   N13       1.0  0.29351  0.54715  0.32054  1.0000
  C   C38       1.0  0.26972  0.54982  0.30871  1.0000
  C   C39       1.0  0.27132  0.56938  0.24500  1.0000
  O   O25       1.0  0.26249  0.55960  0.17005  1.0000
  O   O26       1.0  0.26802  0.58981  0.26702  1.0000
  H   H13       1.0  0.27210  0.59799  0.32090  1.0000
  C   C40       1.0  0.48115  0.71565  0.35516  1.0000
  N   N14       1.0  0.46375  0.74767  0.32183  1.0000
  C   C41       1.0  0.46098  0.72115  0.31066  1.0000
  C   C42       1.0  0.44123  0.70302  0.24772  1.0000
  O   O27       1.0  0.45096  0.70416  0.17250  1.0000
  O   O28       1.0  0.42121  0.67902  0.26915  1.0000
  H   H14       1.0  0.41321  0.67459  0.32325  1.0000
  C   C43       1.0  0.29463  0.76792  0.35497  1.0000
  N   N15       1.0  0.26256  0.71823  0.32514  1.0000
  C   C44       1.0  0.28921  0.74180  0.31383  1.0000
  C   C45       1.0  0.30770  0.73950  0.25403  1.0000
  O   O29       1.0  0.30790  0.74782  0.17738  1.0000
  O   O30       1.0  0.33109  0.74262  0.27939  1.0000
  H   H15       1.0  0.33466  0.73910  0.33473  1.0000
  C   C46       1.0  0.77008  0.47960  0.35480  1.0000
  N   N16       1.0  0.72049  0.46204  0.32386  1.0000
  C   C47       1.0  0.74410  0.45903  0.31271  1.0000
  C   C48       1.0  0.74203  0.43864  0.25163  1.0000
  O   O31       1.0  0.75033  0.44720  0.17528  1.0000
  O   O32       1.0  0.74537  0.41838  0.27555  1.0000
  H   H16       1.0  0.74189  0.41100  0.33052  1.0000
  C   C49       1.0  0.53168  0.29205  0.35286  1.0000
  N   N17       1.0  0.54919  0.26008  0.32045  1.0000
  C   C50       1.0  0.55185  0.28652  0.30857  1.0000
  C   C51       1.0  0.57145  0.30451  0.24498  1.0000
  O   O33       1.0  0.56171  0.30363  0.17002  1.0000
  O   O34       1.0  0.59191  0.32820  0.26717  1.0000
  H   H17       1.0  0.60006  0.33224  0.32108  1.0000
  C   C52       1.0  0.71762  0.24126  0.35541  1.0000
  N   N18       1.0  0.74971  0.29058  0.32101  1.0000
  C   C53       1.0  0.72323  0.26678  0.30971  1.0000
  C   C54       1.0  0.70530  0.26818  0.24551  1.0000
  O   O35       1.0  0.70688  0.25956  0.17077  1.0000
  O   O36       1.0  0.68113  0.26403  0.26549  1.0000
  H   H18       1.0  0.67641  0.26763  0.31910  1.0000
  N   N19       1.0  0.15813  0.56729  0.30141  1.0000
  C   C55       1.0  0.15565  0.59155  0.29885  1.0000
  C   C56       1.0  0.17518  0.61562  0.35130  1.0000
  C   C57       1.0  0.13660  0.59281  0.23835  1.0000
  O   O37       1.0  0.11249  0.57167  0.23270  1.0000
  O   O38       1.0  0.14529  0.60770  0.16946  1.0000
  H   H19       1.0  0.16310  0.62210  0.16071  1.0000
  N   N20       1.0  0.44360  0.59331  0.29316  1.0000
  C   C58       1.0  0.41915  0.56674  0.28944  1.0000
  C   C59       1.0  0.39627  0.56145  0.34901  1.0000
  C   C60       1.0  0.41652  0.54773  0.22230  1.0000
  O   O39       1.0  0.43814  0.54707  0.19885  1.0000
  O   O40       1.0  0.39667  0.54051  0.16750  1.0000
  H   H20       1.0  0.39416  0.52978  0.11928  1.0000
  N   N21       1.0  0.41768  0.85206  0.29362  1.0000
  C   C61       1.0  0.44423  0.85413  0.28998  1.0000
  C   C62       1.0  0.44924  0.83597  0.34785  1.0000
  C   C63       1.0  0.46358  0.87118  0.22452  1.0000
  O   O41       1.0  0.46448  0.89377  0.20364  1.0000
  O   O42       1.0  0.47088  0.85905  0.16812  1.0000
  H   H21       1.0  0.48183  0.86774  0.12068  1.0000
  N   N22       1.0  0.85422  0.44092  0.29298  1.0000
  C   C64       1.0  0.85622  0.41640  0.28946  1.0000
  C   C65       1.0  0.83837  0.39345  0.34843  1.0000
  C   C66       1.0  0.87293  0.41385  0.22329  1.0000
  O   O43       1.0  0.89538  0.43547  0.20095  1.0000
  O   O44       1.0  0.86055  0.39413  0.16792  1.0000
  H   H22       1.0  0.86900  0.39169  0.12019  1.0000
  N   N23       1.0  0.56939  0.41562  0.30111  1.0000
  C   C67       1.0  0.59367  0.44234  0.29848  1.0000
  C   C68       1.0  0.61776  0.44684  0.35077  1.0000
  C   C69       1.0  0.59493  0.46268  0.23810  1.0000
  O   O45       1.0  0.57382  0.46570  0.23268  1.0000
  O   O46       1.0  0.60978  0.46886  0.16911  1.0000
  H   H23       1.0  0.62414  0.46542  0.16019  1.0000
  N   N24       1.0  0.59552  0.15639  0.29255  1.0000
  C   C70       1.0  0.56895  0.15427  0.28873  1.0000
  C   C71       1.0  0.56354  0.17163  0.34889  1.0000
  C   C72       1.0  0.55007  0.13813  0.22100  1.0000
  O   O47       1.0  0.54946  0.11595  0.19675  1.0000
  O   O48       1.0  0.54297  0.15097  0.16661  1.0000
  H   H24       1.0  0.53234  0.14293  0.11808  1.0000
  C   C73       1.0  0.97864  0.27456  0.32805  1.0000
  N   N25       1.0  0.02496  0.31511  0.29711  1.0000
  C   C74       1.0  0.99586  0.30273  0.29159  1.0000
  C   C75       1.0  0.98521  0.31823  0.24676  1.0000
  O   O49       1.0  0.97253  0.30800  0.17610  1.0000
  O   O50       1.0  0.99631  0.34469  0.25373  1.0000
  H   H25       1.0  0.00655  0.35485  0.30061  1.0000
  C   C76       1.0  0.73683  0.70674  0.32602  1.0000
  N   N26       1.0  0.69656  0.71280  0.29356  1.0000
  C   C77       1.0  0.70892  0.69607  0.28784  1.0000
  C   C78       1.0  0.69361  0.67009  0.24198  1.0000
  O   O51       1.0  0.70431  0.66826  0.17143  1.0000
  O   O52       1.0  0.66706  0.65504  0.24543  1.0000
  H   H26       1.0  0.65645  0.65479  0.29147  1.0000
  C   C79       1.0  0.30419  0.03229  0.32654  1.0000
  N   N27       1.0  0.29835  0.98604  0.29406  1.0000
  C   C80       1.0  0.31500  0.01514  0.28856  1.0000
  C   C81       1.0  0.34098  0.02587  0.24273  1.0000
  O   O53       1.0  0.34343  0.03900  0.17301  1.0000
  O   O54       1.0  0.35629  0.01464  0.24701  1.0000
  H   H27       1.0  0.35628  0.00403  0.29269  1.0000
  C   C82       1.0  0.03441  0.73477  0.32567  1.0000
  N   N28       1.0  0.98815  0.69449  0.29256  1.0000
  C   C83       1.0  0.01725  0.70697  0.28671  1.0000
  C   C84       1.0  0.02797  0.69189  0.23983  1.0000
  O   O55       1.0  0.04130  0.70293  0.17070  1.0000
  O   O56       1.0  0.01668  0.66533  0.24275  1.0000
  H   H28       1.0  0.00596  0.65450  0.28790  1.0000
  C   C85       1.0  0.27640  0.30217  0.32721  1.0000
  N   N29       1.0  0.31692  0.29639  0.29589  1.0000
  C   C86       1.0  0.30448  0.31304  0.29009  1.0000
  C   C87       1.0  0.31986  0.33908  0.24456  1.0000
  O   O57       1.0  0.30943  0.34137  0.17410  1.0000
  O   O58       1.0  0.34633  0.35450  0.25090  1.0000
  H   H29       1.0  0.35661  0.35453  0.29761  1.0000
  C   C88       1.0  0.70869  0.97647  0.32684  1.0000
  N   N30       1.0  0.71469  0.02282  0.29503  1.0000
  C   C89       1.0  0.69792  0.99373  0.28948  1.0000
  C   C90       1.0  0.67184  0.98309  0.24425  1.0000
  O   O59       1.0  0.66990  0.97069  0.17334  1.0000
  O   O60       1.0  0.65679  0.99457  0.24856  1.0000
  H   H30       1.0  0.65663  0.00487  0.29492  1.0000
  C   C91       1.0  0.19363  0.32073  0.32156  1.0000
  N   N31       1.0  0.16216  0.33600  0.26059  1.0000
  C   C92       1.0  0.18726  0.33561  0.25421  1.0000
  C   C93       1.0  0.20567  0.35196  0.18527  1.0000
  O   O61       1.0  0.21635  0.37812  0.19058  1.0000
  O   O62       1.0  0.21979  0.34383  0.14074  1.0000
  H   H31       1.0  0.21491  0.32554  0.13315  1.0000
  C   C94       1.0  0.69015  0.87525  0.32171  1.0000
  N   N32       1.0  0.67491  0.82859  0.26047  1.0000
  C   C95       1.0  0.67514  0.85400  0.25447  1.0000
  C   C96       1.0  0.65844  0.85589  0.18636  1.0000
  O   O63       1.0  0.63231  0.84034  0.19280  1.0000
  O   O64       1.0  0.66628  0.87807  0.14179  1.0000
  H   H32       1.0  0.68451  0.89153  0.13350  1.0000
  C   C97       1.0  0.13610  0.81676  0.32181  1.0000
  N   N33       1.0  0.18289  0.84802  0.26120  1.0000
  C   C98       1.0  0.15752  0.82271  0.25541  1.0000
  C   C99       1.0  0.15480  0.80344  0.18806  1.0000
  O   O65       1.0  0.17598  0.80190  0.16588  1.0000
  O   O66       1.0  0.13485  0.79377  0.13290  1.0000
  H   H33       1.0  0.11932  0.79558  0.13657  1.0000
  C   C100      1.0  0.81899  0.68736  0.32191  1.0000
  N   N34       1.0  0.85028  0.67183  0.26128  1.0000
  C   C101      1.0  0.82505  0.67198  0.25547  1.0000
  C   C102      1.0  0.80645  0.65516  0.18753  1.0000
  O   O67       1.0  0.79537  0.62907  0.19706  1.0000
  O   O68       1.0  0.79210  0.66293  0.14279  1.0000
  H   H34       1.0  0.79716  0.68117  0.13291  1.0000
  C   C103      1.0  0.32296  0.13366  0.32167  1.0000
  N   N35       1.0  0.33832  0.18044  0.26093  1.0000
  C   C104      1.0  0.33797  0.15497  0.25460  1.0000
  C   C105      1.0  0.35446  0.15299  0.18597  1.0000
  O   O69       1.0  0.38061  0.16845  0.19182  1.0000
  O   O70       1.0  0.34642  0.13079  0.14126  1.0000
  H   H35       1.0  0.32814  0.11739  0.13329  1.0000
  C   C106      1.0  0.87764  0.19144  0.32175  1.0000
  N   N36       1.0  0.83104  0.15992  0.26003  1.0000
  C   C107      1.0  0.85652  0.18505  0.25393  1.0000
  C   C108      1.0  0.85858  0.20352  0.18521  1.0000
  O   O71       1.0  0.84301  0.21410  0.19053  1.0000
  O   O72       1.0  0.88089  0.21781  0.14111  1.0000
  H   H36       1.0  0.89438  0.21303  0.13360  1.0000
  C   C109      1.0  0.16650  0.49039  0.31650  1.0000
  N   N37       1.0  0.15998  0.51198  0.32653  1.0000
  C   C110      1.0  0.18130  0.53997  0.34142  1.0000
  N   N38       1.0  0.20910  0.54574  0.34572  1.0000
  C   C111      1.0  0.21619  0.52500  0.33732  1.0000
  N   N39       1.0  0.19460  0.49775  0.32433  1.0000
  C   C112      1.0  0.52109  0.67822  0.31560  1.0000
  N   N40       1.0  0.49980  0.64999  0.32464  1.0000
  C   C113      1.0  0.47175  0.64294  0.34011  1.0000
  N   N41       1.0  0.46551  0.66463  0.34640  1.0000
  C   C114      1.0  0.48603  0.69260  0.33888  1.0000
  N   N42       1.0  0.51338  0.69867  0.32489  1.0000
  C   C115      1.0  0.33316  0.84528  0.31455  1.0000
  N   N43       1.0  0.36127  0.85177  0.32352  1.0000
  C   C116      1.0  0.36788  0.83047  0.33940  1.0000
  N   N44       1.0  0.34586  0.80270  0.34588  1.0000
  C   C117      1.0  0.31800  0.79567  0.33847  1.0000
  N   N45       1.0  0.31241  0.81726  0.32414  1.0000
  C   C118      1.0  0.84745  0.51874  0.31451  1.0000
  N   N46       1.0  0.85406  0.49722  0.32348  1.0000
  C   C119      1.0  0.83284  0.46927  0.33928  1.0000
  N   N47       1.0  0.80503  0.46338  0.34579  1.0000
  C   C120      1.0  0.79789  0.48414  0.33841  1.0000
  N   N48       1.0  0.81939  0.51136  0.32407  1.0000
  C   C121      1.0  0.49244  0.33038  0.31635  1.0000
  N   N49       1.0  0.51406  0.35848  0.32631  1.0000
  C   C122      1.0  0.54204  0.36511  0.34110  1.0000
  N   N50       1.0  0.54778  0.34306  0.34537  1.0000
  C   C123      1.0  0.52702  0.31524  0.33705  1.0000
  N   N51       1.0  0.49977  0.30961  0.32415  1.0000
  C   C124      1.0  0.68052  0.16390  0.31595  1.0000
  N   N52       1.0  0.65224  0.15685  0.32483  1.0000
  C   C125      1.0  0.64507  0.17777  0.34014  1.0000
  N   N53       1.0  0.66667  0.20573  0.34649  1.0000
  C   C126      1.0  0.69467  0.21329  0.33908  1.0000
  N   N54       1.0  0.70088  0.19209  0.32524  1.0000
  C   C127      1.0  0.48984  0.16113  0.36045  1.0000
  N   N55       1.0  0.51148  0.15483  0.35011  1.0000
  C   C128      1.0  0.53978  0.17641  0.34927  1.0000
  N   N56       1.0  0.54609  0.20433  0.35878  1.0000
  C   C129      1.0  0.52511  0.21118  0.36919  1.0000
  N   N57       1.0  0.49763  0.18926  0.36918  1.0000
  C   C130      1.0  0.68012  0.52119  0.36237  1.0000
  N   N58       1.0  0.65233  0.49919  0.35222  1.0000
  C   C131      1.0  0.64611  0.47104  0.35116  1.0000
  N   N59       1.0  0.66819  0.46538  0.36008  1.0000
  C   C132      1.0  0.69588  0.48668  0.37027  1.0000
  N   N60       1.0  0.70091  0.51398  0.37063  1.0000
  C   C133      1.0  0.84863  0.33008  0.35975  1.0000
  N   N61       1.0  0.85500  0.35805  0.34940  1.0000
  C   C134      1.0  0.83350  0.36487  0.34887  1.0000
  N   N62       1.0  0.80555  0.34331  0.35887  1.0000
  C   C135      1.0  0.79863  0.31549  0.36946  1.0000
  N   N63       1.0  0.82048  0.30982  0.36906  1.0000
  C   C136      1.0  0.52309  0.84681  0.35943  1.0000
  N   N64       1.0  0.50136  0.85296  0.34885  1.0000
  C   C137      1.0  0.47309  0.83131  0.34835  1.0000
  N   N65       1.0  0.46694  0.80345  0.35849  1.0000
  C   C138      1.0  0.48799  0.79673  0.36921  1.0000
  N   N66       1.0  0.51544  0.81872  0.36886  1.0000
  C   C139      1.0  0.33304  0.48776  0.36042  1.0000
  N   N67       1.0  0.36099  0.50939  0.35013  1.0000
  C   C140      1.0  0.36774  0.53769  0.34939  1.0000
  N   N68       1.0  0.34613  0.54402  0.35890  1.0000
  C   C141      1.0  0.31831  0.52307  0.36928  1.0000
  N   N69       1.0  0.31272  0.49558  0.36918  1.0000
  C   C142      1.0  0.16293  0.67778  0.36331  1.0000
  N   N70       1.0  0.15725  0.65004  0.35305  1.0000
  C   C143      1.0  0.17924  0.64393  0.35186  1.0000
  N   N71       1.0  0.20696  0.66609  0.36072  1.0000
  C   C144      1.0  0.21325  0.69375  0.37098  1.0000
  N   N72       1.0  0.19089  0.69866  0.37148  1.0000
  C   C145      1.0  0.11920  0.32982  0.32644  1.0000
  N   N73       1.0  0.09011  0.31145  0.33548  1.0000
  C   C146      1.0  0.07084  0.32131  0.33293  1.0000
  N   N74       1.0  0.08176  0.35031  0.32191  1.0000
  C   C147      1.0  0.11033  0.36930  0.31260  1.0000
  N   N75       1.0  0.12825  0.35825  0.31484  1.0000
  C   C148      1.0  0.68156  0.79199  0.32514  1.0000
  N   N76       1.0  0.69999  0.78133  0.33398  1.0000
  C   C149      1.0  0.69017  0.75221  0.33097  1.0000
  N   N77       1.0  0.66118  0.73409  0.31979  1.0000
  C   C150      1.0  0.64215  0.74363  0.31072  1.0000
  N   N78       1.0  0.65315  0.77257  0.31346  1.0000
  C   C151      1.0  0.21935  0.89162  0.32465  1.0000
  N   N79       1.0  0.22990  0.92068  0.33384  1.0000
  C   C152      1.0  0.25899  0.94011  0.33087  1.0000
  N   N80       1.0  0.27722  0.92938  0.31956  1.0000
  C   C153      1.0  0.26782  0.90085  0.31022  1.0000
  N   N81       1.0  0.23890  0.88278  0.31277  1.0000
  C   C154      1.0  0.89380  0.67890  0.32508  1.0000
  N   N82       1.0  0.92286  0.69744  0.33405  1.0000
  C   C155      1.0  0.94228  0.68777  0.33093  1.0000
  N   N83       1.0  0.93157  0.65881  0.31955  1.0000
  C   C156      1.0  0.90303  0.63968  0.31042  1.0000
  N   N84       1.0  0.88496  0.65053  0.31323  1.0000
  C   C157      1.0  0.33194  0.21713  0.32643  1.0000
  N   N85       1.0  0.31352  0.22779  0.33534  1.0000
  C   C158      1.0  0.32332  0.25691  0.33269  1.0000
  N   N86       1.0  0.35232  0.27505  0.32169  1.0000
  C   C159      1.0  0.37135  0.26551  0.31252  1.0000
  N   N87       1.0  0.36036  0.23656  0.31486  1.0000
  C   C160      1.0  0.79423  0.11695  0.32546  1.0000
  N   N88       1.0  0.78346  0.08785  0.33441  1.0000
  C   C161      1.0  0.75433  0.06864  0.33150  1.0000
  N   N89       1.0  0.73629  0.07961  0.32029  1.0000
  C   C162      1.0  0.74594  0.10820  0.31111  1.0000
  N   N90       1.0  0.77490  0.12605  0.31377  1.0000
  C   C163      1.0  0.32955  0.11127  0.33821  1.0000
  N   N91       1.0  0.31126  0.08206  0.33044  1.0000
  C   C164      1.0  0.32137  0.06301  0.33608  1.0000
  N   N92       1.0  0.35021  0.07413  0.35001  1.0000
  C   C165      1.0  0.36885  0.10269  0.35938  1.0000
  N   N93       1.0  0.35794  0.12060  0.35193  1.0000
  C   C166      1.0  0.79004  0.68088  0.33846  1.0000
  N   N94       1.0  0.77933  0.69933  0.33023  1.0000
  C   C167      1.0  0.75019  0.68941  0.33573  1.0000
  N   N95       1.0  0.73231  0.66063  0.34994  1.0000
  C   C168      1.0  0.74206  0.64188  0.35973  1.0000
  N   N96       1.0  0.77085  0.65254  0.35262  1.0000
  C   C169      1.0  0.89981  0.22046  0.33886  1.0000
  N   N97       1.0  0.92906  0.23165  0.33121  1.0000
  C   C170      1.0  0.94788  0.26087  0.33697  1.0000
  N   N98       1.0  0.93648  0.27835  0.35062  1.0000
  C   C171      1.0  0.90785  0.26816  0.35961  1.0000
  N   N99       1.0  0.89020  0.23930  0.35210  1.0000
  C   C172      1.0  0.68348  0.89755  0.33869  1.0000
  N   N100      1.0  0.70169  0.92676  0.33068  1.0000
  C   C173      1.0  0.69149  0.94575  0.33613  1.0000
  N   N101      1.0  0.66263  0.93456  0.34981  1.0000
  C   C174      1.0  0.64407  0.90599  0.35919  1.0000
  N   N102      1.0  0.65506  0.88814  0.35207  1.0000
  C   C175      1.0  0.22263  0.32738  0.33804  1.0000
  N   N103      1.0  0.23360  0.30913  0.33055  1.0000
  C   C176      1.0  0.26279  0.31931  0.33623  1.0000
  N   N104      1.0  0.28044  0.34816  0.35001  1.0000
  C   C177      1.0  0.27047  0.36676  0.35909  1.0000
  N   N105      1.0  0.24164  0.35579  0.35158  1.0000
  C   C178      1.0  0.11355  0.78782  0.33845  1.0000
  N   N106      1.0  0.08440  0.77721  0.33013  1.0000
  C   C179      1.0  0.06509  0.74810  0.33567  1.0000
  N   N107      1.0  0.07588  0.73014  0.35002  1.0000
  C   C180      1.0  0.10435  0.73978  0.35989  1.0000
  N   N108      1.0  0.12260  0.76855  0.35274  1.0000
  C   C181      1.0  0.14741  0.46024  0.30411  1.0000
  N   N109      1.0  0.10987  0.41317  0.34641  1.0000
  C   C182      1.0  0.12091  0.44237  0.34888  1.0000
  C   C183      1.0  0.10738  0.45260  0.40473  1.0000
  O   O73       1.0  0.11641  0.45811  0.48183  1.0000
  O   O74       1.0  0.09771  0.46758  0.37464  1.0000
  H   H37       1.0  0.09183  0.46684  0.31848  1.0000
  C   C184      1.0  0.55127  0.68960  0.30302  1.0000
  N   N110      1.0  0.59844  0.69907  0.34345  1.0000
  C   C185      1.0  0.56926  0.68080  0.34617  1.0000
  C   C186      1.0  0.55923  0.65673  0.40043  1.0000
  O   O75       1.0  0.55341  0.65985  0.47761  1.0000
  O   O76       1.0  0.54418  0.63218  0.36985  1.0000
  H   H38       1.0  0.54486  0.62725  0.31343  1.0000
  C   C187      1.0  0.32220  0.86439  0.30119  1.0000
  N   N111      1.0  0.31228  0.90161  0.34405  1.0000
  C   C188      1.0  0.33059  0.89076  0.34651  1.0000
  C   C189      1.0  0.35424  0.90428  0.40261  1.0000
  O   O77       1.0  0.35073  0.89558  0.48012  1.0000
  O   O78       1.0  0.37902  0.91380  0.37371  1.0000
  H   H39       1.0  0.38435  0.91942  0.31749  1.0000
  C   C190      1.0  0.86649  0.54884  0.30130  1.0000
  N   N112      1.0  0.90381  0.59598  0.34386  1.0000
  C   C191      1.0  0.89295  0.56680  0.34616  1.0000
  C   C192      1.0  0.90652  0.55669  0.40218  1.0000
  O   O79       1.0  0.89779  0.55142  0.47965  1.0000
  O   O80       1.0  0.91609  0.54150  0.37315  1.0000
  H   H40       1.0  0.92173  0.54184  0.31692  1.0000
  C   C193      1.0  0.46230  0.31935  0.30399  1.0000
  N   N113      1.0  0.41523  0.30982  0.34645  1.0000
  C   C194      1.0  0.44444  0.32798  0.34893  1.0000
  C   C195      1.0  0.45469  0.35169  0.40495  1.0000
  O   O81       1.0  0.46017  0.34810  0.48201  1.0000
  O   O82       1.0  0.46971  0.37636  0.37503  1.0000
  H   H41       1.0  0.46900  0.38155  0.31892  1.0000
  C   C196      1.0  0.69199  0.14517  0.30355  1.0000
  N   N114      1.0  0.70134  0.10734  0.34334  1.0000
  C   C197      1.0  0.68308  0.11826  0.34605  1.0000
  C   C198      1.0  0.65886  0.10406  0.39961  1.0000
  O   O83       1.0  0.66172  0.11287  0.47689  1.0000
  O   O84       1.0  0.63440  0.09454  0.36833  1.0000
  H   H42       1.0  0.62964  0.08901  0.31175  1.0000
  N   N115      1.0  0.44490  0.15114  0.41847  1.0000
  C   C199      1.0  0.41591  0.13889  0.42457  1.0000
  C   C200      1.0  0.39893  0.11427  0.37075  1.0000
  C   C201      1.0  0.40483  0.15139  0.48197  1.0000
  O   O85       1.0  0.41484  0.17748  0.47873  1.0000
  O   O86       1.0  0.39202  0.13942  0.55205  1.0000
  H   H43       1.0  0.38536  0.12101  0.56511  1.0000
  N   N116      1.0  0.71358  0.56613  0.42384  1.0000
  C   C202      1.0  0.73013  0.59516  0.42984  1.0000
  C   C203      1.0  0.72335  0.61189  0.37176  1.0000
  C   C204      1.0  0.75275  0.60665  0.49099  1.0000
  O   O87       1.0  0.76800  0.59575  0.49745  1.0000
  O   O88       1.0  0.75299  0.62082  0.55695  1.0000
  H   H44       1.0  0.74153  0.62818  0.56422  1.0000
  N   N117      1.0  0.85845  0.29485  0.41644  1.0000
  C   C205      1.0  0.87086  0.27826  0.42283  1.0000
  C   C206      1.0  0.89589  0.28637  0.37061  1.0000
  C   C207      1.0  0.85811  0.25441  0.47912  1.0000
  O   O89       1.0  0.83200  0.23846  0.47550  1.0000
  O   O90       1.0  0.86970  0.25325  0.54967  1.0000
  H   H45       1.0  0.88806  0.26488  0.56359  1.0000
  N   N118      1.0  0.56808  0.85741  0.41853  1.0000
  C   C208      1.0  0.59709  0.86991  0.42511  1.0000
  C   C209      1.0  0.61396  0.89428  0.37027  1.0000
  C   C210      1.0  0.60834  0.85796  0.48408  1.0000
  O   O91       1.0  0.59792  0.83179  0.48511  1.0000
  O   O92       1.0  0.62159  0.87068  0.55279  1.0000
  H   H46       1.0  0.62853  0.88927  0.56363  1.0000
  N   N119      1.0  0.29798  0.44281  0.41801  1.0000
  C   C211      1.0  0.28122  0.41382  0.42399  1.0000
  C   C212      1.0  0.28893  0.39685  0.37044  1.0000
  C   C213      1.0  0.25755  0.40274  0.48107  1.0000
  O   O93       1.0  0.24147  0.41275  0.47737  1.0000
  O   O94       1.0  0.25664  0.38998  0.55133  1.0000
  H   H47       1.0  0.26838  0.38333  0.56471  1.0000
  N   N120      1.0  0.15101  0.71078  0.42596  1.0000
  C   C214      1.0  0.13849  0.72731  0.43187  1.0000
  C   C215      1.0  0.11546  0.72094  0.37221  1.0000
  C   C216      1.0  0.14914  0.74956  0.49438  1.0000
  O   O95       1.0  0.17520  0.76429  0.50467  1.0000
  O   O96       1.0  0.13448  0.74962  0.55857  1.0000
  H   H48       1.0  0.11556  0.73836  0.56349  1.0000
  N   N121      1.0  0.24567  0.51109  0.41134  1.0000
  C   C217      1.0  0.26970  0.50953  0.42836  1.0000
  C   C218      1.0  0.29478  0.52787  0.37741  1.0000
  C   C219      1.0  0.26780  0.48971  0.49265  1.0000
  O   O97       1.0  0.24440  0.46826  0.50712  1.0000
  O   O98       1.0  0.28491  0.49676  0.55630  1.0000
  H   H49       1.0  0.30144  0.51322  0.56063  1.0000
  N   N122      1.0  0.49996  0.73608  0.41244  1.0000
  C   C220      1.0  0.50165  0.76176  0.42875  1.0000
  C   C221      1.0  0.48324  0.76841  0.37782  1.0000
  C   C222      1.0  0.52172  0.77989  0.49216  1.0000
  O   O99       1.0  0.54320  0.77793  0.50607  1.0000
  O   O100      1.0  0.51492  0.79015  0.55582  1.0000
  H   H50       1.0  0.49849  0.79027  0.56057  1.0000
  N   N123      1.0  0.27388  0.76690  0.40947  1.0000
  C   C223      1.0  0.24800  0.74319  0.42584  1.0000
  C   C224      1.0  0.24149  0.71761  0.37814  1.0000
  C   C225      1.0  0.22973  0.74597  0.48665  1.0000
  O   O101      1.0  0.23146  0.76951  0.49493  1.0000
  O   O102      1.0  0.21954  0.72988  0.55256  1.0000
  H   H51       1.0  0.21957  0.71350  0.56063  1.0000
  N   N124      1.0  0.76888  0.49904  0.41021  1.0000
  C   C226      1.0  0.74508  0.50106  0.42660  1.0000
  C   C227      1.0  0.71967  0.48220  0.37778  1.0000
  C   C228      1.0  0.74758  0.52177  0.48832  1.0000
  O   O103      1.0  0.77116  0.54331  0.49956  1.0000
  O   O104      1.0  0.73115  0.51557  0.55351  1.0000
  H   H52       1.0  0.71464  0.49921  0.56024  1.0000
  N   N125      1.0  0.51306  0.27182  0.41098  1.0000
  C   C229      1.0  0.51152  0.24625  0.42806  1.0000
  C   C230      1.0  0.52989  0.23951  0.37723  1.0000
  C   C231      1.0  0.49168  0.22832  0.49232  1.0000
  O   O105      1.0  0.47023  0.23028  0.50669  1.0000
  O   O106      1.0  0.49872  0.21829  0.55604  1.0000
  H   H53       1.0  0.51518  0.21823  0.56046  1.0000
  N   N126      1.0  0.73789  0.24305  0.41371  1.0000
  C   C232      1.0  0.76352  0.26712  0.43010  1.0000
  C   C233      1.0  0.77027  0.29202  0.37817  1.0000
  C   C234      1.0  0.78153  0.26540  0.49444  1.0000
  O   O107      1.0  0.77970  0.24208  0.50930  1.0000
  O   O108      1.0  0.79168  0.28269  0.55760  1.0000
  H   H54       1.0  0.79172  0.29921  0.56154  1.0000
  C   C235      1.0  0.17695  0.56387  0.35477  1.0000
  N   N127      1.0  0.19322  0.61167  0.40582  1.0000
  C   C236      1.0  0.19496  0.58738  0.41209  1.0000
  C   C237      1.0  0.21421  0.58741  0.47483  1.0000
  O   O109      1.0  0.20405  0.56987  0.53597  1.0000
  O   O110      1.0  0.23776  0.60897  0.49177  1.0000
  H   H55       1.0  0.24732  0.62354  0.45412  1.0000
  C   C238      1.0  0.44828  0.61450  0.35313  1.0000
  N   N128      1.0  0.40137  0.58243  0.40951  1.0000
  C   C239      1.0  0.42596  0.60821  0.41637  1.0000
  C   C240      1.0  0.42742  0.62666  0.48451  1.0000
  O   O111      1.0  0.44647  0.63357  0.54053  1.0000
  O   O112      1.0  0.40630  0.62822  0.51050  1.0000
  H   H56       1.0  0.39084  0.62355  0.47731  1.0000
  C   C241      1.0  0.39618  0.83498  0.35194  1.0000
  N   N129      1.0  0.42796  0.81957  0.40689  1.0000
  C   C242      1.0  0.40217  0.81834  0.41366  1.0000
  C   C243      1.0  0.38351  0.80085  0.48072  1.0000
  O   O113      1.0  0.37683  0.81275  0.53824  1.0000
  O   O114      1.0  0.38160  0.77775  0.50364  1.0000
  H   H57       1.0  0.38610  0.76718  0.46874  1.0000
  C   C244      1.0  0.83748  0.44557  0.35207  1.0000
  N   N130      1.0  0.82228  0.39854  0.40814  1.0000
  C   C245      1.0  0.82115  0.42318  0.41479  1.0000
  C   C246      1.0  0.80395  0.42461  0.48232  1.0000
  O   O115      1.0  0.81649  0.44316  0.53954  1.0000
  O   O116      1.0  0.78133  0.40342  0.50818  1.0000
  H   H58       1.0  0.77037  0.38819  0.47431  1.0000
  C   C247      1.0  0.56597  0.39336  0.35439  1.0000
  N   N131      1.0  0.61380  0.42484  0.40524  1.0000
  C   C248      1.0  0.58949  0.39883  0.41160  1.0000
  C   C249      1.0  0.58954  0.37959  0.47426  1.0000
  O   O117      1.0  0.57205  0.37225  0.53551  1.0000
  O   O118      1.0  0.61110  0.37758  0.49100  1.0000
  H   H59       1.0  0.62563  0.38256  0.45326  1.0000
  C   C250      1.0  0.61659  0.17268  0.35309  1.0000
  N   N132      1.0  0.58441  0.18733  0.40990  1.0000
  C   C251      1.0  0.61018  0.18850  0.41680  1.0000
  C   C252      1.0  0.62855  0.20530  0.48540  1.0000
  O   O119      1.0  0.63540  0.19300  0.54102  1.0000
  O   O120      1.0  0.63006  0.22789  0.51208  1.0000
  H   H60       1.0  0.62543  0.23878  0.47923  1.0000
  N   N133      1.0  0.99341  0.26224  0.36385  1.0000
  C   C253      1.0  0.02290  0.27481  0.36728  1.0000
  C   C254      1.0  0.04000  0.30340  0.33406  1.0000
  C   C255      1.0  0.03477  0.26004  0.40918  1.0000
  O   O121      1.0  0.02390  0.23422  0.39424  1.0000
  O   O122      1.0  0.04661  0.26762  0.48354  1.0000
  H   H61       1.0  0.05321  0.28493  0.50764  1.0000
  N   N134      1.0  0.74901  0.73363  0.36322  1.0000
  C   C256      1.0  0.73650  0.75060  0.36656  1.0000
  C   C257      1.0  0.70810  0.73933  0.33192  1.0000
  C   C258      1.0  0.75105  0.77701  0.40992  1.0000
  O   O123      1.0  0.77695  0.79200  0.39647  1.0000
  O   O124      1.0  0.74306  0.78088  0.48411  1.0000
  H   H62       1.0  0.72561  0.77006  0.50719  1.0000
  N   N135      1.0  0.27726  0.01746  0.36344  1.0000
  C   C259      1.0  0.26038  0.98796  0.36661  1.0000
  C   C260      1.0  0.27178  0.97093  0.33210  1.0000
  C   C261      1.0  0.23391  0.97598  0.40976  1.0000
  O   O125      1.0  0.21878  0.98665  0.39494  1.0000
  O   O126      1.0  0.23016  0.96423  0.48409  1.0000
  H   H63       1.0  0.24110  0.95777  0.50736  1.0000
  N   N136      1.0  0.01963  0.74675  0.36373  1.0000
  C   C262      1.0  0.99014  0.73414  0.36714  1.0000
  C   C263      1.0  0.97309  0.70583  0.33174  1.0000
  C   C264      1.0  0.97819  0.74845  0.41143  1.0000
  O   O127      1.0  0.98902  0.77439  0.39893  1.0000
  O   O128      1.0  0.96632  0.74016  0.48549  1.0000
  H   H64       1.0  0.95975  0.72264  0.50793  1.0000
  N   N137      1.0  0.26419  0.27519  0.36372  1.0000
  C   C265      1.0  0.27681  0.25831  0.36730  1.0000
  C   C266      1.0  0.30534  0.26976  0.33360  1.0000
  C   C267      1.0  0.26217  0.23177  0.40991  1.0000
  O   O129      1.0  0.23633  0.21675  0.39556  1.0000
  O   O130      1.0  0.26994  0.22772  0.48423  1.0000
  H   H65       1.0  0.28731  0.23852  0.50791  1.0000
  N   N138      1.0  0.73568  0.99117  0.36336  1.0000
  C   C268      1.0  0.75267  0.02065  0.36671  1.0000
  C   C269      1.0  0.74135  0.03780  0.33266  1.0000
  C   C270      1.0  0.77919  0.03248  0.40939  1.0000
  O   O131      1.0  0.79412  0.02154  0.39530  1.0000
  O   O132      1.0  0.78325  0.04433  0.48366  1.0000
  H   H66       1.0  0.77251  0.05099  0.50719  1.0000
  N   N139      1.0  0.17307  0.30728  0.38636  1.0000
  C   C271      1.0  0.14692  0.30625  0.38896  1.0000
  C   C272      1.0  0.14133  0.32228  0.32389  1.0000
  C   C273      1.0  0.12891  0.29328  0.46196  1.0000
  O   O133      1.0  0.12406  0.26919  0.48281  1.0000
  O   O134      1.0  0.12794  0.30789  0.52490  1.0000
  H   H67       1.0  0.13332  0.32644  0.52180  1.0000
  N   N140      1.0  0.70405  0.86836  0.38554  1.0000
  C   C274      1.0  0.70525  0.84333  0.38760  1.0000
  C   C275      1.0  0.68893  0.82162  0.32306  1.0000
  C   C276      1.0  0.71872  0.83847  0.45948  1.0000
  O   O135      1.0  0.74267  0.85794  0.48066  1.0000
  O   O136      1.0  0.70466  0.82259  0.52266  1.0000
  H   H68       1.0  0.68618  0.80921  0.52031  1.0000
  N   N141      1.0  0.14284  0.83780  0.38464  1.0000
  C   C277      1.0  0.16787  0.86403  0.38648  1.0000
  C   C278      1.0  0.18973  0.86928  0.32273  1.0000
  C   C279      1.0  0.17250  0.88266  0.45729  1.0000
  O   O137      1.0  0.15291  0.88713  0.47705  1.0000
  O   O138      1.0  0.18831  0.88490  0.52116  1.0000
  H   H69       1.0  0.20176  0.87988  0.51991  1.0000
  N   N142      1.0  0.83995  0.70154  0.38505  1.0000
  C   C280      1.0  0.86616  0.70271  0.38706  1.0000
  C   C281      1.0  0.87143  0.68612  0.32323  1.0000
  C   C282      1.0  0.88471  0.71656  0.45821  1.0000
  O   O139      1.0  0.88913  0.74057  0.47848  1.0000
  O   O140      1.0  0.88684  0.70285  0.52184  1.0000
  H   H70       1.0  0.88181  0.68437  0.52023  1.0000
  N   N143      1.0  0.30934  0.14068  0.38614  1.0000
  C   C283      1.0  0.30829  0.16579  0.38866  1.0000
  C   C284      1.0  0.32446  0.18748  0.32391  1.0000
  C   C285      1.0  0.29513  0.17074  0.46132  1.0000
  O   O141      1.0  0.27101  0.15145  0.48172  1.0000
  O   O142      1.0  0.30958  0.18632  0.52450  1.0000
  H   H71       1.0  0.32812  0.19952  0.52176  1.0000
  N   N144      1.0  0.87049  0.17084  0.38645  1.0000
  C   C286      1.0  0.84543  0.14465  0.38870  1.0000
  C   C287      1.0  0.82390  0.13910  0.32335  1.0000
  C   C288      1.0  0.84033  0.12657  0.46145  1.0000
  O   O143      1.0  0.85969  0.12206  0.48386  1.0000
  O   O144      1.0  0.82441  0.12512  0.52400  1.0000
  H   H72       1.0  0.81110  0.13031  0.52068  1.0000
