data_image0
_chemical_formula_structural       C4NC2NCH2CH2C4NC2NCH2CH2C4NC2NCH2CH2C2H2CH4CH3C2H2CH4CH3C2H2CH4CH3NC18H12NC18H12NC18H12NC18H12C2H2CH3CH3C2H2CH3CH3C2H2CH3CH3C4NC2NCHCH2C4NC2NCHCH2C4NC2NCHCH2
_chemical_formula_sum              "C144 N16 H120"
_cell_length_a       39.2004
_cell_length_b       39.2004
_cell_length_c       14.9065
_cell_angle_alpha    90
_cell_angle_beta     90
_cell_angle_gamma    120

_space_group_name_H-M_alt    "P 1"
_space_group_IT_number       1

loop_
  _space_group_symop_operation_xyz
  'x, y, z'

loop_
  _atom_site_type_symbol
  _atom_site_label
  _atom_site_symmetry_multiplicity
  _atom_site_fract_x
  _atom_site_fract_y
  _atom_site_fract_z
  _atom_site_occupancy
  C   C1        1.0  0.16701  0.08543  0.32342  1.0000
  C   C2        1.0  0.18951  0.10210  0.24431  1.0000
  C   C3        1.0  0.23152  0.12231  0.24542  1.0000
  C   C4        1.0  0.25328  0.12816  0.32614  1.0000
  N   N1        1.0  0.24984  0.13546  0.16518  1.0000
  C   C5        1.0  0.23213  0.13254  0.08507  1.0000
  C   C6        1.0  0.19045  0.11421  0.08512  1.0000
  N   N2        1.0  0.17172  0.09989  0.16457  1.0000
  C   C7        1.0  0.25865  0.14977  0.00649  1.0000
  H   H1        1.0  0.27908  0.18089  0.02012  1.0000
  H   H2        1.0  0.30085  0.13118  0.04420  1.0000
  C   C8        1.0  0.16549  0.10882  0.00559  1.0000
  H   H3        1.0  0.13500  0.08625  0.01951  1.0000
  H   H4        1.0  0.15402  0.15672  0.03382  1.0000
  C   C9        1.0  0.91070  0.08288  0.32340  1.0000
  C   C10       1.0  0.89394  0.08864  0.24435  1.0000
  C   C11       1.0  0.87377  0.11048  0.24551  1.0000
  C   C12       1.0  0.86805  0.12648  0.32623  1.0000
  N   N3        1.0  0.86059  0.11566  0.16532  1.0000
  C   C13       1.0  0.86345  0.10084  0.08520  1.0000
  C   C14       1.0  0.88171  0.07742  0.08520  1.0000
  N   N4        1.0  0.89606  0.07301  0.16459  1.0000
  C   C15       1.0  0.84634  0.11027  0.00660  1.0000
  H   H5        1.0  0.81527  0.09982  0.02026  1.0000
  H   H6        1.0  0.86541  0.17118  0.04410  1.0000
  C   C16       1.0  0.88707  0.05786  0.00559  1.0000
  H   H7        1.0  0.90958  0.04987  0.01947  1.0000
  H   H8        1.0  0.83908  0.99851  0.03357  1.0000
  C   C17       1.0  0.91331  0.82936  0.32353  1.0000
  C   C18       1.0  0.90751  0.80687  0.24442  1.0000
  C   C19       1.0  0.88570  0.76486  0.24549  1.0000
  C   C20       1.0  0.86976  0.74310  0.32619  1.0000
  N   N5        1.0  0.88052  0.74655  0.16523  1.0000
  C   C21       1.0  0.89533  0.76427  0.08514  1.0000
  C   C22       1.0  0.91871  0.80595  0.08524  1.0000
  N   N6        1.0  0.92312  0.82467  0.16469  1.0000
  C   C23       1.0  0.88600  0.73776  0.00653  1.0000
  H   H9        1.0  0.89661  0.71727  0.02014  1.0000
  H   H10       1.0  0.82516  0.69568  0.04411  1.0000
  C   C24       1.0  0.93829  0.83092  0.00572  1.0000
  H   H11       1.0  0.94623  0.86141  0.01967  1.0000
  H   H12       1.0  0.99765  0.84235  0.03392  1.0000
  C   C25       1.0  0.61358  0.18868  0.28195  1.0000
  C   C26       1.0  0.57771  0.18848  0.27444  1.0000
  H   H13       1.0  0.57175  0.19597  0.21328  1.0000
  H   H14       1.0  0.63224  0.19839  0.22811  1.0000
  C   C27       1.0  0.60646  0.14122  0.07362  1.0000
  H   H15       1.0  0.56548  0.08872  0.00046  1.0000
  H   H16       1.0  0.58356  0.14377  0.10886  1.0000
  H   H17       1.0  0.63120  0.17061  0.05985  1.0000
  H   H18       1.0  0.61645  0.12568  0.11724  1.0000
  C   C28       1.0  0.49217  0.09302  0.01597  1.0000
  H   H19       1.0  0.53548  0.15348  0.04893  1.0000
  H   H20       1.0  0.46794  0.09022  0.05742  1.0000
  H   H21       1.0  0.50803  0.08188  0.05480  1.0000
  C   C29       1.0  0.80792  0.42654  0.28202  1.0000
  C   C30       1.0  0.80813  0.39087  0.27462  1.0000
  H   H22       1.0  0.80070  0.37743  0.21344  1.0000
  H   H23       1.0  0.79824  0.43549  0.22811  1.0000
  C   C31       1.0  0.85545  0.46713  0.07373  1.0000
  H   H24       1.0  0.90787  0.47857  0.00036  1.0000
  H   H25       1.0  0.85298  0.44175  0.10912  1.0000
  H   H26       1.0  0.82603  0.46243  0.06007  1.0000
  H   H27       1.0  0.87102  0.49273  0.11717  1.0000
  C   C32       1.0  0.90350  0.40090  0.01620  1.0000
  H   H28       1.0  0.84307  0.38385  0.04932  1.0000
  H   H29       1.0  0.90629  0.37951  0.05783  1.0000
  H   H30       1.0  0.91471  0.42796  0.05482  1.0000
  C   C33       1.0  0.56985  0.38290  0.28167  1.0000
  C   C34       1.0  0.60554  0.41878  0.27418  1.0000
  H   H31       1.0  0.61898  0.42474  0.21299  1.0000
  H   H32       1.0  0.56088  0.36425  0.22781  1.0000
  C   C35       1.0  0.52952  0.38999  0.07340  1.0000
  H   H33       1.0  0.51800  0.43095  0.00017  1.0000
  H   H34       1.0  0.55493  0.41291  0.10868  1.0000
  H   H35       1.0  0.53421  0.36528  0.05966  1.0000
  H   H36       1.0  0.50396  0.37996  0.11696  1.0000
  C   C36       1.0  0.59562  0.50428  0.01571  1.0000
  H   H37       1.0  0.61276  0.46096  0.04874  1.0000
  H   H38       1.0  0.61704  0.52850  0.05720  1.0000
  H   H39       1.0  0.56861  0.48842  0.05450  1.0000
  N   N7        1.0  0.99706  0.99930  0.33003  1.0000
  C   C37       1.0  0.03925  0.02049  0.32865  1.0000
  C   C38       1.0  0.97605  0.95710  0.32874  1.0000
  C   C39       1.0  0.97585  0.02027  0.32868  1.0000
  C   C40       1.0  0.98109  0.04663  0.25842  1.0000
  C   C41       1.0  0.96038  0.06749  0.25749  1.0000
  C   C42       1.0  0.93248  0.06198  0.32491  1.0000
  C   C43       1.0  0.92747  0.03536  0.39508  1.0000
  C   C44       1.0  0.94893  0.01524  0.39744  1.0000
  C   C45       1.0  0.06035  0.01509  0.25859  1.0000
  C   C46       1.0  0.10192  0.03572  0.25769  1.0000
  C   C47       1.0  0.12433  0.06368  0.32498  1.0000
  C   C48       1.0  0.10275  0.06885  0.39497  1.0000
  C   C49       1.0  0.06117  0.04747  0.39730  1.0000
  C   C50       1.0  0.98111  0.93521  0.39744  1.0000
  C   C51       1.0  0.96093  0.89363  0.39513  1.0000
  C   C52       1.0  0.93421  0.87203  0.32510  1.0000
  C   C53       1.0  0.92866  0.89443  0.25779  1.0000
  C   C54       1.0  0.94958  0.93600  0.25866  1.0000
  H   H40       1.0  0.11570  0.02950  0.20739  1.0000
  H   H41       1.0  0.04540  0.99544  0.20836  1.0000
  H   H42       1.0  0.04679  0.05213  0.44891  1.0000
  H   H43       1.0  0.11720  0.08881  0.44499  1.0000
  H   H44       1.0  0.00070  0.05131  0.20812  1.0000
  H   H45       1.0  0.96650  0.08741  0.20706  1.0000
  H   H46       1.0  0.00015  0.94960  0.44904  1.0000
  H   H47       1.0  0.96645  0.87919  0.44515  1.0000
  H   H48       1.0  0.90869  0.88064  0.20744  1.0000
  H   H49       1.0  0.94489  0.95094  0.20838  1.0000
  H   H50       1.0  0.94436  0.99628  0.44917  1.0000
  H   H51       1.0  0.90755  0.02987  0.44519  1.0000
  N   N8        1.0  0.42462  0.21317  0.34644  1.0000
  C   C55       1.0  0.44627  0.25490  0.36232  1.0000
  C   C56       1.0  0.38215  0.19171  0.34044  1.0000
  C   C57       1.0  0.44953  0.19634  0.33147  1.0000
  C   C58       1.0  0.48054  0.21344  0.26813  1.0000
  C   C59       1.0  0.51325  0.20778  0.27377  1.0000
  C   C60       1.0  0.51545  0.18175  0.33709  1.0000
  C   C61       1.0  0.48119  0.16030  0.39078  1.0000
  C   C62       1.0  0.45025  0.16883  0.39148  1.0000
  C   C63       1.0  0.45343  0.28121  0.29050  1.0000
  C   C64       1.0  0.48457  0.32036  0.29331  1.0000
  C   C65       1.0  0.51098  0.33483  0.36657  1.0000
  C   C66       1.0  0.50267  0.30906  0.44055  1.0000
  C   C67       1.0  0.47068  0.27002  0.43890  1.0000
  C   C68       1.0  0.36159  0.20174  0.27751  1.0000
  C   C69       1.0  0.32007  0.18227  0.27511  1.0000
  C   C70       1.0  0.29620  0.14944  0.33080  1.0000
  C   C71       1.0  0.31704  0.13919  0.39306  1.0000
  C   C72       1.0  0.35856  0.16046  0.39966  1.0000
  H   H52       1.0  0.48951  0.33734  0.23776  1.0000
  H   H53       1.0  0.43939  0.27106  0.23062  1.0000
  H   H54       1.0  0.46811  0.25127  0.48956  1.0000
  H   H55       1.0  0.52182  0.31730  0.49341  1.0000
  H   H56       1.0  0.48205  0.23419  0.22429  1.0000
  H   H57       1.0  0.53665  0.22531  0.23364  1.0000
  H   H58       1.0  0.37652  0.22425  0.23361  1.0000
  H   H59       1.0  0.30759  0.19328  0.23243  1.0000
  H   H60       1.0  0.30211  0.11573  0.43519  1.0000
  H   H61       1.0  0.37128  0.15264  0.44894  1.0000
  H   H62       1.0  0.42937  0.15606  0.44004  1.0000
  H   H63       1.0  0.47852  0.13886  0.43358  1.0000
  N   N9        1.0  0.78327  0.21303  0.34677  1.0000
  C   C73       1.0  0.74152  0.19301  0.36250  1.0000
  C   C74       1.0  0.80467  0.19195  0.34072  1.0000
  C   C75       1.0  0.80013  0.25479  0.33198  1.0000
  C   C76       1.0  0.78326  0.26874  0.26819  1.0000
  C   C77       1.0  0.78892  0.30712  0.27385  1.0000
  C   C78       1.0  0.81479  0.33530  0.33746  1.0000
  C   C79       1.0  0.83607  0.32241  0.39154  1.0000
  C   C80       1.0  0.82748  0.28293  0.39236  1.0000
  C   C81       1.0  0.71530  0.17401  0.29048  1.0000
  C   C82       1.0  0.67616  0.16601  0.29334  1.0000
  C   C83       1.0  0.66165  0.17783  0.36677  1.0000
  C   C84       1.0  0.68738  0.19516  0.44087  1.0000
  C   C85       1.0  0.72642  0.20219  0.43925  1.0000
  C   C86       1.0  0.79441  0.16115  0.27819  1.0000
  C   C87       1.0  0.81385  0.13908  0.27572  1.0000
  C   C88       1.0  0.84684  0.14817  0.33094  1.0000
  C   C89       1.0  0.85734  0.17945  0.39277  1.0000
  C   C90       1.0  0.83613  0.19977  0.39941  1.0000
  H   H64       1.0  0.65920  0.15407  0.23770  1.0000
  H   H65       1.0  0.72550  0.17026  0.23053  1.0000
  H   H66       1.0  0.74514  0.21826  0.49004  1.0000
  H   H67       1.0  0.67911  0.20597  0.49385  1.0000
  H   H68       1.0  0.76266  0.24955  0.22404  1.0000
  H   H69       1.0  0.77157  0.31305  0.23325  1.0000
  H   H70       1.0  0.77173  0.15342  0.23472  1.0000
  H   H71       1.0  0.80271  0.11547  0.23334  1.0000
  H   H72       1.0  0.88093  0.18807  0.43453  1.0000
  H   H73       1.0  0.84418  0.22049  0.44833  1.0000
  H   H74       1.0  0.84003  0.27474  0.44129  1.0000
  H   H75       1.0  0.85739  0.34112  0.43465  1.0000
  N   N10       1.0  0.78337  0.57176  0.34637  1.0000
  C   C91       1.0  0.80342  0.55009  0.36252  1.0000
  C   C92       1.0  0.80439  0.61423  0.34044  1.0000
  C   C93       1.0  0.74162  0.54680  0.33145  1.0000
  C   C94       1.0  0.72772  0.51588  0.26794  1.0000
  C   C95       1.0  0.68933  0.48318  0.27360  1.0000
  C   C96       1.0  0.66111  0.48099  0.33691  1.0000
  C   C97       1.0  0.67393  0.51525  0.39060  1.0000
  C   C98       1.0  0.71343  0.54615  0.39145  1.0000
  C   C99       1.0  0.82251  0.54292  0.29058  1.0000
  C   C100      1.0  0.83058  0.51182  0.29350  1.0000
  C   C101      1.0  0.81869  0.48544  0.36681  1.0000
  C   C102      1.0  0.80126  0.49379  0.44081  1.0000
  C   C103      1.0  0.79423  0.52578  0.43922  1.0000
  C   C104      1.0  0.83506  0.63480  0.27766  1.0000
  C   C105      1.0  0.85711  0.67632  0.27524  1.0000
  C   C106      1.0  0.84810  0.70018  0.33081  1.0000
  C   C107      1.0  0.81696  0.67935  0.39294  1.0000
  C   C108      1.0  0.79669  0.63783  0.39952  1.0000
  H   H76       1.0  0.84249  0.50681  0.23780  1.0000
  H   H77       1.0  0.82625  0.55689  0.23067  1.0000
  H   H78       1.0  0.77802  0.52836  0.48978  1.0000
  H   H79       1.0  0.79038  0.47465  0.49370  1.0000
  H   H80       1.0  0.74695  0.51438  0.22406  1.0000
  H   H81       1.0  0.68342  0.45982  0.23328  1.0000
  H   H82       1.0  0.84267  0.61987  0.23380  1.0000
  H   H83       1.0  0.88063  0.68880  0.23263  1.0000
  H   H84       1.0  0.80839  0.69428  0.43498  1.0000
  H   H85       1.0  0.77610  0.62511  0.44870  1.0000
  H   H86       1.0  0.72155  0.56699  0.44008  1.0000
  H   H87       1.0  0.65518  0.51792  0.43348  1.0000
  C   C109      1.0  0.23027  0.11176  0.40461  1.0000
  C   C110      1.0  0.18873  0.09083  0.40319  1.0000
  H   H88       1.0  0.17429  0.07882  0.46195  1.0000
  H   H89       1.0  0.24358  0.11512  0.46535  1.0000
  C   C111      1.0  0.28263  0.12908  0.65338  1.0000
  H   H90       1.0  0.24244  0.14835  0.61265  1.0000
  H   H91       1.0  0.26290  0.09805  0.63753  1.0000
  H   H92       1.0  0.30199  0.14317  0.59616  1.0000
  C   C112      1.0  0.16550  0.14693  0.64557  1.0000
  H   H93       1.0  0.17526  0.09807  0.61608  1.0000
  H   H94       1.0  0.14674  0.14128  0.58695  1.0000
  H   H95       1.0  0.19512  0.17053  0.62909  1.0000
  C   C113      1.0  0.88450  0.11991  0.40465  1.0000
  C   C114      1.0  0.90539  0.09926  0.40318  1.0000
  H   H96       1.0  0.91750  0.09691  0.46188  1.0000
  H   H97       1.0  0.88125  0.12995  0.46537  1.0000
  C   C115      1.0  0.86735  0.15493  0.65335  1.0000
  H   H98       1.0  0.84760  0.09537  0.61279  1.0000
  H   H99       1.0  0.89834  0.16599  0.63753  1.0000
  H   H100      1.0  0.85338  0.16033  0.59607  1.0000
  C   C116      1.0  0.84893  0.01983  0.64542  1.0000
  H   H101      1.0  0.89786  0.07841  0.61613  1.0000
  H   H102      1.0  0.85456  0.00673  0.58673  1.0000
  H   H103      1.0  0.82537  0.02590  0.62899  1.0000
  C   C117      1.0  0.87635  0.76609  0.40467  1.0000
  C   C118      1.0  0.89697  0.80763  0.40329  1.0000
  H   H104      1.0  0.89936  0.82206  0.46204  1.0000
  H   H105      1.0  0.86637  0.75277  0.46539  1.0000
  C   C119      1.0  0.84134  0.71390  0.65333  1.0000
  H   H106      1.0  0.90084  0.75398  0.61272  1.0000
  H   H107      1.0  0.83012  0.73370  0.63749  1.0000
  H   H108      1.0  0.83604  0.69455  0.59608  1.0000
  C   C120      1.0  0.97637  0.83089  0.64568  1.0000
  H   H109      1.0  0.91778  0.82117  0.61620  1.0000
  H   H110      1.0  0.98950  0.84966  0.58707  1.0000
  H   H111      1.0  0.97034  0.80127  0.62918  1.0000
  C   C121      1.0  0.55096  0.17872  0.34724  1.0000
  C   C122      1.0  0.56217  0.16705  0.42785  1.0000
  C   C123      1.0  0.59705  0.16438  0.43288  1.0000
  C   C124      1.0  0.62418  0.17630  0.36098  1.0000
  N   N11       1.0  0.60312  0.14877  0.50821  1.0000
  C   C125      1.0  0.57993  0.13738  0.58234  1.0000
  C   C126      1.0  0.54732  0.14382  0.58209  1.0000
  N   N12       1.0  0.54073  0.15795  0.50462  1.0000
  C   C127      1.0  0.59066  0.11762  0.65277  1.0000
  H   H112      1.0  0.61375  0.11220  0.62752  1.0000
  C   C128      1.0  0.51929  0.13669  0.65679  1.0000
  H   H113      1.0  0.49996  0.14816  0.63784  1.0000
  H   H114      1.0  0.47979  0.07488  0.62273  1.0000
  C   C129      1.0  0.81783  0.37387  0.34751  1.0000
  C   C130      1.0  0.82947  0.39677  0.42809  1.0000
  C   C131      1.0  0.83213  0.43433  0.43303  1.0000
  C   C132      1.0  0.82023  0.44952  0.36106  1.0000
  N   N13       1.0  0.84775  0.45604  0.50830  1.0000
  C   C133      1.0  0.85914  0.44429  0.58250  1.0000
  C   C134      1.0  0.85268  0.40523  0.58238  1.0000
  N   N14       1.0  0.83855  0.38447  0.50495  1.0000
  C   C135      1.0  0.87896  0.47484  0.65277  1.0000
  H   H115      1.0  0.88436  0.50333  0.62742  1.0000
  C   C136      1.0  0.85982  0.38438  0.65716  1.0000
  H   H116      1.0  0.84829  0.35355  0.63835  1.0000
  H   H117      1.0  0.92158  0.40654  0.62293  1.0000
  C   C137      1.0  0.62255  0.44550  0.34701  1.0000
  C   C138      1.0  0.59967  0.43429  0.42762  1.0000
  C   C139      1.0  0.56212  0.39941  0.43266  1.0000
  C   C140      1.0  0.54691  0.37228  0.36075  1.0000
  N   N15       1.0  0.54044  0.39333  0.50799  1.0000
  C   C141      1.0  0.55224  0.41651  0.58213  1.0000
  C   C142      1.0  0.59128  0.44912  0.58187  1.0000
  N   N16       1.0  0.61201  0.45572  0.50441  1.0000
  C   C143      1.0  0.52173  0.40578  0.65252  1.0000
  H   H118      1.0  0.49322  0.38268  0.62726  1.0000
  C   C144      1.0  0.61216  0.47714  0.65659  1.0000
  H   H119      1.0  0.64298  0.49647  0.63765  1.0000
  H   H120      1.0  0.58989  0.51666  0.62247  1.0000
