data_image0
_chemical_formula_structural       CNC2NC4NC18H14C2NC16H12C3NC2NC5NC4NC18H14CNC16H12C11H11CNCNC4NC16H13C3HCH3C2HCH3C2HCH3C2HCH3C2HCH3C2HCH3C3HCH3C2HCH3C3HCH3C3HCH3C3HCH3C2HCH3C7NC12H12C2NC3NC3NC18H14C12H12C3NC3NC3NC18H14C3NC3NC2NC5NC20H15C8NC14H13C3HCH3C4HCH3C4HCH3C4HCH3C4HCH3C4HCH3C3HCH3C4HCH3C3HCH3C3HCH3C3HCH3C4HCH3
_chemical_formula_sum              "C360 N24 H252"
_cell_length_a       57.1785
_cell_length_b       57.1784
_cell_length_c       15.0093
_cell_angle_alpha    90.0018
_cell_angle_beta     89.9654
_cell_angle_gamma    120

_space_group_name_H-M_alt    "P 1"
_space_group_IT_number       1

loop_
  _space_group_symop_operation_xyz
  'x, y, z'

loop_
  _atom_site_type_symbol
  _atom_site_label
  _atom_site_symmetry_multiplicity
  _atom_site_fract_x
  _atom_site_fract_y
  _atom_site_fract_z
  _atom_site_occupancy
  C   C1        1.0  0.28606  0.52930  0.31721  1.0000
  N   N1        1.0  0.27696  0.48745  0.32793  1.0000
  C   C2        1.0  0.30436  0.50248  0.32602  1.0000
  C   C3        1.0  0.32422  0.49434  0.32826  1.0000
  N   N2        1.0  0.29330  0.44432  0.33125  1.0000
  C   C4        1.0  0.29500  0.42155  0.33355  1.0000
  C   C5        1.0  0.32258  0.43023  0.33661  1.0000
  C   C6        1.0  0.33662  0.45798  0.33194  1.0000
  C   C7        1.0  0.27365  0.39418  0.33353  1.0000
  N   N3        1.0  0.23359  0.40150  0.33207  1.0000
  C   C8        1.0  0.20622  0.38649  0.33533  1.0000
  C   C9        1.0  0.22447  0.35955  0.33751  1.0000
  C   C10       1.0  0.21557  0.46757  0.32839  1.0000
  C   C11       1.0  0.23691  0.49494  0.32693  1.0000
  C   C12       1.0  0.22995  0.51589  0.32999  1.0000
  C   C13       1.0  0.21377  0.51834  0.26358  1.0000
  C   C14       1.0  0.20633  0.53833  0.26939  1.0000
  C   C15       1.0  0.21692  0.55856  0.33645  1.0000
  C   C16       1.0  0.14646  0.35388  0.27127  1.0000
  C   C17       1.0  0.11917  0.33353  0.27700  1.0000
  C   C18       1.0  0.28093  0.37350  0.33220  1.0000
  C   C19       1.0  0.29749  0.33351  0.33115  1.0000
  C   C20       1.0  0.30547  0.35327  0.26310  1.0000
  C   C21       1.0  0.29610  0.37177  0.26073  1.0000
  C   C22       1.0  0.35224  0.51489  0.32657  1.0000
  C   C23       1.0  0.36316  0.53286  0.25380  1.0000
  C   C24       1.0  0.38987  0.55450  0.25614  1.0000
  C   C25       1.0  0.40794  0.55724  0.32541  1.0000
  H   H1        1.0  0.39585  0.56844  0.20608  1.0000
  H   H2        1.0  0.35117  0.53144  0.20108  1.0000
  H   H3        1.0  0.28495  0.54650  0.31103  1.0000
  H   H4        1.0  0.26721  0.46814  0.33383  1.0000
  H   H5        1.0  0.24335  0.42083  0.32697  1.0000
  H   H6        1.0  0.35720  0.46931  0.33085  1.0000
  H   H7        1.0  0.33160  0.41872  0.34046  1.0000
  H   H8        1.0  0.30191  0.38517  0.20889  1.0000
  H   H9        1.0  0.31849  0.35464  0.21402  1.0000
  H   H10       1.0  0.22553  0.34226  0.33860  1.0000
  H   H11       1.0  0.15785  0.35337  0.21949  1.0000
  H   H12       1.0  0.11206  0.31864  0.22988  1.0000
  H   H13       1.0  0.19329  0.53807  0.22236  1.0000
  H   H14       1.0  0.20648  0.50494  0.21174  1.0000
  C   C26       1.0  0.53704  0.75659  0.31641  1.0000
  C   C27       1.0  0.56381  0.80169  0.32611  1.0000
  N   N4        1.0  0.62194  0.84881  0.33174  1.0000
  C   C28       1.0  0.64471  0.87328  0.33423  1.0000
  C   C29       1.0  0.63602  0.89217  0.33773  1.0000
  C   C30       1.0  0.60827  0.87846  0.33319  1.0000
  C   C31       1.0  0.67208  0.87932  0.33389  1.0000
  C   C32       1.0  0.67981  0.81959  0.33531  1.0000
  C   C33       1.0  0.70674  0.86479  0.33687  1.0000
  C   C34       1.0  0.59875  0.74785  0.32900  1.0000
  C   C35       1.0  0.54804  0.69525  0.26412  1.0000
  C   C36       1.0  0.52804  0.66783  0.26995  1.0000
  C   C37       1.0  0.71243  0.79241  0.27159  1.0000
  C   C38       1.0  0.73279  0.78548  0.27731  1.0000
  C   C39       1.0  0.69275  0.90728  0.33255  1.0000
  C   C40       1.0  0.71295  0.95205  0.26348  1.0000
  C   C41       1.0  0.69445  0.92418  0.26115  1.0000
  C   C42       1.0  0.53348  0.83019  0.25424  1.0000
  C   C43       1.0  0.51187  0.83530  0.25643  1.0000
  H   H15       1.0  0.49800  0.82741  0.20619  1.0000
  H   H16       1.0  0.53501  0.81972  0.20134  1.0000
  H   H17       1.0  0.51985  0.73827  0.31026  1.0000
  H   H18       1.0  0.59694  0.88771  0.33225  1.0000
  H   H19       1.0  0.64754  0.91270  0.34170  1.0000
  H   H20       1.0  0.68100  0.91659  0.20947  1.0000
  H   H21       1.0  0.71156  0.96370  0.21450  1.0000
  H   H22       1.0  0.72402  0.88315  0.33825  1.0000
  H   H23       1.0  0.71292  0.80425  0.21966  1.0000
  H   H24       1.0  0.74766  0.79323  0.23009  1.0000
  H   H25       1.0  0.52833  0.65503  0.22304  1.0000
  H   H26       1.0  0.56150  0.70135  0.21238  1.0000
  C   C44       1.0  0.28568  0.75629  0.32084  1.0000
  C   C45       1.0  0.30971  0.78030  0.31587  1.0000
  C   C46       1.0  0.30432  0.80151  0.32354  1.0000
  N   N5        1.0  0.27696  0.78937  0.32732  1.0000
  C   C47       1.0  0.26460  0.76198  0.32531  1.0000
  C   C48       1.0  0.23659  0.74210  0.32796  1.0000
  N   N6        1.0  0.21748  0.77300  0.33082  1.0000
  C   C49       1.0  0.19302  0.77131  0.33330  1.0000
  C   C50       1.0  0.17412  0.74373  0.33677  1.0000
  C   C51       1.0  0.18783  0.72968  0.33220  1.0000
  C   C52       1.0  0.18698  0.79264  0.33298  1.0000
  C   C53       1.0  0.20698  0.82060  0.33325  1.0000
  N   N7        1.0  0.23436  0.83272  0.33131  1.0000
  C   C54       1.0  0.24671  0.86009  0.33441  1.0000
  C   C55       1.0  0.22565  0.86576  0.34036  1.0000
  C   C56       1.0  0.20151  0.84182  0.33587  1.0000
  C   C57       1.0  0.27473  0.87994  0.33278  1.0000
  N   N8        1.0  0.29393  0.84902  0.32842  1.0000
  C   C58       1.0  0.31845  0.85076  0.32819  1.0000
  C   C59       1.0  0.32448  0.82942  0.32651  1.0000
  C   C60       1.0  0.35240  0.83638  0.32972  1.0000
  C   C61       1.0  0.37110  0.85266  0.26358  1.0000
  C   C62       1.0  0.39853  0.86009  0.26956  1.0000
  C   C63       1.0  0.40809  0.84942  0.33657  1.0000
  C   C64       1.0  0.28219  0.90797  0.33706  1.0000
  C   C65       1.0  0.27396  0.91991  0.27082  1.0000
  C   C66       1.0  0.28086  0.94719  0.27667  1.0000
  C   C67       1.0  0.29849  0.96450  0.34387  1.0000
  C   C68       1.0  0.15902  0.78536  0.33168  1.0000
  C   C69       1.0  0.10248  0.76880  0.33070  1.0000
  C   C70       1.0  0.11425  0.76077  0.26276  1.0000
  C   C71       1.0  0.14212  0.77013  0.26037  1.0000
  C   C72       1.0  0.22914  0.71408  0.32633  1.0000
  C   C73       1.0  0.23613  0.70315  0.25344  1.0000
  C   C74       1.0  0.23107  0.67644  0.25583  1.0000
  C   C75       1.0  0.21574  0.65836  0.32515  1.0000
  H   H27       1.0  0.23900  0.67046  0.20569  1.0000
  H   H28       1.0  0.24669  0.71516  0.20068  1.0000
  H   H29       1.0  0.32803  0.78142  0.30986  1.0000
  H   H30       1.0  0.26740  0.79911  0.33402  1.0000
  H   H31       1.0  0.24395  0.82296  0.32715  1.0000
  H   H32       1.0  0.17858  0.70911  0.33126  1.0000
  H   H33       1.0  0.15359  0.73471  0.34075  1.0000
  H   H34       1.0  0.14970  0.76427  0.20862  1.0000
  H   H35       1.0  0.10260  0.74771  0.21382  1.0000
  H   H36       1.0  0.18316  0.84075  0.33703  1.0000
  H   H37       1.0  0.26216  0.90858  0.21880  1.0000
  H   H38       1.0  0.27317  0.95434  0.22939  1.0000
  H   H39       1.0  0.41136  0.87321  0.22273  1.0000
  H   H40       1.0  0.36504  0.86003  0.21178  1.0000
  C   C76       1.0  0.78415  0.54164  0.32665  1.0000
  N   N9        1.0  0.79521  0.59980  0.33203  1.0000
  C   C77       1.0  0.79352  0.62257  0.33437  1.0000
  C   C78       1.0  0.76594  0.61390  0.33760  1.0000
  C   C79       1.0  0.75189  0.58615  0.33300  1.0000
  C   C80       1.0  0.81486  0.64994  0.33416  1.0000
  C   C81       1.0  0.88230  0.65763  0.33555  1.0000
  C   C82       1.0  0.86405  0.68457  0.33747  1.0000
  C   C83       1.0  0.87293  0.57654  0.32886  1.0000
  C   C84       1.0  0.87477  0.52579  0.26410  1.0000
  C   C85       1.0  0.88222  0.50581  0.26995  1.0000
  C   C86       1.0  0.94207  0.69021  0.27144  1.0000
  C   C87       1.0  0.96935  0.71058  0.27712  1.0000
  C   C88       1.0  0.80758  0.67062  0.33278  1.0000
  C   C89       1.0  0.78305  0.69082  0.26364  1.0000
  C   C90       1.0  0.79246  0.67235  0.26125  1.0000
  C   C91       1.0  0.72537  0.51129  0.25458  1.0000
  C   C92       1.0  0.69866  0.48965  0.25690  1.0000
  H   H41       1.0  0.69269  0.47573  0.20683  1.0000
  H   H42       1.0  0.73739  0.51272  0.20185  1.0000
  H   H43       1.0  0.80356  0.49762  0.31155  1.0000
  H   H44       1.0  0.73131  0.57482  0.33175  1.0000
  H   H45       1.0  0.75692  0.62542  0.34131  1.0000
  H   H46       1.0  0.78658  0.65889  0.20960  1.0000
  H   H47       1.0  0.77001  0.68942  0.21464  1.0000
  H   H48       1.0  0.86298  0.70186  0.33879  1.0000
  H   H49       1.0  0.93068  0.69071  0.21965  1.0000
  H   H50       1.0  0.97646  0.72545  0.22989  1.0000
  H   H51       1.0  0.89531  0.50610  0.22300  1.0000
  H   H52       1.0  0.88210  0.53922  0.21230  1.0000
  C   C93       1.0  0.44377  0.17082  0.33455  1.0000
  C   C94       1.0  0.45245  0.15192  0.33763  1.0000
  C   C95       1.0  0.48020  0.16562  0.33301  1.0000
  C   C96       1.0  0.54057  0.34885  0.26458  1.0000
  C   C97       1.0  0.56055  0.37628  0.27037  1.0000
  C   C98       1.0  0.37612  0.25168  0.27189  1.0000
  C   C99       1.0  0.35575  0.25861  0.27750  1.0000
  C   C100      1.0  0.37553  0.09212  0.26356  1.0000
  C   C101      1.0  0.39404  0.12000  0.26139  1.0000
  C   C102      1.0  0.55507  0.21399  0.25479  1.0000
  C   C103      1.0  0.57671  0.20891  0.25704  1.0000
  H   H53       1.0  0.59064  0.21687  0.20694  1.0000
  H   H54       1.0  0.55364  0.22457  0.20209  1.0000
  H   H55       1.0  0.56872  0.30582  0.31214  1.0000
  H   H56       1.0  0.49153  0.15637  0.33193  1.0000
  H   H57       1.0  0.40747  0.12763  0.20962  1.0000
  H   H58       1.0  0.37694  0.08052  0.21443  1.0000
  H   H59       1.0  0.36448  0.16100  0.33942  1.0000
  H   H60       1.0  0.37563  0.23979  0.22015  1.0000
  H   H61       1.0  0.34088  0.25082  0.23035  1.0000
  H   H62       1.0  0.56029  0.38906  0.22332  1.0000
  H   H63       1.0  0.52717  0.34273  0.21272  1.0000
  C   C104      1.0  0.77879  0.26380  0.31644  1.0000
  N   N10       1.0  0.81155  0.25474  0.32802  1.0000
  C   C105      1.0  0.82389  0.28214  0.32599  1.0000
  N   N11       1.0  0.87101  0.27111  0.33150  1.0000
  C   C106      1.0  0.89548  0.27281  0.33393  1.0000
  C   C107      1.0  0.91437  0.30039  0.33737  1.0000
  C   C108      1.0  0.90066  0.31443  0.33286  1.0000
  C   C109      1.0  0.90152  0.25148  0.33359  1.0000
  N   N12       1.0  0.85415  0.21140  0.33193  1.0000
  C   C110      1.0  0.84179  0.18402  0.33511  1.0000
  C   C111      1.0  0.88699  0.20230  0.33665  1.0000
  C   C112      1.0  0.77005  0.19335  0.32893  1.0000
  C   C113      1.0  0.76402  0.21468  0.32727  1.0000
  C   C114      1.0  0.71744  0.19147  0.26428  1.0000
  C   C115      1.0  0.69001  0.18405  0.27023  1.0000
  C   C116      1.0  0.68042  0.19471  0.33723  1.0000
  C   C117      1.0  0.81461  0.12423  0.27141  1.0000
  C   C118      1.0  0.80768  0.09694  0.27712  1.0000
  C   C119      1.0  0.92948  0.25878  0.33224  1.0000
  C   C120      1.0  0.98602  0.27533  0.33108  1.0000
  C   C121      1.0  0.97425  0.28335  0.26315  1.0000
  C   C122      1.0  0.94638  0.27398  0.26082  1.0000
  C   C123      1.0  0.85936  0.33003  0.32704  1.0000
  C   C124      1.0  0.85237  0.34098  0.25420  1.0000
  C   C125      1.0  0.85748  0.36770  0.25648  1.0000
  H   H64       1.0  0.84959  0.37370  0.20630  1.0000
  H   H65       1.0  0.84190  0.32900  0.20131  1.0000
  H   H66       1.0  0.76047  0.26267  0.31037  1.0000
  H   H67       1.0  0.82109  0.24501  0.33511  1.0000
  H   H68       1.0  0.90991  0.33501  0.33190  1.0000
  H   H69       1.0  0.93490  0.30941  0.34128  1.0000
  H   H70       1.0  0.93880  0.27984  0.20913  1.0000
  H   H71       1.0  0.98591  0.29640  0.21415  1.0000
  H   H72       1.0  0.90535  0.20338  0.33803  1.0000
  H   H73       1.0  0.82646  0.13560  0.21947  1.0000
  H   H74       1.0  0.81543  0.08983  0.22989  1.0000
  H   H75       1.0  0.67720  0.17096  0.22336  1.0000
  H   H76       1.0  0.72352  0.18412  0.21249  1.0000
  C   C126      1.0  0.21117  0.63114  0.32711  1.0000
  C   C127      1.0  0.20672  0.61509  0.24940  1.0000
  C   C128      1.0  0.20936  0.59184  0.25518  1.0000
  H   H77       1.0  0.20924  0.58258  0.19672  1.0000
  C   C129      1.0  0.19817  0.62033  0.16128  1.0000
  H   H78       1.0  0.19164  0.63523  0.16496  1.0000
  H   H79       1.0  0.18097  0.60180  0.13590  1.0000
  H   H80       1.0  0.21473  0.62717  0.11354  1.0000
  C   C130      1.0  0.45123  0.59151  0.24969  1.0000
  C   C131      1.0  0.47449  0.61740  0.25552  1.0000
  H   H81       1.0  0.48379  0.62653  0.19709  1.0000
  C   C132      1.0  0.44603  0.57774  0.16156  1.0000
  H   H82       1.0  0.43111  0.55631  0.16521  1.0000
  H   H83       1.0  0.46456  0.57906  0.13618  1.0000
  H   H84       1.0  0.43920  0.58747  0.11384  1.0000
  C   C133      1.0  0.47490  0.85968  0.24990  1.0000
  C   C134      1.0  0.44900  0.85705  0.25553  1.0000
  H   H85       1.0  0.43993  0.85724  0.19703  1.0000
  C   C135      1.0  0.48877  0.86830  0.16189  1.0000
  H   H86       1.0  0.51020  0.87482  0.16571  1.0000
  H   H87       1.0  0.48748  0.88553  0.13657  1.0000
  H   H88       1.0  0.47909  0.85178  0.11404  1.0000
  C   C136      1.0  0.88185  0.42905  0.25006  1.0000
  C   C137      1.0  0.87921  0.45231  0.25580  1.0000
  H   H89       1.0  0.87937  0.46158  0.19734  1.0000
  C   C138      1.0  0.89045  0.42383  0.16197  1.0000
  H   H90       1.0  0.89697  0.40892  0.16569  1.0000
  H   H91       1.0  0.90767  0.44236  0.13662  1.0000
  H   H92       1.0  0.87392  0.41700  0.11420  1.0000
  C   C139      1.0  0.63731  0.45265  0.25035  1.0000
  C   C140      1.0  0.61405  0.42675  0.25614  1.0000
  H   H93       1.0  0.60482  0.41763  0.19769  1.0000
  C   C141      1.0  0.64256  0.46644  0.16220  1.0000
  H   H94       1.0  0.65747  0.48787  0.16585  1.0000
  H   H95       1.0  0.62405  0.46512  0.13676  1.0000
  H   H96       1.0  0.64942  0.45672  0.11452  1.0000
  C   C142      1.0  0.61369  0.18453  0.25037  1.0000
  C   C143      1.0  0.63958  0.18716  0.25607  1.0000
  H   H97       1.0  0.64869  0.18700  0.19759  1.0000
  C   C144      1.0  0.59989  0.17598  0.16229  1.0000
  H   H98       1.0  0.57846  0.16947  0.16604  1.0000
  H   H99       1.0  0.60119  0.15877  0.13690  1.0000
  H   H100      1.0  0.60961  0.19253  0.11455  1.0000
  C   C145      1.0  0.01477  0.28561  0.33308  1.0000
  C   C146      1.0  0.03081  0.29012  0.25527  1.0000
  C   C147      1.0  0.05919  0.30641  0.26164  1.0000
  H   H101      1.0  0.06991  0.31190  0.20337  1.0000
  C   C148      1.0  0.01989  0.27791  0.16632  1.0000
  H   H102      1.0  0.99883  0.26190  0.16914  1.0000
  H   H103      1.0  0.03122  0.26874  0.13973  1.0000
  H   H104      1.0  0.02179  0.29348  0.11998  1.0000
  C   C149      1.0  0.77625  0.74058  0.25574  1.0000
  C   C150      1.0  0.75995  0.75266  0.26209  1.0000
  H   H105      1.0  0.75446  0.75787  0.20382  1.0000
  C   C151      1.0  0.78849  0.74187  0.16678  1.0000
  H   H106      1.0  0.80451  0.73685  0.16960  1.0000
  H   H107      1.0  0.79764  0.76237  0.14017  1.0000
  H   H108      1.0  0.77293  0.72818  0.12047  1.0000
  C   C152      1.0  0.33725  0.05155  0.33335  1.0000
  C   C153      1.0  0.32578  0.03556  0.25546  1.0000
  C   C154      1.0  0.31370  0.00718  0.26170  1.0000
  H   H109      1.0  0.30852  0.99650  0.20338  1.0000
  C   C155      1.0  0.32453  0.04654  0.16656  1.0000
  H   H110      1.0  0.32955  0.06759  0.16947  1.0000
  H   H111      1.0  0.30405  0.03521  0.13990  1.0000
  H   H112      1.0  0.33824  0.04469  0.12021  1.0000
  C   C156      1.0  0.07373  0.75853  0.33281  1.0000
  C   C157      1.0  0.05770  0.75399  0.25506  1.0000
  C   C158      1.0  0.02932  0.73770  0.26155  1.0000
  H   H113      1.0  0.01860  0.73220  0.20333  1.0000
  C   C159      1.0  0.06862  0.76619  0.16604  1.0000
  H   H114      1.0  0.08967  0.78220  0.16875  1.0000
  H   H115      1.0  0.05728  0.77534  0.13945  1.0000
  H   H116      1.0  0.06672  0.75060  0.11975  1.0000
  C   C160      1.0  0.30776  0.31504  0.33324  1.0000
  C   C161      1.0  0.31230  0.30351  0.25549  1.0000
  C   C162      1.0  0.32860  0.29144  0.26194  1.0000
  H   H117      1.0  0.33410  0.28621  0.20371  1.0000
  C   C163      1.0  0.30009  0.30220  0.16652  1.0000
  H   H118      1.0  0.28406  0.30722  0.16929  1.0000
  H   H119      1.0  0.29095  0.28170  0.13999  1.0000
  H   H120      1.0  0.31566  0.31588  0.12015  1.0000
  C   C164      1.0  0.76274  0.00859  0.25553  1.0000
  C   C165      1.0  0.77484  0.03697  0.26190  1.0000
  H   H121      1.0  0.78005  0.04768  0.20362  1.0000
  C   C166      1.0  0.76402  0.99765  0.16656  1.0000
  H   H122      1.0  0.75897  0.97660  0.16938  1.0000
  H   H123      1.0  0.78451  0.00898  0.13993  1.0000
  H   H124      1.0  0.75034  0.99955  0.12027  1.0000
  C   C167      1.0  0.31006  0.52925  0.32195  1.0000
  C   C168      1.0  0.26483  0.50269  0.32432  1.0000
  C   C169      1.0  0.31793  0.46692  0.33084  1.0000
  C   C170      1.0  0.24570  0.38624  0.33423  1.0000
  C   C171      1.0  0.20054  0.35977  0.34188  1.0000
  C   C172      1.0  0.18637  0.39467  0.33322  1.0000
  C   C173      1.0  0.19272  0.42213  0.32922  1.0000
  N   N13       1.0  0.21731  0.44479  0.32888  1.0000
  C   C174      1.0  0.18799  0.45884  0.32999  1.0000
  C   C175      1.0  0.17404  0.43109  0.32596  1.0000
  C   C176      1.0  0.23474  0.55699  0.39871  1.0000
  C   C177      1.0  0.23967  0.53525  0.39923  1.0000
  C   C178      1.0  0.15834  0.37411  0.33738  1.0000
  C   C179      1.0  0.10180  0.33390  0.34395  1.0000
  C   C180      1.0  0.11367  0.35530  0.40658  1.0000
  C   C181      1.0  0.14155  0.37381  0.40708  1.0000
  C   C182      1.0  0.27416  0.35496  0.40322  1.0000
  C   C183      1.0  0.28126  0.33469  0.40065  1.0000
  C   C184      1.0  0.36964  0.51817  0.39831  1.0000
  C   C185      1.0  0.39712  0.53817  0.39586  1.0000
  H   H125      1.0  0.40902  0.53890  0.44780  1.0000
  H   H126      1.0  0.36253  0.50558  0.45231  1.0000
  H   H127      1.0  0.32848  0.54646  0.32125  1.0000
  H   H128      1.0  0.26340  0.35569  0.45661  1.0000
  H   H129      1.0  0.27480  0.32107  0.45183  1.0000
  H   H130      1.0  0.18213  0.34267  0.34729  1.0000
  H   H131      1.0  0.17883  0.47023  0.33141  1.0000
  H   H132      1.0  0.15347  0.41979  0.32410  1.0000
  H   H133      1.0  0.14920  0.38830  0.45570  1.0000
  H   H134      1.0  0.10212  0.35788  0.45313  1.0000
  H   H135      1.0  0.25186  0.53460  0.44791  1.0000
  H   H136      1.0  0.24455  0.57179  0.44519  1.0000
  C   C186      1.0  0.53705  0.78062  0.32150  1.0000
  C   C187      1.0  0.56363  0.76198  0.32428  1.0000
  N   N14       1.0  0.57886  0.78935  0.32815  1.0000
  C   C188      1.0  0.57193  0.82970  0.32884  1.0000
  C   C189      1.0  0.59934  0.85083  0.33169  1.0000
  C   C190      1.0  0.68004  0.85932  0.33417  1.0000
  N   N15       1.0  0.66479  0.83195  0.33217  1.0000
  C   C191      1.0  0.70654  0.84066  0.34142  1.0000
  C   C192      1.0  0.67165  0.79158  0.33359  1.0000
  C   C193      1.0  0.64419  0.77045  0.32992  1.0000
  N   N16       1.0  0.62152  0.77237  0.32927  1.0000
  C   C194      1.0  0.60748  0.72900  0.33088  1.0000
  C   C195      1.0  0.63523  0.74281  0.32720  1.0000
  C   C196      1.0  0.57139  0.74182  0.32729  1.0000
  C   C197      1.0  0.55042  0.71390  0.33036  1.0000
  C   C198      1.0  0.50775  0.65822  0.33687  1.0000
  C   C199      1.0  0.50925  0.67764  0.39889  1.0000
  C   C200      1.0  0.53101  0.70430  0.39949  1.0000
  C   C201      1.0  0.69222  0.78412  0.33781  1.0000
  C   C202      1.0  0.73245  0.76781  0.34441  1.0000
  C   C203      1.0  0.71107  0.75834  0.40719  1.0000
  C   C204      1.0  0.69255  0.76770  0.40763  1.0000
  C   C205      1.0  0.71132  0.91904  0.40341  1.0000
  C   C206      1.0  0.73158  0.94641  0.40083  1.0000
  C   C207      1.0  0.73274  0.96382  0.33138  1.0000
  C   C208      1.0  0.55137  0.83715  0.32715  1.0000
  C   C209      1.0  0.54801  0.85120  0.39899  1.0000
  C   C210      1.0  0.50906  0.85056  0.32581  1.0000
  C   C211      1.0  0.52804  0.85872  0.39647  1.0000
  H   H137      1.0  0.52726  0.86986  0.44848  1.0000
  H   H138      1.0  0.56054  0.85663  0.45310  1.0000
  H   H139      1.0  0.51984  0.78181  0.32052  1.0000
  H   H140      1.0  0.59812  0.79889  0.33532  1.0000
  H   H141      1.0  0.64545  0.82235  0.32779  1.0000
  H   H142      1.0  0.71061  0.90754  0.45675  1.0000
  H   H143      1.0  0.74523  0.95358  0.45188  1.0000
  H   H144      1.0  0.72365  0.83937  0.34693  1.0000
  H   H145      1.0  0.59608  0.70845  0.33265  1.0000
  H   H146      1.0  0.64654  0.73354  0.32528  1.0000
  H   H147      1.0  0.67810  0.76092  0.45641  1.0000
  H   H148      1.0  0.70850  0.74424  0.45385  1.0000
  H   H149      1.0  0.53157  0.71719  0.44789  1.0000
  H   H150      1.0  0.49440  0.67268  0.44519  1.0000
  C   C212      1.0  0.21546  0.74838  0.33074  1.0000
  C   C213      1.0  0.29586  0.87361  0.32912  1.0000
  C   C214      1.0  0.33730  0.87834  0.33010  1.0000
  C   C215      1.0  0.32350  0.89229  0.32649  1.0000
  C   C216      1.0  0.38862  0.83149  0.39853  1.0000
  C   C217      1.0  0.36195  0.82657  0.39890  1.0000
  C   C218      1.0  0.30793  0.95257  0.40658  1.0000
  C   C219      1.0  0.29853  0.92468  0.40705  1.0000
  C   C220      1.0  0.14726  0.79219  0.40256  1.0000
  C   C221      1.0  0.11989  0.78507  0.40006  1.0000
  C   C222      1.0  0.21504  0.69668  0.39816  1.0000
  C   C223      1.0  0.20754  0.66920  0.39573  1.0000
  H   H151      1.0  0.19636  0.65729  0.44769  1.0000
  H   H152      1.0  0.20959  0.70380  0.45222  1.0000
  H   H153      1.0  0.28448  0.73788  0.32010  1.0000
  H   H154      1.0  0.15875  0.80298  0.45588  1.0000
  H   H155      1.0  0.11272  0.79155  0.45116  1.0000
  H   H156      1.0  0.22693  0.88416  0.34577  1.0000
  H   H157      1.0  0.35785  0.88749  0.33202  1.0000
  H   H158      1.0  0.33276  0.91286  0.32467  1.0000
  H   H159      1.0  0.30534  0.91701  0.45569  1.0000
  H   H160      1.0  0.32201  0.96408  0.45328  1.0000
  H   H161      1.0  0.34904  0.81428  0.44734  1.0000
  H   H162      1.0  0.39356  0.82162  0.44494  1.0000
  C   C224      1.0  0.77845  0.51487  0.32258  1.0000
  C   C225      1.0  0.80245  0.51483  0.31760  1.0000
  C   C226      1.0  0.82368  0.54143  0.32481  1.0000
  N   N17       1.0  0.81155  0.55667  0.32850  1.0000
  C   C227      1.0  0.76428  0.54979  0.32905  1.0000
  C   C228      1.0  0.77057  0.57720  0.33173  1.0000
  C   C229      1.0  0.84281  0.65788  0.33457  1.0000
  N   N18       1.0  0.85492  0.64262  0.33242  1.0000
  C   C230      1.0  0.88797  0.68435  0.34185  1.0000
  C   C231      1.0  0.90214  0.64945  0.33360  1.0000
  C   C232      1.0  0.89580  0.62199  0.32971  1.0000
  N   N19       1.0  0.87120  0.59933  0.32926  1.0000
  C   C233      1.0  0.90052  0.58527  0.33046  1.0000
  C   C234      1.0  0.91447  0.61303  0.32664  1.0000
  C   C235      1.0  0.85159  0.54918  0.32740  1.0000
  C   C236      1.0  0.85855  0.52822  0.33047  1.0000
  C   C237      1.0  0.87160  0.48557  0.33702  1.0000
  C   C238      1.0  0.85373  0.48711  0.39921  1.0000
  C   C239      1.0  0.84881  0.50886  0.39973  1.0000
  C   C240      1.0  0.93017  0.67001  0.33769  1.0000
  C   C241      1.0  0.98670  0.71024  0.34408  1.0000
  C   C242      1.0  0.97482  0.68885  0.40682  1.0000
  C   C243      1.0  0.94694  0.67034  0.40742  1.0000
  C   C244      1.0  0.81436  0.68917  0.40369  1.0000
  C   C245      1.0  0.80726  0.70945  0.40105  1.0000
  C   C246      1.0  0.79104  0.71061  0.33158  1.0000
  C   C247      1.0  0.73627  0.52923  0.32738  1.0000
  C   C248      1.0  0.71884  0.52593  0.39912  1.0000
  C   C249      1.0  0.68055  0.48691  0.32613  1.0000
  C   C250      1.0  0.69135  0.50595  0.39664  1.0000
  H   H163      1.0  0.67942  0.50523  0.44852  1.0000
  H   H164      1.0  0.72593  0.53853  0.45311  1.0000
  H   H165      1.0  0.76003  0.49766  0.32190  1.0000
  H   H166      1.0  0.82130  0.57597  0.33449  1.0000
  H   H167      1.0  0.84516  0.62328  0.32790  1.0000
  H   H168      1.0  0.82511  0.68846  0.45707  1.0000
  H   H169      1.0  0.81371  0.72308  0.45217  1.0000
  H   H170      1.0  0.90638  0.70146  0.34733  1.0000
  H   H171      1.0  0.90967  0.57387  0.33234  1.0000
  H   H172      1.0  0.93504  0.62432  0.32499  1.0000
  H   H173      1.0  0.93928  0.65587  0.45613  1.0000
  H   H174      1.0  0.98636  0.68629  0.45339  1.0000
  H   H175      1.0  0.83657  0.50949  0.44834  1.0000
  H   H176      1.0  0.84390  0.47231  0.44569  1.0000
  C   C251      1.0  0.55147  0.26347  0.32307  1.0000
  C   C252      1.0  0.55152  0.28751  0.31832  1.0000
  C   C253      1.0  0.52491  0.28213  0.32542  1.0000
  N   N20       1.0  0.50967  0.25477  0.32904  1.0000
  C   C254      1.0  0.52470  0.24240  0.32714  1.0000
  C   C255      1.0  0.51656  0.21439  0.32937  1.0000
  C   C256      1.0  0.48914  0.19326  0.33192  1.0000
  N   N21       1.0  0.46654  0.19529  0.33230  1.0000
  C   C257      1.0  0.41640  0.16480  0.33443  1.0000
  C   C258      1.0  0.40846  0.18480  0.33513  1.0000
  N   N22       1.0  0.42372  0.21218  0.33299  1.0000
  C   C259      1.0  0.40871  0.22455  0.33619  1.0000
  C   C260      1.0  0.38199  0.20350  0.34272  1.0000
  C   C261      1.0  0.38177  0.17935  0.33837  1.0000
  C   C262      1.0  0.41688  0.25256  0.33403  1.0000
  C   C263      1.0  0.44435  0.27368  0.33010  1.0000
  N   N23       1.0  0.46701  0.27175  0.32984  1.0000
  C   C264      1.0  0.48979  0.29627  0.32939  1.0000
  C   C265      1.0  0.48105  0.31512  0.33094  1.0000
  C   C266      1.0  0.45331  0.30131  0.32683  1.0000
  C   C267      1.0  0.51715  0.30229  0.32799  1.0000
  C   C268      1.0  0.53811  0.33021  0.33102  1.0000
  C   C269      1.0  0.58076  0.38591  0.33745  1.0000
  C   C270      1.0  0.57919  0.36652  0.39973  1.0000
  C   C271      1.0  0.55745  0.33985  0.40027  1.0000
  C   C272      1.0  0.39633  0.26003  0.33807  1.0000
  C   C273      1.0  0.35609  0.27634  0.34439  1.0000
  C   C274      1.0  0.37747  0.28587  0.40708  1.0000
  C   C275      1.0  0.39599  0.27651  0.40770  1.0000
  C   C276      1.0  0.39572  0.13684  0.33294  1.0000
  C   C277      1.0  0.37715  0.12502  0.40384  1.0000
  C   C278      1.0  0.35687  0.09765  0.40109  1.0000
  C   C279      1.0  0.35573  0.08030  0.33148  1.0000
  C   C280      1.0  0.53711  0.20692  0.32762  1.0000
  C   C281      1.0  0.54040  0.19278  0.39931  1.0000
  C   C282      1.0  0.57945  0.19356  0.32626  1.0000
  C   C283      1.0  0.56039  0.18529  0.39678  1.0000
  H   H177      1.0  0.56113  0.17411  0.44869  1.0000
  H   H178      1.0  0.52781  0.18729  0.45335  1.0000
  H   H179      1.0  0.56868  0.26226  0.32237  1.0000
  H   H180      1.0  0.49036  0.24521  0.33495  1.0000
  H   H181      1.0  0.44305  0.22176  0.32789  1.0000
  H   H182      1.0  0.44093  0.13139  0.34143  1.0000
  H   H183      1.0  0.37784  0.13647  0.45729  1.0000
  H   H184      1.0  0.34322  0.09045  0.45218  1.0000
  H   H185      1.0  0.36488  0.20480  0.34807  1.0000
  H   H186      1.0  0.49245  0.33567  0.33236  1.0000
  H   H187      1.0  0.44200  0.31058  0.32491  1.0000
  H   H188      1.0  0.41046  0.28335  0.45637  1.0000
  H   H189      1.0  0.38003  0.30000  0.45360  1.0000
  H   H190      1.0  0.55679  0.32700  0.44898  1.0000
  H   H191      1.0  0.59398  0.37150  0.44623  1.0000
  C   C284      1.0  0.80281  0.28781  0.32148  1.0000
  C   C285      1.0  0.78418  0.24260  0.32425  1.0000
  C   C286      1.0  0.85190  0.30202  0.32868  1.0000
  C   C287      1.0  0.87303  0.29574  0.33144  1.0000
  C   C288      1.0  0.88152  0.22353  0.33393  1.0000
  C   C289      1.0  0.86286  0.17836  0.34122  1.0000
  C   C290      1.0  0.81378  0.16417  0.33341  1.0000
  C   C291      1.0  0.79265  0.17050  0.32976  1.0000
  N   N24       1.0  0.79457  0.19510  0.32914  1.0000
  C   C292      1.0  0.75121  0.16577  0.33080  1.0000
  C   C293      1.0  0.76501  0.15182  0.32707  1.0000
  C   C294      1.0  0.73611  0.20773  0.33046  1.0000
  C   C295      1.0  0.69986  0.21263  0.39918  1.0000
  C   C296      1.0  0.72652  0.21752  0.39966  1.0000
  C   C297      1.0  0.80632  0.13614  0.33763  1.0000
  C   C298      1.0  0.79000  0.07960  0.34423  1.0000
  C   C299      1.0  0.78053  0.09150  0.40702  1.0000
  C   C300      1.0  0.78989  0.11938  0.40746  1.0000
  C   C301      1.0  0.94124  0.25196  0.40313  1.0000
  C   C302      1.0  0.96862  0.25909  0.40055  1.0000
  C   C303      1.0  0.87342  0.34742  0.39887  1.0000
  C   C304      1.0  0.87276  0.38576  0.32585  1.0000
  C   C305      1.0  0.88093  0.37491  0.39642  1.0000
  H   H192      1.0  0.89208  0.38680  0.44842  1.0000
  H   H193      1.0  0.87885  0.34030  0.45293  1.0000
  H   H194      1.0  0.80401  0.30622  0.32056  1.0000
  H   H195      1.0  0.84455  0.22115  0.32751  1.0000
  H   H196      1.0  0.92974  0.24118  0.45649  1.0000
  H   H197      1.0  0.97578  0.25261  0.45163  1.0000
  H   H198      1.0  0.86157  0.15997  0.34675  1.0000
  H   H199      1.0  0.73065  0.15661  0.33260  1.0000
  H   H200      1.0  0.75575  0.13125  0.32513  1.0000
  H   H201      1.0  0.78311  0.12704  0.45625  1.0000
  H   H202      1.0  0.76643  0.07997  0.45369  1.0000
  H   H203      1.0  0.73942  0.22984  0.44802  1.0000
  H   H204      1.0  0.69491  0.22251  0.44554  1.0000
  C   C306      1.0  0.21199  0.58103  0.33723  1.0000
  C   C307      1.0  0.21092  0.59431  0.41639  1.0000
  C   C308      1.0  0.21272  0.61984  0.40947  1.0000
  H   H205      1.0  0.21509  0.63030  0.46721  1.0000
  C   C309      1.0  0.20675  0.58271  0.50792  1.0000
  H   H206      1.0  0.20008  0.56122  0.50767  1.0000
  H   H207      1.0  0.19101  0.58476  0.54227  1.0000
  H   H208      1.0  0.22540  0.59346  0.54618  1.0000
  C   C310      1.0  0.48525  0.63083  0.33759  1.0000
  C   C311      1.0  0.47193  0.61650  0.41673  1.0000
  C   C312      1.0  0.44641  0.59277  0.40976  1.0000
  C   C313      1.0  0.43515  0.57991  0.32738  1.0000
  H   H209      1.0  0.43591  0.58466  0.46748  1.0000
  C   C314      1.0  0.48346  0.62395  0.50830  1.0000
  H   H210      1.0  0.50495  0.63879  0.50812  1.0000
  H   H211      1.0  0.48140  0.60618  0.54274  1.0000
  H   H212      1.0  0.47267  0.63186  0.54644  1.0000
  C   C315      1.0  0.43549  0.85436  0.33750  1.0000
  C   C316      1.0  0.44975  0.85533  0.41674  1.0000
  C   C317      1.0  0.47347  0.85353  0.40993  1.0000
  C   C318      1.0  0.48642  0.85516  0.32765  1.0000
  H   H213      1.0  0.48151  0.85110  0.46771  1.0000
  C   C319      1.0  0.44222  0.85939  0.50826  1.0000
  H   H214      1.0  0.42738  0.86605  0.50797  1.0000
  H   H215      1.0  0.45996  0.87510  0.54279  1.0000
  H   H216      1.0  0.43428  0.84070  0.54637  1.0000
  C   C320      1.0  0.87655  0.46311  0.33783  1.0000
  C   C321      1.0  0.87756  0.44980  0.41701  1.0000
  C   C322      1.0  0.87575  0.42428  0.41011  1.0000
  C   C323      1.0  0.87736  0.41300  0.32777  1.0000
  H   H217      1.0  0.87335  0.41380  0.46787  1.0000
  C   C324      1.0  0.88167  0.46138  0.50854  1.0000
  H   H218      1.0  0.88834  0.48288  0.50828  1.0000
  H   H219      1.0  0.89739  0.45933  0.54293  1.0000
  H   H220      1.0  0.86299  0.45062  0.54677  1.0000
  C   C325      1.0  0.60323  0.41332  0.33820  1.0000
  C   C326      1.0  0.61649  0.42766  0.41736  1.0000
  C   C327      1.0  0.64201  0.45139  0.41044  1.0000
  C   C328      1.0  0.65333  0.46426  0.32807  1.0000
  H   H221      1.0  0.65246  0.45949  0.46819  1.0000
  C   C329      1.0  0.60488  0.42022  0.50889  1.0000
  H   H222      1.0  0.58338  0.40539  0.50862  1.0000
  H   H223      1.0  0.60690  0.43800  0.54321  1.0000
  H   H224      1.0  0.61562  0.41232  0.54719  1.0000
  C   C330      1.0  0.65303  0.18982  0.33807  1.0000
  C   C331      1.0  0.63872  0.18880  0.41730  1.0000
  C   C332      1.0  0.61499  0.19060  0.41044  1.0000
  C   C333      1.0  0.60212  0.18901  0.32812  1.0000
  H   H225      1.0  0.60690  0.19298  0.46821  1.0000
  C   C334      1.0  0.64620  0.18471  0.50882  1.0000
  H   H226      1.0  0.66104  0.17806  0.50855  1.0000
  H   H227      1.0  0.62844  0.16900  0.54332  1.0000
  H   H228      1.0  0.65411  0.20340  0.54695  1.0000
  C   C335      1.0  0.07304  0.31519  0.34406  1.0000
  C   C336      1.0  0.05699  0.30599  0.42297  1.0000
  C   C337      1.0  0.02858  0.29342  0.41574  1.0000
  H   H229      1.0  0.01777  0.28985  0.47346  1.0000
  C   C338      1.0  0.06787  0.30756  0.51444  1.0000
  H   H230      1.0  0.08888  0.31240  0.51417  1.0000
  H   H231      1.0  0.05645  0.28805  0.54790  1.0000
  H   H232      1.0  0.06608  0.32268  0.55351  1.0000
  C   C339      1.0  0.75115  0.75775  0.34452  1.0000
  C   C340      1.0  0.76036  0.75094  0.42343  1.0000
  C   C341      1.0  0.77293  0.73509  0.41622  1.0000
  C   C342      1.0  0.78076  0.72908  0.33357  1.0000
  H   H233      1.0  0.77650  0.72787  0.47395  1.0000
  C   C343      1.0  0.75881  0.76029  0.51487  1.0000
  H   H234      1.0  0.75398  0.77647  0.51456  1.0000
  H   H235      1.0  0.77831  0.76838  0.54827  1.0000
  H   H236      1.0  0.74368  0.74339  0.55403  1.0000
  C   C344      1.0  0.30857  0.99327  0.34406  1.0000
  C   C345      1.0  0.31534  0.00926  0.42303  1.0000
  C   C346      1.0  0.33120  0.03768  0.41595  1.0000
  H   H237      1.0  0.33839  0.04844  0.47372  1.0000
  C   C347      1.0  0.30594  0.99832  0.51444  1.0000
  H   H238      1.0  0.28976  0.97732  0.51404  1.0000
  H   H239      1.0  0.29784  0.00973  0.54787  1.0000
  H   H240      1.0  0.32281  0.00007  0.55361  1.0000
  C   C348      1.0  0.01547  0.72895  0.34404  1.0000
  C   C349      1.0  0.03151  0.73816  0.42287  1.0000
  C   C350      1.0  0.05992  0.75073  0.41554  1.0000
  H   H241      1.0  0.07073  0.75431  0.47321  1.0000
  C   C351      1.0  0.02064  0.73662  0.51438  1.0000
  H   H242      1.0  0.99963  0.73178  0.51418  1.0000
  H   H243      1.0  0.03206  0.75613  0.54774  1.0000
  H   H244      1.0  0.02242  0.72150  0.55349  1.0000
  C   C352      1.0  0.33737  0.28637  0.34441  1.0000
  C   C353      1.0  0.32815  0.29322  0.42326  1.0000
  C   C354      1.0  0.31558  0.30905  0.41594  1.0000
  H   H245      1.0  0.31200  0.31629  0.47362  1.0000
  C   C355      1.0  0.32969  0.28390  0.51476  1.0000
  H   H246      1.0  0.33454  0.26773  0.51457  1.0000
  H   H247      1.0  0.31018  0.27581  0.54818  1.0000
  H   H248      1.0  0.34480  0.30081  0.55383  1.0000
  C   C356      1.0  0.77993  0.05083  0.34433  1.0000
  C   C357      1.0  0.77311  0.03479  0.42323  1.0000
  C   C358      1.0  0.75725  0.00638  0.41603  1.0000
  C   C359      1.0  0.75123  0.99257  0.33336  1.0000
  H   H249      1.0  0.75003  0.99559  0.47375  1.0000
  C   C360      1.0  0.78246  0.04568  0.51467  1.0000
  H   H250      1.0  0.79865  0.06668  0.51436  1.0000
  H   H251      1.0  0.79054  0.03425  0.54804  1.0000
  H   H252      1.0  0.76557  0.04391  0.55385  1.0000
