data_image0
_chemical_formula_structural       C2NC2OH3C2NC2OH3C2NC2OH3NCHNCHNCHC2NC2OH3C2NC2OH3C2NC2OH3C2NC2OH3C2NC2OH3C2NC2OH3NCHNCHNCHNCHNCHNCHC2NC2OH3C2NC2OH3C2NC2OH3C2NC2OH3C2NC2OH3C2NC2OH3CNCNCNCNCNCNCNCNCNCNCNCNCNCNCNCNCNCNCNCNCNCNCNCNCNCNCNCNCNCNCNCNCNCNCNCNCNCNCNCNCNCNCNCNCNCNCNCN2CHNCHNCHC2NC2OH3C2NC2OH3C2NC2OH3NCHNCHNCHNCHNCHNCHC2NC2OH3C2NC2OH3C2NC2OH3C2NC2OH3C2NC2OH3C2NC2OH3NCHNCHNCHNCHNCHNCH
_chemical_formula_sum              "C168 N96 O24 H96"
_cell_length_a       41.3966
_cell_length_b       41.3966
_cell_length_c       14.8394
_cell_angle_alpha    90
_cell_angle_beta     90
_cell_angle_gamma    120

_space_group_name_H-M_alt    "P 1"
_space_group_IT_number       1

loop_
  _space_group_symop_operation_xyz
  'x, y, z'

loop_
  _atom_site_type_symbol
  _atom_site_label
  _atom_site_symmetry_multiplicity
  _atom_site_fract_x
  _atom_site_fract_y
  _atom_site_fract_z
  _atom_site_occupancy
  C   C1        1.0  0.00440  0.07238  0.32936  1.0000
  C   C2        1.0  0.00863  0.14387  0.33403  1.0000
  N   N1        1.0  0.97625  0.11116  0.32009  1.0000
  C   C3        1.0  0.97224  0.07622  0.31690  1.0000
  C   C4        1.0  0.93420  0.04499  0.29691  1.0000
  O   O1        1.0  0.93287  0.02642  0.21433  1.0000
  H   H1        1.0  0.91406  0.05476  0.29294  1.0000
  H   H2        1.0  0.92509  0.02482  0.35185  1.0000
  H   H3        1.0  0.93829  0.04402  0.16423  1.0000
  C   C5        1.0  0.94116  0.93474  0.32935  1.0000
  C   C6        1.0  0.86967  0.86747  0.33400  1.0000
  N   N2        1.0  0.90238  0.86782  0.32005  1.0000
  C   C7        1.0  0.93732  0.89874  0.31683  1.0000
  C   C8        1.0  0.96855  0.89193  0.29689  1.0000
  O   O2        1.0  0.98714  0.90918  0.21433  1.0000
  H   H4        1.0  0.95878  0.86203  0.29291  1.0000
  H   H5        1.0  0.98871  0.90299  0.35186  1.0000
  H   H6        1.0  0.96954  0.89700  0.16421  1.0000
  C   C9        1.0  0.07879  0.00913  0.32936  1.0000
  C   C10       1.0  0.14606  0.00491  0.33403  1.0000
  N   N3        1.0  0.14572  0.03728  0.32008  1.0000
  C   C11       1.0  0.11480  0.04130  0.31689  1.0000
  C   C12       1.0  0.12160  0.07934  0.29689  1.0000
  O   O3        1.0  0.10436  0.08066  0.21430  1.0000
  H   H7        1.0  0.15151  0.09947  0.29290  1.0000
  H   H8        1.0  0.11055  0.08845  0.35183  1.0000
  H   H9        1.0  0.11654  0.07523  0.16420  1.0000
  N   N4        1.0  0.13764  0.33274  0.32865  1.0000
  C   C13       1.0  0.11204  0.29540  0.32466  1.0000
  H   H10       1.0  0.11950  0.27736  0.29781  1.0000
  N   N5        1.0  0.68080  0.80761  0.32864  1.0000
  C   C14       1.0  0.71813  0.81934  0.32461  1.0000
  H   H11       1.0  0.73619  0.84486  0.29782  1.0000
  N   N6        1.0  0.20590  0.87589  0.32875  1.0000
  C   C15       1.0  0.19417  0.90149  0.32475  1.0000
  H   H12       1.0  0.16865  0.89403  0.29793  1.0000
  C   C16       1.0  0.36269  0.12317  0.32772  1.0000
  C   C17       1.0  0.28514  0.06852  0.32823  1.0000
  N   N7        1.0  0.31235  0.06169  0.29934  1.0000
  C   C18       1.0  0.34964  0.08617  0.29587  1.0000
  C   C19       1.0  0.37264  0.07134  0.25647  1.0000
  O   O4        1.0  0.39333  0.09224  0.17926  1.0000
  H   H13       1.0  0.35536  0.04205  0.23673  1.0000
  H   H14       1.0  0.39207  0.07215  0.30724  1.0000
  H   H15       1.0  0.37551  0.08890  0.13116  1.0000
  C   C20       1.0  0.77131  0.65084  0.32767  1.0000
  C   C21       1.0  0.79418  0.72839  0.32839  1.0000
  N   N8        1.0  0.76014  0.70118  0.29945  1.0000
  C   C22       1.0  0.74736  0.66390  0.29588  1.0000
  C   C23       1.0  0.70950  0.64088  0.25657  1.0000
  O   O5        1.0  0.70969  0.62020  0.17932  1.0000
  H   H16       1.0  0.69749  0.65816  0.23692  1.0000
  H   H17       1.0  0.69091  0.62145  0.30738  1.0000
  H   H18       1.0  0.72414  0.63802  0.13121  1.0000
  C   C24       1.0  0.89035  0.24222  0.32773  1.0000
  C   C25       1.0  0.94502  0.21935  0.32838  1.0000
  N   N9        1.0  0.95185  0.25339  0.29951  1.0000
  C   C26       1.0  0.92736  0.26619  0.29600  1.0000
  C   C27       1.0  0.94220  0.30404  0.25667  1.0000
  O   O6        1.0  0.92133  0.30384  0.17941  1.0000
  H   H19       1.0  0.97149  0.31605  0.23702  1.0000
  H   H20       1.0  0.94135  0.32263  0.30747  1.0000
  H   H21       1.0  0.92470  0.28939  0.13131  1.0000
  C   C28       1.0  0.26219  0.46226  0.33260  1.0000
  C   C29       1.0  0.33987  0.49520  0.34399  1.0000
  N   N10       1.0  0.32366  0.51142  0.29742  1.0000
  C   C30       1.0  0.28627  0.49696  0.28897  1.0000
  C   C31       1.0  0.27435  0.51801  0.22930  1.0000
  O   O7        1.0  0.24857  0.49486  0.16133  1.0000
  H   H22       1.0  0.29837  0.54134  0.19638  1.0000
  H   H23       1.0  0.26111  0.53017  0.26940  1.0000
  H   H24       1.0  0.26162  0.48644  0.12041  1.0000
  C   C32       1.0  0.55126  0.80264  0.33295  1.0000
  C   C33       1.0  0.51831  0.84736  0.34433  1.0000
  N   N11       1.0  0.50210  0.81493  0.29774  1.0000
  C   C34       1.0  0.51655  0.79200  0.28932  1.0000
  C   C35       1.0  0.49554  0.75908  0.22949  1.0000
  O   O8        1.0  0.51873  0.75652  0.16150  1.0000
  H   H25       1.0  0.47221  0.75977  0.19658  1.0000
  H   H26       1.0  0.48338  0.73364  0.26946  1.0000
  H   H27       1.0  0.52715  0.77802  0.12069  1.0000
  C   C36       1.0  0.21088  0.75134  0.33274  1.0000
  C   C37       1.0  0.16614  0.67367  0.34391  1.0000
  N   N12       1.0  0.19858  0.68989  0.29740  1.0000
  C   C38       1.0  0.22151  0.72728  0.28905  1.0000
  C   C39       1.0  0.25450  0.73922  0.22942  1.0000
  O   O9        1.0  0.25715  0.76504  0.16152  1.0000
  H   H28       1.0  0.25382  0.71522  0.19644  1.0000
  H   H29       1.0  0.27989  0.75244  0.26956  1.0000
  H   H30       1.0  0.23570  0.75201  0.12056  1.0000
  N   N13       1.0  0.44670  0.26936  0.31187  1.0000
  C   C40       1.0  0.46073  0.30661  0.30269  1.0000
  H   H31       1.0  0.44698  0.31583  0.26240  1.0000
  N   N14       1.0  0.83346  0.56683  0.31216  1.0000
  C   C41       1.0  0.85669  0.55281  0.30290  1.0000
  H   H32       1.0  0.87959  0.56652  0.26239  1.0000
  N   N15       1.0  0.74417  0.18003  0.31197  1.0000
  C   C42       1.0  0.70693  0.15681  0.30271  1.0000
  H   H33       1.0  0.69773  0.13384  0.26244  1.0000
  N   N16       1.0  0.13704  0.48515  0.31090  1.0000
  C   C43       1.0  0.12651  0.51084  0.29719  1.0000
  H   H34       1.0  0.10385  0.50364  0.25755  1.0000
  N   N17       1.0  0.52840  0.65460  0.31083  1.0000
  C   C44       1.0  0.50271  0.61838  0.29716  1.0000
  H   H35       1.0  0.50991  0.60289  0.25766  1.0000
  N   N18       1.0  0.35892  0.87652  0.31101  1.0000
  C   C45       1.0  0.39515  0.88705  0.29731  1.0000
  H   H36       1.0  0.41062  0.90971  0.25769  1.0000
  C   C46       1.0  0.49607  0.16181  0.32905  1.0000
  C   C47       1.0  0.55306  0.14395  0.34298  1.0000
  N   N19       1.0  0.55899  0.17596  0.30330  1.0000
  C   C48       1.0  0.53264  0.18637  0.29496  1.0000
  C   C49       1.0  0.54366  0.22109  0.24308  1.0000
  O   O10       1.0  0.51943  0.21489  0.16811  1.0000
  H   H37       1.0  0.57234  0.23338  0.21833  1.0000
  H   H38       1.0  0.54296  0.24176  0.28703  1.0000
  H   H39       1.0  0.52242  0.19858  0.12466  1.0000
  C   C50       1.0  0.67661  0.51746  0.32881  1.0000
  C   C51       1.0  0.60176  0.46043  0.34286  1.0000
  N   N20       1.0  0.62786  0.45452  0.30319  1.0000
  C   C52       1.0  0.66460  0.48088  0.29478  1.0000
  C   C53       1.0  0.68834  0.46985  0.24309  1.0000
  O   O11       1.0  0.70641  0.49407  0.16810  1.0000
  H   H40       1.0  0.67197  0.44116  0.21838  1.0000
  H   H41       1.0  0.70970  0.47059  0.28715  1.0000
  H   H42       1.0  0.68713  0.49105  0.12456  1.0000
  C   C54       1.0  0.85166  0.33693  0.32907  1.0000
  C   C55       1.0  0.86950  0.41178  0.34305  1.0000
  N   N21       1.0  0.83749  0.38568  0.30334  1.0000
  C   C56       1.0  0.82709  0.34893  0.29499  1.0000
  C   C57       1.0  0.79238  0.32523  0.24310  1.0000
  O   O12       1.0  0.79860  0.30722  0.16811  1.0000
  H   H43       1.0  0.78007  0.34161  0.21837  1.0000
  H   H44       1.0  0.77171  0.30383  0.28703  1.0000
  H   H45       1.0  0.81490  0.32652  0.12467  1.0000
  C   C58       1.0  0.04561  0.56754  0.29949  1.0000
  C   C59       1.0  0.96867  0.53378  0.30624  1.0000
  N   N22       1.0  0.98579  0.51897  0.25786  1.0000
  C   C60       1.0  0.02309  0.53441  0.24960  1.0000
  C   C61       1.0  0.03613  0.51402  0.19152  1.0000
  O   O13       1.0  0.06469  0.53800  0.12969  1.0000
  H   H46       1.0  0.01299  0.49192  0.15322  1.0000
  H   H47       1.0  0.04688  0.50031  0.23455  1.0000
  H   H48       1.0  0.05380  0.54808  0.08683  1.0000
  C   C62       1.0  0.44600  0.48078  0.29983  1.0000
  C   C63       1.0  0.47970  0.43755  0.30626  1.0000
  N   N23       1.0  0.49449  0.46948  0.25785  1.0000
  C   C64       1.0  0.47906  0.49135  0.24969  1.0000
  C   C65       1.0  0.49943  0.52476  0.19157  1.0000
  O   O14       1.0  0.47543  0.52936  0.12985  1.0000
  H   H49       1.0  0.52150  0.52370  0.15317  1.0000
  H   H50       1.0  0.51318  0.54922  0.23459  1.0000
  H   H51       1.0  0.46531  0.50839  0.08700  1.0000
  C   C66       1.0  0.53277  0.96788  0.29941  1.0000
  C   C67       1.0  0.57593  0.04481  0.30623  1.0000
  N   N24       1.0  0.54403  0.02769  0.25771  1.0000
  C   C68       1.0  0.52218  0.99040  0.24942  1.0000
  C   C69       1.0  0.48879  0.97735  0.19121  1.0000
  O   O15       1.0  0.48425  0.94878  0.12945  1.0000
  H   H52       1.0  0.48985  0.00048  0.15284  1.0000
  H   H53       1.0  0.46431  0.96660  0.23414  1.0000
  H   H54       1.0  0.50524  0.95966  0.08666  1.0000
  C   C70       1.0  0.97551  0.97052  0.32917  1.0000
  N   N25       1.0  0.01031  0.97428  0.32944  1.0000
  C   C71       1.0  0.04302  0.00771  0.32918  1.0000
  N   N26       1.0  0.03925  0.03874  0.32945  1.0000
  C   C72       1.0  0.00582  0.03803  0.32918  1.0000
  N   N27       1.0  0.97479  0.00323  0.32944  1.0000
  C   C73       1.0  0.97620  0.21327  0.33319  1.0000
  N   N28       1.0  0.97658  0.18036  0.33243  1.0000
  C   C74       1.0  0.00919  0.17906  0.33586  1.0000
  N   N29       1.0  0.04215  0.21255  0.34113  1.0000
  C   C75       1.0  0.04323  0.24612  0.34377  1.0000
  N   N30       1.0  0.00989  0.24468  0.33927  1.0000
  C   C76       1.0  0.80026  0.76565  0.33320  1.0000
  N   N31       1.0  0.83317  0.79893  0.33242  1.0000
  C   C77       1.0  0.83448  0.83285  0.33586  1.0000
  N   N32       1.0  0.80100  0.83233  0.34119  1.0000
  C   C78       1.0  0.76743  0.79984  0.34387  1.0000
  N   N33       1.0  0.76886  0.76793  0.33935  1.0000
  C   C79       1.0  0.24788  0.03734  0.33314  1.0000
  N   N34       1.0  0.21460  0.03696  0.33240  1.0000
  C   C80       1.0  0.18068  0.00435  0.33587  1.0000
  N   N35       1.0  0.18121  0.97139  0.34117  1.0000
  C   C81       1.0  0.21370  0.97031  0.34383  1.0000
  N   N36       1.0  0.24561  0.00365  0.33927  1.0000
  C   C82       1.0  0.22315  0.44695  0.34181  1.0000
  N   N37       1.0  0.19665  0.40988  0.34650  1.0000
  C   C83       1.0  0.15949  0.39842  0.35679  1.0000
  N   N38       1.0  0.15032  0.42583  0.36168  1.0000
  C   C84       1.0  0.17593  0.46281  0.36215  1.0000
  N   N39       1.0  0.21174  0.47210  0.35144  1.0000
  C   C85       1.0  0.56660  0.77893  0.34197  1.0000
  N   N40       1.0  0.60367  0.78951  0.34666  1.0000
  C   C86       1.0  0.61512  0.76379  0.35685  1.0000
  N   N41       1.0  0.58771  0.72720  0.36162  1.0000
  C   C87       1.0  0.55074  0.71583  0.36214  1.0000
  N   N42       1.0  0.54145  0.74235  0.35152  1.0000
  C   C88       1.0  0.23461  0.79038  0.34209  1.0000
  N   N43       1.0  0.22403  0.81688  0.34664  1.0000
  C   C89       1.0  0.24975  0.85405  0.35687  1.0000
  N   N44       1.0  0.28633  0.86322  0.36174  1.0000
  C   C90       1.0  0.29770  0.83762  0.36219  1.0000
  N   N45       1.0  0.27118  0.80180  0.35160  1.0000
  C   C91       1.0  0.44883  0.21543  0.35512  1.0000
  N   N46       1.0  0.41210  0.18858  0.34675  1.0000
  C   C92       1.0  0.40138  0.15174  0.33404  1.0000
  N   N47       1.0  0.42936  0.14328  0.32885  1.0000
  C   C93       1.0  0.46628  0.16944  0.33224  1.0000
  N   N48       1.0  0.47463  0.20487  0.34590  1.0000
  C   C94       1.0  0.77745  0.56473  0.35557  1.0000
  N   N49       1.0  0.78732  0.60145  0.34699  1.0000
  C   C95       1.0  0.76120  0.61216  0.33405  1.0000
  N   N50       1.0  0.72476  0.58416  0.32869  1.0000
  C   C96       1.0  0.71403  0.54726  0.33206  1.0000
  N   N51       1.0  0.74111  0.53892  0.34606  1.0000
  C   C97       1.0  0.79808  0.23607  0.35545  1.0000
  N   N52       1.0  0.82493  0.22620  0.34687  1.0000
  C   C98       1.0  0.86176  0.25232  0.33408  1.0000
  N   N53       1.0  0.87021  0.28877  0.32884  1.0000
  C   C99       1.0  0.84405  0.29951  0.33217  1.0000
  N   N54       1.0  0.80862  0.27242  0.34602  1.0000
  C   C100      1.0  0.13573  0.57361  0.33010  1.0000
  N   N55       1.0  0.15818  0.61116  0.34182  1.0000
  C   C101      1.0  0.14376  0.63458  0.34052  1.0000
  N   N56       1.0  0.10670  0.62008  0.32595  1.0000
  C   C102      1.0  0.08408  0.58313  0.31185  1.0000
  N   N57       1.0  0.09902  0.56071  0.31573  1.0000
  C   C103      1.0  0.43993  0.56483  0.33024  1.0000
  N   N58       1.0  0.40238  0.54975  0.34193  1.0000
  C   C104      1.0  0.37895  0.51191  0.34076  1.0000
  N   N59       1.0  0.39345  0.48934  0.32622  1.0000
  C   C105      1.0  0.43040  0.50366  0.31212  1.0000
  N   N60       1.0  0.45282  0.54102  0.31594  1.0000
  C   C106      1.0  0.44869  0.87780  0.33017  1.0000
  N   N61       1.0  0.46377  0.85534  0.34209  1.0000
  C   C107      1.0  0.50161  0.86974  0.34088  1.0000
  N   N62       1.0  0.52418  0.90678  0.32612  1.0000
  C   C108      1.0  0.50987  0.92941  0.31183  1.0000
  N   N63       1.0  0.47251  0.91449  0.31569  1.0000
  C   C109      1.0  0.58082  0.13350  0.34007  1.0000
  N   N64       1.0  0.61856  0.15700  0.34492  1.0000
  C   C110      1.0  0.64276  0.14354  0.33816  1.0000
  N   N65       1.0  0.62874  0.10639  0.32619  1.0000
  C   C111      1.0  0.59169  0.08299  0.31945  1.0000
  N   N66       1.0  0.56846  0.09691  0.32643  1.0000
  C   C112      1.0  0.56354  0.43269  0.33993  1.0000
  N   N67       1.0  0.54930  0.39495  0.34490  1.0000
  C   C113      1.0  0.51162  0.37075  0.33822  1.0000
  N   N68       1.0  0.48851  0.38477  0.32625  1.0000
  C   C114      1.0  0.50216  0.42183  0.31945  1.0000
  N   N69       1.0  0.53930  0.44505  0.32635  1.0000
  C   C115      1.0  0.87995  0.44998  0.33996  1.0000
  N   N70       1.0  0.85647  0.46424  0.34497  1.0000
  C   C116      1.0  0.86994  0.50190  0.33823  1.0000
  N   N71       1.0  0.90709  0.52502  0.32623  1.0000
  C   C117      1.0  0.93049  0.51136  0.31943  1.0000
  N   N72       1.0  0.91655  0.47422  0.32636  1.0000
  N   N73       1.0  0.03689  0.10528  0.34254  1.0000
  C   C118      1.0  0.04041  0.13989  0.34509  1.0000
  H   H55       1.0  0.06620  0.16255  0.35573  1.0000
  N   N74       1.0  0.90825  0.93432  0.34255  1.0000
  C   C119      1.0  0.87365  0.90324  0.34508  1.0000
  H   H56       1.0  0.85099  0.90636  0.35577  1.0000
  N   N75       1.0  0.07921  0.97665  0.34256  1.0000
  C   C120      1.0  0.11029  0.97313  0.34511  1.0000
  H   H57       1.0  0.10717  0.94734  0.35576  1.0000
  C   C121      1.0  0.13065  0.35981  0.35985  1.0000
  C   C122      1.0  0.07494  0.28285  0.35164  1.0000
  N   N76       1.0  0.06868  0.30988  0.38451  1.0000
  C   C123      1.0  0.09366  0.34687  0.39180  1.0000
  C   C124      1.0  0.07912  0.36952  0.43487  1.0000
  O   O16       1.0  0.10033  0.38923  0.51268  1.0000
  H   H58       1.0  0.04990  0.35211  0.45496  1.0000
  H   H59       1.0  0.07980  0.38958  0.38621  1.0000
  H   H60       1.0  0.09711  0.37081  0.55904  1.0000
  C   C125      1.0  0.65373  0.77357  0.35990  1.0000
  C   C126      1.0  0.73071  0.79483  0.35183  1.0000
  N   N77       1.0  0.70367  0.76153  0.38465  1.0000
  C   C127      1.0  0.66667  0.74951  0.39186  1.0000
  C   C128      1.0  0.64403  0.71234  0.43500  1.0000
  O   O17       1.0  0.62432  0.71388  0.51278  1.0000
  H   H61       1.0  0.66144  0.70053  0.45514  1.0000
  H   H62       1.0  0.62397  0.69295  0.38637  1.0000
  H   H63       1.0  0.64273  0.72908  0.55913  1.0000
  C   C129      1.0  0.23997  0.88288  0.35991  1.0000
  C   C130      1.0  0.21873  0.93860  0.35167  1.0000
  N   N78       1.0  0.25202  0.94486  0.38452  1.0000
  C   C131      1.0  0.26403  0.91988  0.39183  1.0000
  C   C132      1.0  0.30122  0.93443  0.43487  1.0000
  O   O18       1.0  0.29973  0.91323  0.51270  1.0000
  H   H64       1.0  0.31304  0.96366  0.45493  1.0000
  H   H65       1.0  0.32060  0.93374  0.38619  1.0000
  H   H66       1.0  0.28455  0.91646  0.55906  1.0000
  N   N79       1.0  0.33548  0.13065  0.35517  1.0000
  C   C133      1.0  0.29796  0.10563  0.35556  1.0000
  H   H67       1.0  0.27984  0.11353  0.37972  1.0000
  N   N80       1.0  0.80601  0.67807  0.35508  1.0000
  C   C134      1.0  0.81852  0.71559  0.35545  1.0000
  H   H68       1.0  0.84452  0.73370  0.37966  1.0000
  N   N81       1.0  0.88287  0.20752  0.35510  1.0000
  C   C135      1.0  0.90789  0.19502  0.35551  1.0000
  H   H69       1.0  0.89998  0.16899  0.37958  1.0000
  N   N82       1.0  0.27847  0.44532  0.37691  1.0000
  C   C136      1.0  0.31597  0.45982  0.38216  1.0000
  H   H70       1.0  0.32630  0.44552  0.41642  1.0000
  N   N83       1.0  0.56822  0.83588  0.37712  1.0000
  C   C137      1.0  0.55371  0.85887  0.38241  1.0000
  H   H71       1.0  0.56804  0.88354  0.41647  1.0000
  N   N84       1.0  0.17765  0.73505  0.37698  1.0000
  C   C138      1.0  0.15464  0.69754  0.38213  1.0000
  H   H72       1.0  0.13000  0.68720  0.41634  1.0000
  C   C139      1.0  0.46304  0.25429  0.36294  1.0000
  C   C140      1.0  0.49504  0.33163  0.34429  1.0000
  N   N85       1.0  0.51090  0.31659  0.39676  1.0000
  C   C141      1.0  0.49673  0.27935  0.40899  1.0000
  C   C142      1.0  0.51682  0.26831  0.47406  1.0000
  O   O19       1.0  0.49256  0.24344  0.54200  1.0000
  H   H73       1.0  0.53964  0.29280  0.50686  1.0000
  H   H74       1.0  0.52950  0.25446  0.43851  1.0000
  H   H75       1.0  0.48359  0.25704  0.57928  1.0000
  C   C143      1.0  0.80209  0.55052  0.36340  1.0000
  C   C144      1.0  0.84740  0.51849  0.34443  1.0000
  N   N86       1.0  0.81652  0.50262  0.39696  1.0000
  C   C145      1.0  0.79347  0.51681  0.40932  1.0000
  C   C146      1.0  0.76231  0.49668  0.47430  1.0000
  O   O20       1.0  0.76169  0.52089  0.54235  1.0000
  H   H76       1.0  0.76397  0.47383  0.50702  1.0000
  H   H77       1.0  0.73580  0.48403  0.43871  1.0000
  H   H78       1.0  0.78424  0.52984  0.57967  1.0000
  C   C147      1.0  0.75921  0.21144  0.36304  1.0000
  C   C148      1.0  0.68188  0.16610  0.34421  1.0000
  N   N87       1.0  0.69690  0.19699  0.39671  1.0000
  C   C149      1.0  0.73413  0.22006  0.40901  1.0000
  C   C150      1.0  0.74515  0.25119  0.47410  1.0000
  O   O21       1.0  0.76997  0.25178  0.54213  1.0000
  H   H79       1.0  0.72064  0.24951  0.50682  1.0000
  H   H80       1.0  0.75902  0.27772  0.43858  1.0000
  H   H81       1.0  0.75635  0.22920  0.57939  1.0000
  C   C151      1.0  0.16700  0.49158  0.36122  1.0000
  C   C152      1.0  0.14741  0.54679  0.33559  1.0000
  N   N88       1.0  0.17740  0.55320  0.38609  1.0000
  C   C153      1.0  0.18861  0.52772  0.40024  1.0000
  C   C154      1.0  0.22104  0.53887  0.46092  1.0000
  O   O22       1.0  0.21225  0.51382  0.53540  1.0000
  H   H82       1.0  0.23155  0.56717  0.48680  1.0000
  H   H83       1.0  0.24376  0.53923  0.42312  1.0000
  H   H84       1.0  0.19389  0.51578  0.57379  1.0000
  C   C155      1.0  0.52195  0.67814  0.36102  1.0000
  C   C156      1.0  0.46676  0.60333  0.33559  1.0000
  N   N89       1.0  0.46036  0.62692  0.38609  1.0000
  C   C157      1.0  0.48583  0.66363  0.40014  1.0000
  C   C158      1.0  0.47470  0.68488  0.46096  1.0000
  O   O23       1.0  0.49978  0.70111  0.53539  1.0000
  H   H85       1.0  0.44642  0.66709  0.48688  1.0000
  H   H86       1.0  0.47433  0.70725  0.42324  1.0000
  H   H87       1.0  0.49783  0.68078  0.57372  1.0000
  C   C159      1.0  0.33540  0.84656  0.36131  1.0000
  C   C160      1.0  0.41020  0.86614  0.33567  1.0000
  N   N90       1.0  0.38662  0.83616  0.38619  1.0000
  C   C161      1.0  0.34992  0.82495  0.40036  1.0000
  C   C162      1.0  0.32865  0.79252  0.46106  1.0000
  O   O24       1.0  0.31239  0.80133  0.53552  1.0000
  H   H88       1.0  0.34644  0.78202  0.48696  1.0000
  H   H89       1.0  0.30629  0.76980  0.42327  1.0000
  H   H90       1.0  0.33270  0.81969  0.57390  1.0000
  N   N91       1.0  0.48996  0.12940  0.36708  1.0000
  C   C163      1.0  0.51649  0.11951  0.37449  1.0000
  H   H91       1.0  0.50946  0.09444  0.40351  1.0000
  N   N92       1.0  0.65030  0.52354  0.36688  1.0000
  C   C164      1.0  0.61389  0.49701  0.37430  1.0000
  H   H92       1.0  0.59585  0.50404  0.40335  1.0000
  N   N93       1.0  0.88406  0.36323  0.36708  1.0000
  C   C165      1.0  0.89395  0.39965  0.37450  1.0000
  H   H93       1.0  0.91902  0.41769  0.40349  1.0000
  N   N94       1.0  0.02845  0.58309  0.34615  1.0000
  C   C166      1.0  0.99095  0.56826  0.34922  1.0000
  H   H94       1.0  0.97970  0.58013  0.38950  1.0000
  N   N95       1.0  0.43046  0.44809  0.34656  1.0000
  C   C167      1.0  0.44533  0.42546  0.34966  1.0000
  H   H95       1.0  0.43343  0.40227  0.38974  1.0000
  N   N96       1.0  0.56544  0.98503  0.34621  1.0000
  C   C168      1.0  0.58811  0.02253  0.34929  1.0000
  H   H96       1.0  0.61120  0.03378  0.38967  1.0000
