data_image0
_chemical_formula_structural       C2NC2ONH2C2NC2ONH2C2NC2ONH2C2NC2ONH2C2NC2ONH2C2NC2ONH2NCHNCHNCHNCHNCHNCHC2NC2ONH2C2NC2ONH2C2NC2ONH2C2NC2ONH2C2NC2ONH2C2NC2ONH2CNCNCNCNCNCNCNCNCNCNCNCNCNCNCNCNCNCNCNCNCNCNCNCNCNCNCNCNCNCNCNCNCNCNCNCN2CHNCHNCHNCHNCHNCHC2NC2ONH2C2NC2ONH2C2NC2ONH2C2NC2ONH2C2NC2ONH2C2NC2ONH2NCHNCHNCHNCHNCHNCH
_chemical_formula_sum              "C126 N90 O18 H54"
_cell_length_a       39.0573
_cell_length_b       39.0572
_cell_length_c       14.8472
_cell_angle_alpha    90
_cell_angle_beta     90
_cell_angle_gamma    120

_space_group_name_H-M_alt    "P 1"
_space_group_IT_number       1

loop_
  _space_group_symop_operation_xyz
  'x, y, z'

loop_
  _atom_site_type_symbol
  _atom_site_label
  _atom_site_symmetry_multiplicity
  _atom_site_fract_x
  _atom_site_fract_y
  _atom_site_fract_z
  _atom_site_occupancy
  C   C1        1.0  0.27167  0.46483  0.32302  1.0000
  C   C2        1.0  0.19713  0.46045  0.33220  1.0000
  N   N1        1.0  0.23005  0.49259  0.29993  1.0000
  C   C3        1.0  0.26651  0.49654  0.29200  1.0000
  C   C4        1.0  0.29530  0.53185  0.24982  1.0000
  O   O1        1.0  0.29451  0.56561  0.26522  1.0000
  N   N2        1.0  0.31942  0.53234  0.18385  1.0000
  H   H1        1.0  0.31834  0.50820  0.16313  1.0000
  H   H2        1.0  0.33699  0.55685  0.15265  1.0000
  C   C5        1.0  0.56661  0.82795  0.32267  1.0000
  C   C6        1.0  0.57097  0.75777  0.33214  1.0000
  N   N3        1.0  0.53884  0.75855  0.29978  1.0000
  C   C7        1.0  0.53491  0.79107  0.29169  1.0000
  C   C8        1.0  0.49958  0.78455  0.24960  1.0000
  O   O2        1.0  0.46585  0.74993  0.26471  1.0000
  N   N4        1.0  0.49905  0.80815  0.18363  1.0000
  H   H3        1.0  0.52320  0.83118  0.16279  1.0000
  H   H4        1.0  0.47456  0.80112  0.15222  1.0000
  C   C9        1.0  0.20342  0.75967  0.32287  1.0000
  C   C10       1.0  0.27361  0.83420  0.33226  1.0000
  N   N5        1.0  0.27282  0.80129  0.29995  1.0000
  C   C11       1.0  0.24030  0.76483  0.29194  1.0000
  C   C12       1.0  0.24683  0.73605  0.24973  1.0000
  O   O3        1.0  0.28136  0.73682  0.26522  1.0000
  N   N6        1.0  0.22326  0.71200  0.18362  1.0000
  H   H5        1.0  0.20022  0.71311  0.16283  1.0000
  H   H6        1.0  0.23020  0.69444  0.15239  1.0000
  C   C13       1.0  0.75606  0.57008  0.32269  1.0000
  C   C14       1.0  0.83060  0.57445  0.33228  1.0000
  N   N7        1.0  0.79769  0.54230  0.29995  1.0000
  C   C15       1.0  0.76124  0.53837  0.29182  1.0000
  C   C16       1.0  0.73244  0.50303  0.24978  1.0000
  O   O4        1.0  0.73331  0.46930  0.26503  1.0000
  N   N8        1.0  0.70834  0.50248  0.18370  1.0000
  H   H7        1.0  0.70948  0.52663  0.16276  1.0000
  H   H8        1.0  0.69088  0.47798  0.15232  1.0000
  C   C17       1.0  0.46119  0.20699  0.32298  1.0000
  C   C18       1.0  0.45681  0.27716  0.33218  1.0000
  N   N9        1.0  0.48894  0.27637  0.29987  1.0000
  C   C19       1.0  0.49289  0.24386  0.29192  1.0000
  C   C20       1.0  0.52818  0.25037  0.24970  1.0000
  O   O5        1.0  0.56195  0.28492  0.26505  1.0000
  N   N10       1.0  0.52866  0.22674  0.18372  1.0000
  H   H9        1.0  0.50451  0.20367  0.16303  1.0000
  H   H10       1.0  0.55316  0.23367  0.15248  1.0000
  C   C21       1.0  0.82433  0.27523  0.32277  1.0000
  C   C22       1.0  0.75416  0.20070  0.33216  1.0000
  N   N11       1.0  0.75494  0.23361  0.29981  1.0000
  C   C23       1.0  0.78747  0.27006  0.29176  1.0000
  C   C24       1.0  0.78096  0.29888  0.24970  1.0000
  O   O6        1.0  0.74633  0.29799  0.26474  1.0000
  N   N12       1.0  0.80459  0.32306  0.18382  1.0000
  H   H11       1.0  0.82764  0.32196  0.16303  1.0000
  H   H12       1.0  0.79758  0.34054  0.15244  1.0000
  N   N13       1.0  0.10691  0.58266  0.34723  1.0000
  C   C25       1.0  0.10233  0.54606  0.34315  1.0000
  H   H13       1.0  0.07440  0.52240  0.33703  1.0000
  N   N14       1.0  0.44864  0.54538  0.34803  1.0000
  C   C26       1.0  0.48525  0.57739  0.34389  1.0000
  H   H14       1.0  0.50890  0.57310  0.33775  1.0000
  N   N15       1.0  0.48603  0.92435  0.34764  1.0000
  C   C27       1.0  0.45400  0.92893  0.34353  1.0000
  H   H15       1.0  0.45827  0.95686  0.33750  1.0000
  N   N16       1.0  0.92074  0.45219  0.34833  1.0000
  C   C28       1.0  0.92534  0.48880  0.34422  1.0000
  H   H16       1.0  0.95327  0.51246  0.33818  1.0000
  N   N17       1.0  0.57906  0.48960  0.34726  1.0000
  C   C29       1.0  0.54245  0.45757  0.34318  1.0000
  H   H17       1.0  0.51879  0.46184  0.33709  1.0000
  N   N18       1.0  0.54177  0.11060  0.34789  1.0000
  C   C30       1.0  0.57378  0.10601  0.34374  1.0000
  H   H18       1.0  0.56950  0.07807  0.33760  1.0000
  C   C31       1.0  0.96916  0.36300  0.36182  1.0000
  C   C32       1.0  0.05255  0.40320  0.37074  1.0000
  N   N19       1.0  0.03209  0.37864  0.30123  1.0000
  C   C33       1.0  0.99169  0.35719  0.29431  1.0000
  C   C34       1.0  0.97639  0.33490  0.21435  1.0000
  O   O7        1.0  0.99467  0.31585  0.18149  1.0000
  N   N20       1.0  0.94802  0.33515  0.16262  1.0000
  H   H19       1.0  0.93760  0.35256  0.17562  1.0000
  H   H20       1.0  0.94087  0.32118  0.10537  1.0000
  C   C35       1.0  0.66846  0.62733  0.36154  1.0000
  C   C36       1.0  0.62816  0.67034  0.37048  1.0000
  N   N21       1.0  0.65278  0.67462  0.30101  1.0000
  C   C37       1.0  0.67420  0.65565  0.29403  1.0000
  C   C38       1.0  0.69673  0.66283  0.21439  1.0000
  O   O8        1.0  0.71568  0.70018  0.18166  1.0000
  N   N22       1.0  0.69669  0.63434  0.16255  1.0000
  H   H21       1.0  0.67913  0.60650  0.17515  1.0000
  H   H22       1.0  0.71060  0.64126  0.10524  1.0000
  C   C39       1.0  0.40420  0.06212  0.36175  1.0000
  C   C40       1.0  0.36104  0.97880  0.37096  1.0000
  N   N23       1.0  0.35677  0.99918  0.30150  1.0000
  C   C41       1.0  0.37571  0.03957  0.29451  1.0000
  C   C42       1.0  0.36858  0.05484  0.21467  1.0000
  O   O9        1.0  0.33120  0.03655  0.18216  1.0000
  N   N24       1.0  0.39711  0.08321  0.16276  1.0000
  H   H23       1.0  0.42496  0.09364  0.17549  1.0000
  H   H24       1.0  0.39019  0.09034  0.10561  1.0000
  C   C43       1.0  0.05858  0.67206  0.36152  1.0000
  C   C44       1.0  0.97521  0.63175  0.37049  1.0000
  N   N25       1.0  0.99560  0.65634  0.30101  1.0000
  C   C45       1.0  0.03599  0.67776  0.29399  1.0000
  C   C46       1.0  0.05132  0.70025  0.21429  1.0000
  O   O10       1.0  0.03290  0.71916  0.18145  1.0000
  N   N26       1.0  0.07979  0.70022  0.16250  1.0000
  H   H25       1.0  0.09009  0.68268  0.17517  1.0000
  H   H26       1.0  0.08677  0.71410  0.10514  1.0000
  C   C47       1.0  0.35952  0.40781  0.36169  1.0000
  C   C48       1.0  0.39961  0.36454  0.37079  1.0000
  N   N27       1.0  0.37498  0.36037  0.30137  1.0000
  C   C49       1.0  0.35354  0.37933  0.29440  1.0000
  C   C50       1.0  0.33117  0.37225  0.21455  1.0000
  O   O11       1.0  0.31206  0.33488  0.18195  1.0000
  N   N28       1.0  0.33137  0.40081  0.16269  1.0000
  H   H27       1.0  0.34880  0.42866  0.17549  1.0000
  H   H28       1.0  0.31734  0.39393  0.10552  1.0000
  C   C51       1.0  0.62368  0.97279  0.36165  1.0000
  C   C52       1.0  0.66675  0.05608  0.37055  1.0000
  N   N29       1.0  0.67107  0.03572  0.30119  1.0000
  C   C53       1.0  0.65210  0.99532  0.29427  1.0000
  C   C54       1.0  0.65932  0.97994  0.21473  1.0000
  O   O12       1.0  0.69670  0.99831  0.18215  1.0000
  N   N30       1.0  0.63085  0.95150  0.16284  1.0000
  H   H29       1.0  0.60301  0.94125  0.17532  1.0000
  H   H30       1.0  0.63780  0.94449  0.10558  1.0000
  C   C55       1.0  0.09217  0.43394  0.35849  1.0000
  N   N31       1.0  0.12480  0.42989  0.34986  1.0000
  C   C56       1.0  0.16172  0.46233  0.33952  1.0000
  N   N32       1.0  0.16496  0.49885  0.33801  1.0000
  C   C57       1.0  0.13319  0.50401  0.34565  1.0000
  N   N33       1.0  0.09749  0.47100  0.35603  1.0000
  C   C58       1.0  0.59741  0.67927  0.35860  1.0000
  N   N34       1.0  0.60149  0.71596  0.34982  1.0000
  C   C59       1.0  0.56906  0.72047  0.33960  1.0000
  N   N35       1.0  0.53253  0.68722  0.33831  1.0000
  C   C60       1.0  0.52733  0.65028  0.34606  1.0000
  N   N36       1.0  0.56033  0.64756  0.35631  1.0000
  C   C61       1.0  0.35208  0.93915  0.35871  1.0000
  N   N37       1.0  0.31540  0.90653  0.35000  1.0000
  C   C62       1.0  0.31090  0.86960  0.33965  1.0000
  N   N38       1.0  0.34416  0.86633  0.33818  1.0000
  C   C63       1.0  0.38110  0.89809  0.34591  1.0000
  N   N39       1.0  0.38381  0.93380  0.35629  1.0000
  C   C64       1.0  0.93556  0.60095  0.35873  1.0000
  N   N40       1.0  0.90293  0.60500  0.34992  1.0000
  C   C65       1.0  0.86600  0.57256  0.33975  1.0000
  N   N41       1.0  0.86274  0.53604  0.33851  1.0000
  C   C66       1.0  0.89450  0.53086  0.34629  1.0000
  N   N42       1.0  0.93022  0.56388  0.35647  1.0000
  C   C67       1.0  0.43033  0.35563  0.35852  1.0000
  N   N43       1.0  0.42627  0.31894  0.34988  1.0000
  C   C68       1.0  0.45871  0.31445  0.33951  1.0000
  N   N44       1.0  0.49523  0.34772  0.33800  1.0000
  C   C69       1.0  0.50041  0.38467  0.34566  1.0000
  N   N45       1.0  0.46740  0.38736  0.35605  1.0000
  C   C70       1.0  0.67568  0.09575  0.35858  1.0000
  N   N46       1.0  0.71237  0.12837  0.34982  1.0000
  C   C71       1.0  0.71687  0.16531  0.33956  1.0000
  N   N47       1.0  0.68362  0.16858  0.33822  1.0000
  C   C72       1.0  0.64667  0.13683  0.34594  1.0000
  N   N48       1.0  0.64396  0.10111  0.35623  1.0000
  C   C73       1.0  0.43483  0.10222  0.35560  1.0000
  N   N49       1.0  0.43095  0.13473  0.34147  1.0000
  C   C74       1.0  0.46349  0.17176  0.33368  1.0000
  N   N50       1.0  0.49978  0.17492  0.34097  1.0000
  C   C75       1.0  0.50522  0.14363  0.35452  1.0000
  N   N51       1.0  0.47197  0.10784  0.36104  1.0000
  C   C76       1.0  0.67773  0.59655  0.35528  1.0000
  N   N52       1.0  0.71410  0.60037  0.34127  1.0000
  C   C77       1.0  0.71854  0.56781  0.33337  1.0000
  N   N53       1.0  0.68536  0.53154  0.34050  1.0000
  C   C78       1.0  0.64865  0.52614  0.35396  1.0000
  N   N54       1.0  0.64616  0.55943  0.36055  1.0000
  C   C79       1.0  0.92908  0.35359  0.35582  1.0000
  N   N55       1.0  0.89657  0.31723  0.34149  1.0000
  C   C80       1.0  0.85955  0.31276  0.33367  1.0000
  N   N56       1.0  0.85641  0.34590  0.34107  1.0000
  C   C81       1.0  0.88769  0.38261  0.35481  1.0000
  N   N57       1.0  0.92349  0.38513  0.36133  1.0000
  C   C82       1.0  0.59298  0.93271  0.35554  1.0000
  N   N58       1.0  0.59684  0.90019  0.34138  1.0000
  C   C83       1.0  0.56430  0.86317  0.33350  1.0000
  N   N59       1.0  0.52801  0.86003  0.34073  1.0000
  C   C84       1.0  0.52258  0.89132  0.35435  1.0000
  N   N60       1.0  0.55585  0.92711  0.36089  1.0000
  C   C85       1.0  0.35007  0.43845  0.35563  1.0000
  N   N61       1.0  0.31368  0.43459  0.34148  1.0000
  C   C86       1.0  0.30920  0.46713  0.33373  1.0000
  N   N62       1.0  0.34235  0.50342  0.34107  1.0000
  C   C87       1.0  0.37906  0.50885  0.35463  1.0000
  N   N63       1.0  0.38159  0.47558  0.36111  1.0000
  C   C88       1.0  0.09862  0.68132  0.35528  1.0000
  N   N64       1.0  0.13117  0.71770  0.34132  1.0000
  C   C89       1.0  0.16817  0.72214  0.33343  1.0000
  N   N65       1.0  0.17126  0.68896  0.34055  1.0000
  C   C90       1.0  0.13994  0.65225  0.35396  1.0000
  N   N66       1.0  0.10416  0.64975  0.36053  1.0000
  N   N67       1.0  0.23856  0.43214  0.35421  1.0000
  C   C91       1.0  0.20187  0.42826  0.35789  1.0000
  H   H31       1.0  0.17884  0.40303  0.38392  1.0000
  N   N68       1.0  0.59926  0.82750  0.35405  1.0000
  C   C92       1.0  0.60316  0.79470  0.35776  1.0000
  H   H32       1.0  0.62835  0.79691  0.38408  1.0000
  N   N69       1.0  0.20386  0.79278  0.35410  1.0000
  C   C93       1.0  0.23667  0.82947  0.35787  1.0000
  H   H33       1.0  0.23446  0.85249  0.38392  1.0000
  N   N70       1.0  0.78916  0.60276  0.35400  1.0000
  C   C94       1.0  0.82586  0.60665  0.35776  1.0000
  H   H34       1.0  0.84884  0.63186  0.38401  1.0000
  N   N71       1.0  0.42851  0.20742  0.35421  1.0000
  C   C95       1.0  0.42463  0.24023  0.35790  1.0000
  H   H35       1.0  0.39940  0.23803  0.38398  1.0000
  N   N72       1.0  0.82390  0.24213  0.35411  1.0000
  C   C96       1.0  0.79110  0.20544  0.35777  1.0000
  H   H36       1.0  0.79330  0.18245  0.38406  1.0000
  C   C97       1.0  0.14210  0.61684  0.35567  1.0000
  C   C98       1.0  0.13609  0.54176  0.34636  1.0000
  N   N73       1.0  0.17151  0.57576  0.35462  1.0000
  C   C99       1.0  0.17645  0.61292  0.35971  1.0000
  C   C100      1.0  0.21551  0.64417  0.37379  1.0000
  O   O13       1.0  0.24536  0.64286  0.33061  1.0000
  N   N74       1.0  0.22519  0.67080  0.44104  1.0000
  H   H37       1.0  0.20530  0.66996  0.48186  1.0000
  H   H38       1.0  0.25276  0.68988  0.45317  1.0000
  C   C101      1.0  0.41447  0.54640  0.35649  1.0000
  C   C102      1.0  0.48956  0.61544  0.34691  1.0000
  N   N75       1.0  0.45558  0.61691  0.35510  1.0000
  C   C103      1.0  0.41841  0.58469  0.36034  1.0000
  C   C104      1.0  0.38715  0.59251  0.37408  1.0000
  O   O14       1.0  0.38858  0.62377  0.33117  1.0000
  N   N76       1.0  0.36041  0.57557  0.44114  1.0000
  H   H39       1.0  0.36125  0.55658  0.48216  1.0000
  H   H40       1.0  0.34145  0.58420  0.45334  1.0000
  C   C105      1.0  0.48502  0.88916  0.35598  1.0000
  C   C106      1.0  0.41595  0.89518  0.34660  1.0000
  N   N77       1.0  0.41451  0.85974  0.35479  1.0000
  C   C107      1.0  0.44674  0.85480  0.35990  1.0000
  C   C108      1.0  0.43892  0.81574  0.37386  1.0000
  O   O15       1.0  0.40778  0.78591  0.33060  1.0000
  N   N78       1.0  0.45587  0.80602  0.44103  1.0000
  H   H41       1.0  0.47491  0.82588  0.48191  1.0000
  H   H42       1.0  0.44739  0.77844  0.45307  1.0000
  C   C109      1.0  0.88554  0.41801  0.35666  1.0000
  C   C110      1.0  0.89159  0.49311  0.34715  1.0000
  N   N79       1.0  0.85614  0.45912  0.35519  1.0000
  C   C111      1.0  0.85119  0.42194  0.36038  1.0000
  C   C112      1.0  0.81210  0.39068  0.37399  1.0000
  O   O16       1.0  0.78229  0.39211  0.33095  1.0000
  N   N80       1.0  0.80226  0.36391  0.44100  1.0000
  H   H43       1.0  0.82206  0.36474  0.48209  1.0000
  H   H44       1.0  0.77465  0.34494  0.45308  1.0000
  C   C113      1.0  0.61324  0.48859  0.35567  1.0000
  C   C114      1.0  0.53816  0.41952  0.34636  1.0000
  N   N81       1.0  0.57215  0.41808  0.35460  1.0000
  C   C115      1.0  0.60932  0.45032  0.35968  1.0000
  C   C116      1.0  0.64057  0.44249  0.37373  1.0000
  O   O17       1.0  0.63926  0.41134  0.33052  1.0000
  N   N82       1.0  0.66720  0.45944  0.44096  1.0000
  H   H45       1.0  0.66637  0.47849  0.48180  1.0000
  H   H46       1.0  0.68629  0.45095  0.45307  1.0000
  C   C117      1.0  0.54279  0.14579  0.35636  1.0000
  C   C118      1.0  0.61183  0.13976  0.34677  1.0000
  N   N83       1.0  0.61329  0.17519  0.35497  1.0000
  C   C119      1.0  0.58106  0.18014  0.36020  1.0000
  C   C120      1.0  0.58888  0.21922  0.37397  1.0000
  O   O18       1.0  0.62014  0.24907  0.33106  1.0000
  N   N84       1.0  0.57193  0.22901  0.44102  1.0000
  H   H47       1.0  0.55295  0.20918  0.48204  1.0000
  H   H48       1.0  0.58056  0.25661  0.45323  1.0000
  N   N85       1.0  0.98983  0.38780  0.43063  1.0000
  C   C121      1.0  0.02960  0.40671  0.43957  1.0000
  H   H49       1.0  0.04239  0.42666  0.49080  1.0000
  N   N86       1.0  0.64352  0.62302  0.43019  1.0000
  C   C122      1.0  0.62460  0.64386  0.43931  1.0000
  H   H50       1.0  0.60449  0.63647  0.49029  1.0000
  N   N87       1.0  0.40839  0.04151  0.43062  1.0000
  C   C123      1.0  0.38753  0.00175  0.43971  1.0000
  H   H51       1.0  0.39474  0.98899  0.49091  1.0000
  N   N88       1.0  0.03794  0.64713  0.43018  1.0000
  C   C124      1.0  0.99817  0.62820  0.43928  1.0000
  H   H52       1.0  0.98547  0.60811  0.49029  1.0000
  N   N89       1.0  0.38432  0.41196  0.43052  1.0000
  C   C125      1.0  0.40318  0.39106  0.43952  1.0000
  H   H53       1.0  0.42315  0.39825  0.49071  1.0000
  N   N90       1.0  0.61939  0.99343  0.43030  1.0000
  C   C126      1.0  0.64025  0.03319  0.43938  1.0000
  H   H54       1.0  0.63287  0.04593  0.49031  1.0000
