data_image0
_chemical_formula_structural       CONOC31H17NHNHNHC30H17NHNHNHC3HNO2COC3HNO2COC2HCOH8C3HNO2COC3HNO2COC2HNO2CO
_chemical_formula_sum              "C84 O18 N12 H54"
_cell_length_a       45.0219
_cell_length_b       45.022
_cell_length_c       14.9781
_cell_angle_alpha    90
_cell_angle_beta     90
_cell_angle_gamma    120

_space_group_name_H-M_alt    "P 1"
_space_group_IT_number       1

loop_
  _space_group_symop_operation_xyz
  'x, y, z'

loop_
  _atom_site_type_symbol
  _atom_site_label
  _atom_site_symmetry_multiplicity
  _atom_site_fract_x
  _atom_site_fract_y
  _atom_site_fract_z
  _atom_site_occupancy
  C   C1        1.0  0.01225  0.50453  0.24448  1.0000
  O   O1        1.0  0.00982  0.48157  0.11208  1.0000
  N   N1        1.0  0.02317  0.50944  0.15423  1.0000
  O   O2        1.0  0.01616  0.52977  0.11457  1.0000
  C   C2        1.0  0.02504  0.51064  0.40369  1.0000
  C   C3        1.0  0.13199  0.56959  0.33109  1.0000
  C   C4        1.0  0.15344  0.60564  0.32927  1.0000
  C   C5        1.0  0.18925  0.62075  0.32102  1.0000
  C   C6        1.0  0.20478  0.60016  0.31662  1.0000
  C   C7        1.0  0.18348  0.56412  0.31929  1.0000
  C   C8        1.0  0.14767  0.54911  0.32713  1.0000
  C   C9        1.0  0.24008  0.61441  0.30868  1.0000
  C   C10       1.0  0.26288  0.63899  0.36326  1.0000
  C   C11       1.0  0.29816  0.65276  0.35716  1.0000
  C   C12       1.0  0.31308  0.63157  0.35783  1.0000
  C   C13       1.0  0.34907  0.64576  0.35725  1.0000
  C   C14       1.0  0.37026  0.68186  0.35788  1.0000
  C   C15       1.0  0.35607  0.70366  0.35726  1.0000
  C   C16       1.0  0.31996  0.68875  0.35782  1.0000
  C   C17       1.0  0.37757  0.73895  0.36334  1.0000
  C   C18       1.0  0.37580  0.76175  0.30875  1.0000
  C   C19       1.0  0.39684  0.79704  0.31668  1.0000
  C   C20       1.0  0.38210  0.81834  0.31934  1.0000
  C   C21       1.0  0.43296  0.81258  0.32107  1.0000
  C   C22       1.0  0.45366  0.84839  0.32931  1.0000
  C   C23       1.0  0.43906  0.86984  0.33105  1.0000
  C   C24       1.0  0.40290  0.85416  0.32706  1.0000
  C   C25       1.0  0.36284  0.62426  0.36332  1.0000
  C   C26       1.0  0.38742  0.62604  0.30875  1.0000
  C   C27       1.0  0.40168  0.60500  0.31668  1.0000
  C   C28       1.0  0.38110  0.56888  0.32104  1.0000
  C   C29       1.0  0.43772  0.61974  0.31942  1.0000
  C   C30       1.0  0.45274  0.59894  0.32722  1.0000
  C   C31       1.0  0.43226  0.56278  0.33113  1.0000
  C   C32       1.0  0.39621  0.54818  0.32931  1.0000
  H   H1        1.0  0.14297  0.62121  0.33271  1.0000
  H   H2        1.0  0.20387  0.64693  0.31849  1.0000
  H   H3        1.0  0.30941  0.70432  0.36045  1.0000
  H   H4        1.0  0.29751  0.60545  0.36043  1.0000
  H   H5        1.0  0.39638  0.69242  0.36051  1.0000
  H   H6        1.0  0.35492  0.55731  0.31848  1.0000
  H   H7        1.0  0.35602  0.80793  0.31722  1.0000
  H   H8        1.0  0.47971  0.85886  0.33273  1.0000
  H   H9        1.0  0.44452  0.79796  0.31855  1.0000
  H   H10       1.0  0.38064  0.52213  0.33274  1.0000
  H   H11       1.0  0.45338  0.64582  0.31733  1.0000
  H   H12       1.0  0.35777  0.75325  0.26170  1.0000
  H   H13       1.0  0.39543  0.74749  0.41084  1.0000
  H   H14       1.0  0.24857  0.60487  0.26166  1.0000
  H   H15       1.0  0.25434  0.64831  0.41075  1.0000
  H   H16       1.0  0.39696  0.64407  0.26172  1.0000
  H   H17       1.0  0.35352  0.60639  0.41081  1.0000
  N   N2        1.0  0.45987  0.90459  0.34212  1.0000
  H   H18       1.0  0.48009  0.91195  0.37969  1.0000
  N   N3        1.0  0.09723  0.55565  0.34214  1.0000
  H   H19       1.0  0.08987  0.56851  0.37969  1.0000
  N   N4        1.0  0.44621  0.54198  0.34234  1.0000
  H   H20       1.0  0.43332  0.52174  0.37980  1.0000
  C   C33       1.0  0.87021  0.43188  0.33833  1.0000
  C   C34       1.0  0.84876  0.39583  0.34006  1.0000
  C   C35       1.0  0.81295  0.38073  0.34834  1.0000
  C   C36       1.0  0.79742  0.40131  0.35275  1.0000
  C   C37       1.0  0.81872  0.43735  0.35013  1.0000
  C   C38       1.0  0.85454  0.45237  0.34231  1.0000
  C   C39       1.0  0.76213  0.38706  0.36067  1.0000
  C   C40       1.0  0.73932  0.36249  0.30611  1.0000
  C   C41       1.0  0.70404  0.34871  0.31223  1.0000
  C   C42       1.0  0.68912  0.36989  0.31156  1.0000
  C   C43       1.0  0.65313  0.35570  0.31219  1.0000
  C   C44       1.0  0.63194  0.31959  0.31157  1.0000
  C   C45       1.0  0.64614  0.29780  0.31220  1.0000
  C   C46       1.0  0.68224  0.31272  0.31159  1.0000
  C   C47       1.0  0.62464  0.26251  0.30608  1.0000
  C   C48       1.0  0.62641  0.23971  0.36067  1.0000
  C   C49       1.0  0.60537  0.20442  0.35276  1.0000
  C   C50       1.0  0.62010  0.18311  0.35015  1.0000
  C   C51       1.0  0.56925  0.18889  0.34834  1.0000
  C   C52       1.0  0.54854  0.15308  0.34008  1.0000
  C   C53       1.0  0.56314  0.13162  0.33836  1.0000
  C   C54       1.0  0.59930  0.14730  0.34237  1.0000
  C   C55       1.0  0.63934  0.37720  0.30607  1.0000
  C   C56       1.0  0.61477  0.37542  0.36063  1.0000
  C   C57       1.0  0.60051  0.39646  0.35270  1.0000
  C   C58       1.0  0.62109  0.43258  0.34830  1.0000
  C   C59       1.0  0.56447  0.38172  0.35005  1.0000
  C   C60       1.0  0.54945  0.40252  0.34229  1.0000
  C   C61       1.0  0.56993  0.43868  0.33833  1.0000
  C   C62       1.0  0.60599  0.45328  0.34006  1.0000
  H   H21       1.0  0.85923  0.38026  0.33663  1.0000
  H   H22       1.0  0.79833  0.35455  0.35085  1.0000
  H   H23       1.0  0.69280  0.29715  0.30894  1.0000
  H   H24       1.0  0.70469  0.39602  0.30893  1.0000
  H   H25       1.0  0.60582  0.30903  0.30890  1.0000
  H   H26       1.0  0.64728  0.44415  0.35080  1.0000
  H   H27       1.0  0.64619  0.19353  0.35221  1.0000
  H   H28       1.0  0.52250  0.14260  0.33663  1.0000
  H   H29       1.0  0.55769  0.20351  0.35083  1.0000
  H   H30       1.0  0.62156  0.47933  0.33661  1.0000
  H   H31       1.0  0.54881  0.35564  0.35219  1.0000
  H   H32       1.0  0.64443  0.24821  0.40773  1.0000
  H   H33       1.0  0.60678  0.25397  0.25857  1.0000
  H   H34       1.0  0.75363  0.39659  0.40774  1.0000
  H   H35       1.0  0.74786  0.35317  0.25859  1.0000
  H   H36       1.0  0.60524  0.35740  0.40770  1.0000
  H   H37       1.0  0.64866  0.39505  0.25855  1.0000
  N   N5        1.0  0.54233  0.09687  0.32722  1.0000
  H   H38       1.0  0.52211  0.08952  0.28969  1.0000
  N   N6        1.0  0.90497  0.44583  0.32716  1.0000
  H   H39       1.0  0.91233  0.43295  0.28968  1.0000
  N   N7        1.0  0.55599  0.45949  0.32721  1.0000
  H   H40       1.0  0.56886  0.47972  0.28969  1.0000
  C   C63       1.0  0.48713  0.52237  0.31449  1.0000
  C   C64       1.0  0.49728  0.50808  0.24452  1.0000
  C   C65       1.0  0.51101  0.48671  0.26579  1.0000
  H   H41       1.0  0.51735  0.47590  0.21443  1.0000
  N   N8        1.0  0.49238  0.51411  0.15427  1.0000
  O   O3        1.0  0.47204  0.48676  0.11461  1.0000
  O   O4        1.0  0.52024  0.52862  0.11212  1.0000
  C   C66       1.0  0.47395  0.54481  0.29784  1.0000
  O   O5        1.0  0.48907  0.56864  0.23271  1.0000
  C   C67       1.0  0.47945  0.96513  0.31443  1.0000
  C   C68       1.0  0.49374  0.98958  0.24448  1.0000
  C   C69       1.0  0.51511  0.02468  0.26578  1.0000
  H   H42       1.0  0.52591  0.04183  0.21443  1.0000
  N   N9        1.0  0.48773  0.97866  0.15422  1.0000
  O   O6        1.0  0.51507  0.98568  0.11456  1.0000
  O   O7        1.0  0.47321  0.99202  0.11208  1.0000
  C   C70       1.0  0.45701  0.92951  0.29774  1.0000
  O   O8        1.0  0.43319  0.92081  0.23261  1.0000
  C   C71       1.0  0.03670  0.51470  0.31444  1.0000
  C   C72       1.0  0.97716  0.49081  0.26578  1.0000
  H   H43       1.0  0.96000  0.48444  0.21443  1.0000
  C   C73       1.0  0.07232  0.52788  0.29774  1.0000
  O   O9        1.0  0.08102  0.51275  0.23267  1.0000
  H   H44       1.0  0.13315  0.52301  0.33211  1.0000
  H   H45       1.0  0.19390  0.54845  0.31721  1.0000
  H   H46       1.0  0.39132  0.86868  0.33208  1.0000
  H   H47       1.0  0.47883  0.61052  0.33227  1.0000
  H   H48       1.0  0.86906  0.47846  0.33729  1.0000
  H   H49       1.0  0.80831  0.45302  0.35219  1.0000
  H   H50       1.0  0.61087  0.13278  0.33734  1.0000
  H   H51       1.0  0.52336  0.39094  0.33731  1.0000
  C   C74       1.0  0.51506  0.47910  0.35503  1.0000
  C   C75       1.0  0.50490  0.49338  0.42501  1.0000
  C   C76       1.0  0.49117  0.51475  0.40374  1.0000
  H   H52       1.0  0.48483  0.52556  0.45510  1.0000
  N   N10       1.0  0.50981  0.48736  0.51526  1.0000
  O   O10       1.0  0.53015  0.51470  0.55492  1.0000
  O   O11       1.0  0.48195  0.47284  0.55741  1.0000
  C   C77       1.0  0.52824  0.45665  0.37169  1.0000
  O   O12       1.0  0.51313  0.43283  0.43682  1.0000
  C   C78       1.0  0.52272  0.03633  0.35503  1.0000
  C   C79       1.0  0.50843  0.01188  0.42499  1.0000
  C   C80       1.0  0.48706  0.97678  0.40368  1.0000
  H   H53       1.0  0.47626  0.95963  0.45503  1.0000
  N   N11       1.0  0.51446  0.02280  0.51525  1.0000
  O   O13       1.0  0.48711  0.01579  0.55492  1.0000
  O   O14       1.0  0.52897  0.00944  0.55737  1.0000
  C   C81       1.0  0.54516  0.07195  0.37172  1.0000
  O   O15       1.0  0.56898  0.08066  0.43684  1.0000
  C   C82       1.0  0.96550  0.48675  0.35503  1.0000
  C   C83       1.0  0.98995  0.49691  0.42499  1.0000
  H   H54       1.0  0.04220  0.51700  0.45504  1.0000
  N   N12       1.0  0.97903  0.49200  0.51525  1.0000
  O   O16       1.0  0.98604  0.47167  0.55490  1.0000
  O   O17       1.0  0.99238  0.51986  0.55740  1.0000
  C   C84       1.0  0.92987  0.47354  0.37174  1.0000
  O   O18       1.0  0.92116  0.48867  0.43683  1.0000
