data_image0
_chemical_formula_structural       C3OHCOCHCNCHC3H2C2NC2OC3OHCOCHCNCHC3H2C2NC2OC2OHOHCNCOCHC3H2C2OCHC2NCHC2OHOHCNCOCHC3H2C2OCHC2NCHC8OHC2NOCHC2NOCHC3HC2HC5NOCHC4NOCHC8OHC2NOCHC2NOCHC3HC2HC5NOCHC4NOCHC3OHC2OHC2NOCHC2NOCHC3H3C2H2C4NOCHC4NOCHC3OHC2OHC2NOCHC2NOCHC3H3C2H2C4NOCHC4NOCHC6O2H2C6O2H2C6O2H2C2NOCHC2NOCHC2NOCHC2NOCHC2NOCHC2NOCHC3H2C3H2C3H2C3H2C3H2C3H2C4NOCHC4NOCHC4NOCHC4NOCHC4NOCHC4NOCHC6O2H2C6O2H2C6O2H2C2NOCHC2NOCHC2NOCHC2NOCHC2NOCHC2NOCHC3H2C3H2C3H2C3H2C3H2C3H2C4NOCHC4NOCHC4NOCHC4NOCHC4NOCHC4NOCH
_chemical_formula_sum              "C336 O72 H120 N48"
_cell_length_a       46.6778
_cell_length_b       46.6778
_cell_length_c       14.8159
_cell_angle_alpha    90
_cell_angle_beta     90
_cell_angle_gamma    120

_space_group_name_H-M_alt    "P 1"
_space_group_IT_number       1

loop_
  _space_group_symop_operation_xyz
  'x, y, z'

loop_
  _atom_site_type_symbol
  _atom_site_label
  _atom_site_symmetry_multiplicity
  _atom_site_fract_x
  _atom_site_fract_y
  _atom_site_fract_z
  _atom_site_occupancy
  C   C1        1.0  0.02707  0.26650  0.33806  1.0000
  C   C2        1.0  0.04519  0.30178  0.35322  1.0000
  C   C3        1.0  0.08028  0.31982  0.36310  1.0000
  O   O1        1.0  0.02924  0.31840  0.37726  1.0000
  H   H1        1.0  0.03311  0.33436  0.32875  1.0000
  C   C4        1.0  0.11265  0.24357  0.27171  1.0000
  O   O2        1.0  0.10110  0.24142  0.18609  1.0000
  C   C5        1.0  0.12449  0.23857  0.13762  1.0000
  H   H2        1.0  0.12429  0.23793  0.06882  1.0000
  C   C6        1.0  0.11259  0.37758  0.31311  1.0000
  N   N1        1.0  0.10321  0.37364  0.22692  1.0000
  C   C7        1.0  0.12609  0.40074  0.18380  1.0000
  H   H3        1.0  0.12558  0.40355  0.11559  1.0000
  C   C8        1.0  0.09748  0.30226  0.35794  1.0000
  C   C9        1.0  0.08159  0.26800  0.34215  1.0000
  C   C10       1.0  0.04697  0.25118  0.32805  1.0000
  H   H4        1.0  0.12276  0.31502  0.36499  1.0000
  H   H5        1.0  0.03630  0.22682  0.31130  1.0000
  C   C11       1.0  0.12064  0.25847  0.42786  1.0000
  C   C12       1.0  0.10107  0.25249  0.34929  1.0000
  N   N2        1.0  0.11823  0.27034  0.50764  1.0000
  C   C13       1.0  0.09964  0.35407  0.38422  1.0000
  C   C14       1.0  0.11930  0.36355  0.46347  1.0000
  O   O3        1.0  0.11463  0.34364  0.53596  1.0000
  C   C15       1.0  0.02707  0.76650  0.33805  1.0000
  C   C16       1.0  0.04519  0.80178  0.35321  1.0000
  C   C17       1.0  0.08028  0.81982  0.36308  1.0000
  O   O4        1.0  0.02924  0.81840  0.37726  1.0000
  H   H6        1.0  0.03311  0.83435  0.32875  1.0000
  C   C18       1.0  0.11265  0.74356  0.27170  1.0000
  O   O5        1.0  0.10111  0.74143  0.18608  1.0000
  C   C19       1.0  0.12449  0.73857  0.13761  1.0000
  H   H7        1.0  0.12429  0.73793  0.06881  1.0000
  C   C20       1.0  0.11259  0.87758  0.31310  1.0000
  N   N3        1.0  0.10322  0.87365  0.22692  1.0000
  C   C21       1.0  0.12609  0.90074  0.18380  1.0000
  H   H8        1.0  0.12559  0.90356  0.11559  1.0000
  C   C22       1.0  0.09748  0.80226  0.35792  1.0000
  C   C23       1.0  0.08159  0.76800  0.34213  1.0000
  C   C24       1.0  0.04697  0.75118  0.32805  1.0000
  H   H9        1.0  0.12276  0.81502  0.36497  1.0000
  H   H10       1.0  0.03630  0.72682  0.31129  1.0000
  C   C25       1.0  0.12064  0.75847  0.42784  1.0000
  C   C26       1.0  0.10107  0.75249  0.34928  1.0000
  N   N4        1.0  0.11823  0.77034  0.50763  1.0000
  C   C27       1.0  0.09964  0.85407  0.38422  1.0000
  C   C28       1.0  0.11930  0.86355  0.46347  1.0000
  O   O6        1.0  0.11463  0.84364  0.53594  1.0000
  C   C29       1.0  0.21618  0.25073  0.31450  1.0000
  C   C30       1.0  0.19879  0.26703  0.34261  1.0000
  O   O7        1.0  0.19660  0.21954  0.28195  1.0000
  H   H11       1.0  0.20082  0.22061  0.21665  1.0000
  O   O8        1.0  0.22188  0.03078  0.29592  1.0000
  H   H12       1.0  0.22439  0.02461  0.23415  1.0000
  C   C31       1.0  0.14326  0.24440  0.27164  1.0000
  N   N5        1.0  0.15038  0.24210  0.18587  1.0000
  C   C32       1.0  0.14276  0.40772  0.31875  1.0000
  O   O9        1.0  0.15217  0.42233  0.23602  1.0000
  C   C33       1.0  0.21764  0.30094  0.36360  1.0000
  H   H13       1.0  0.20550  0.31378  0.37624  1.0000
  C   C34       1.0  0.21755  0.41932  0.39089  1.0000
  C   C35       1.0  0.19872  0.43510  0.38392  1.0000
  C   C36       1.0  0.21596  0.46935  0.36385  1.0000
  H   H14       1.0  0.20527  0.39424  0.40179  1.0000
  H   H15       1.0  0.20232  0.48063  0.37152  1.0000
  C   C37       1.0  0.16380  0.25261  0.34902  1.0000
  C   C38       1.0  0.15024  0.25786  0.42885  1.0000
  O   O10       1.0  0.16640  0.26923  0.50914  1.0000
  C   C39       1.0  0.14470  0.27530  0.55538  1.0000
  H   H16       1.0  0.15024  0.28666  0.61688  1.0000
  C   C40       1.0  0.15027  0.39234  0.46702  1.0000
  C   C41       1.0  0.16382  0.41532  0.39494  1.0000
  N   N6        1.0  0.16472  0.39096  0.54323  1.0000
  C   C42       1.0  0.14291  0.36272  0.58395  1.0000
  H   H17       1.0  0.14830  0.35476  0.64229  1.0000
  C   C43       1.0  0.21618  0.75073  0.31449  1.0000
  C   C44       1.0  0.19879  0.76703  0.34260  1.0000
  O   O11       1.0  0.19660  0.71954  0.28194  1.0000
  H   H18       1.0  0.20082  0.72061  0.21664  1.0000
  O   O12       1.0  0.22188  0.53078  0.29590  1.0000
  H   H19       1.0  0.22439  0.52461  0.23414  1.0000
  C   C45       1.0  0.14326  0.74440  0.27163  1.0000
  N   N7        1.0  0.15038  0.74210  0.18587  1.0000
  C   C46       1.0  0.14276  0.90772  0.31874  1.0000
  O   O13       1.0  0.15217  0.92233  0.23602  1.0000
  C   C47       1.0  0.21764  0.80094  0.36360  1.0000
  H   H20       1.0  0.20550  0.81378  0.37623  1.0000
  C   C48       1.0  0.21755  0.91932  0.39090  1.0000
  C   C49       1.0  0.19872  0.93510  0.38393  1.0000
  C   C50       1.0  0.21596  0.96935  0.36385  1.0000
  H   H21       1.0  0.20528  0.89424  0.40180  1.0000
  H   H22       1.0  0.20232  0.98063  0.37152  1.0000
  C   C51       1.0  0.16380  0.75261  0.34901  1.0000
  C   C52       1.0  0.15025  0.75786  0.42884  1.0000
  O   O14       1.0  0.16640  0.76923  0.50913  1.0000
  C   C53       1.0  0.14470  0.77530  0.55536  1.0000
  H   H23       1.0  0.15024  0.78667  0.61686  1.0000
  C   C54       1.0  0.15027  0.89234  0.46702  1.0000
  C   C55       1.0  0.16382  0.91532  0.39494  1.0000
  N   N8        1.0  0.16472  0.89096  0.54323  1.0000
  C   C56       1.0  0.14291  0.86271  0.58394  1.0000
  H   H24       1.0  0.14830  0.85476  0.64228  1.0000
  C   C57       1.0  0.26940  0.24804  0.30633  1.0000
  C   C58       1.0  0.25181  0.26610  0.31988  1.0000
  C   C59       1.0  0.26824  0.02449  0.34969  1.0000
  C   C60       1.0  0.26622  0.07713  0.36565  1.0000
  C   C61       1.0  0.25203  0.04362  0.33661  1.0000
  C   C62       1.0  0.25108  0.48846  0.34932  1.0000
  C   C63       1.0  0.26741  0.46912  0.34462  1.0000
  C   C64       1.0  0.25169  0.43535  0.37195  1.0000
  O   O15       1.0  0.29909  0.48184  0.31511  1.0000
  H   H25       1.0  0.29908  0.48694  0.25070  1.0000
  C   C65       1.0  0.27770  0.37504  0.29838  1.0000
  C   C66       1.0  0.27648  0.40458  0.30064  1.0000
  N   N9        1.0  0.27885  0.41470  0.21551  1.0000
  O   O16       1.0  0.28078  0.36684  0.21201  1.0000
  C   C67       1.0  0.28326  0.39328  0.16544  1.0000
  H   H26       1.0  0.28359  0.39411  0.09661  1.0000
  C   C68       1.0  0.24754  0.13559  0.24379  1.0000
  C   C69       1.0  0.24796  0.10642  0.26359  1.0000
  N   N10       1.0  0.25022  0.09387  0.18494  1.0000
  O   O17       1.0  0.24948  0.14128  0.15313  1.0000
  C   C70       1.0  0.24929  0.11372  0.12111  1.0000
  H   H27       1.0  0.25267  0.11075  0.05452  1.0000
  C   C71       1.0  0.25279  0.21294  0.31947  1.0000
  C   C72       1.0  0.26583  0.19268  0.29225  1.0000
  C   C73       1.0  0.29878  0.20848  0.26171  1.0000
  H   H28       1.0  0.23029  0.20116  0.35044  1.0000
  C   C74       1.0  0.25234  0.31875  0.35890  1.0000
  C   C75       1.0  0.26868  0.30090  0.33881  1.0000
  H   H29       1.0  0.29352  0.31381  0.34694  1.0000
  C   C76       1.0  0.29917  0.09317  0.39693  1.0000
  C   C77       1.0  0.26684  0.41542  0.37834  1.0000
  C   C78       1.0  0.26086  0.39545  0.45625  1.0000
  C   C79       1.0  0.26065  0.36543  0.45257  1.0000
  C   C80       1.0  0.26838  0.35341  0.37389  1.0000
  N   N11       1.0  0.24774  0.34970  0.53003  1.0000
  O   O18       1.0  0.24823  0.39871  0.53625  1.0000
  C   C81       1.0  0.24136  0.37003  0.57884  1.0000
  H   H30       1.0  0.23033  0.36367  0.64076  1.0000
  C   C82       1.0  0.25207  0.09769  0.35222  1.0000
  C   C83       1.0  0.25372  0.11984  0.42073  1.0000
  C   C84       1.0  0.25301  0.14886  0.40097  1.0000
  C   C85       1.0  0.25069  0.15840  0.31181  1.0000
  N   N12       1.0  0.26161  0.16688  0.47627  1.0000
  O   O19       1.0  0.26188  0.11931  0.50893  1.0000
  C   C86       1.0  0.26517  0.14842  0.53964  1.0000
  H   H31       1.0  0.27421  0.15752  0.60231  1.0000
  C   C87       1.0  0.26940  0.74804  0.30632  1.0000
  C   C88       1.0  0.25181  0.76610  0.31987  1.0000
  C   C89       1.0  0.26824  0.52449  0.34969  1.0000
  C   C90       1.0  0.26621  0.57713  0.36564  1.0000
  C   C91       1.0  0.25203  0.54362  0.33660  1.0000
  C   C92       1.0  0.25108  0.98846  0.34932  1.0000
  C   C93       1.0  0.26741  0.96912  0.34462  1.0000
  C   C94       1.0  0.25169  0.93535  0.37196  1.0000
  O   O20       1.0  0.29909  0.98184  0.31511  1.0000
  H   H32       1.0  0.29908  0.98694  0.25070  1.0000
  C   C95       1.0  0.27770  0.87504  0.29838  1.0000
  C   C96       1.0  0.27647  0.90458  0.30064  1.0000
  N   N13       1.0  0.27885  0.91471  0.21552  1.0000
  O   O21       1.0  0.28078  0.86684  0.21201  1.0000
  C   C97       1.0  0.28326  0.89328  0.16544  1.0000
  H   H33       1.0  0.28359  0.89411  0.09661  1.0000
  C   C98       1.0  0.24755  0.63560  0.24378  1.0000
  C   C99       1.0  0.24796  0.60642  0.26357  1.0000
  N   N14       1.0  0.25022  0.59387  0.18493  1.0000
  O   O22       1.0  0.24948  0.64128  0.15311  1.0000
  C   C100      1.0  0.24929  0.61372  0.12109  1.0000
  H   H34       1.0  0.25268  0.61075  0.05451  1.0000
  C   C101      1.0  0.25279  0.71294  0.31946  1.0000
  C   C102      1.0  0.26584  0.69268  0.29224  1.0000
  C   C103      1.0  0.29878  0.70848  0.26169  1.0000
  H   H35       1.0  0.23029  0.70116  0.35043  1.0000
  C   C104      1.0  0.25234  0.81875  0.35889  1.0000
  C   C105      1.0  0.26868  0.80090  0.33880  1.0000
  H   H36       1.0  0.29352  0.81381  0.34694  1.0000
  C   C106      1.0  0.29917  0.59317  0.39692  1.0000
  C   C107      1.0  0.26684  0.91542  0.37834  1.0000
  C   C108      1.0  0.26086  0.89545  0.45625  1.0000
  C   C109      1.0  0.26065  0.86543  0.45257  1.0000
  C   C110      1.0  0.26838  0.85341  0.37389  1.0000
  N   N15       1.0  0.24774  0.84970  0.53003  1.0000
  O   O23       1.0  0.24823  0.89871  0.53625  1.0000
  C   C111      1.0  0.24136  0.87003  0.57885  1.0000
  H   H37       1.0  0.23033  0.86366  0.64076  1.0000
  C   C112      1.0  0.25207  0.59769  0.35222  1.0000
  C   C113      1.0  0.25372  0.61984  0.42072  1.0000
  C   C114      1.0  0.25301  0.64886  0.40095  1.0000
  C   C115      1.0  0.25069  0.65840  0.31180  1.0000
  N   N16       1.0  0.26160  0.66688  0.47625  1.0000
  O   O24       1.0  0.26188  0.61931  0.50891  1.0000
  C   C116      1.0  0.26517  0.64842  0.53964  1.0000
  H   H38       1.0  0.27420  0.65752  0.60229  1.0000
  C   C117      1.0  0.49122  0.24695  0.33422  1.0000
  C   C118      1.0  0.43736  0.19373  0.35311  1.0000
  C   C119      1.0  0.47258  0.21241  0.35835  1.0000
  O   O25       1.0  0.48742  0.19756  0.40222  1.0000
  H   H39       1.0  0.48554  0.17964  0.36308  1.0000
  C   C120      1.0  0.31912  0.24319  0.26438  1.0000
  C   C121      1.0  0.30406  0.26253  0.28457  1.0000
  O   O26       1.0  0.32422  0.29549  0.27019  1.0000
  H   H40       1.0  0.31991  0.29987  0.20814  1.0000
  C   C122      1.0  0.39774  0.24614  0.19680  1.0000
  C   C123      1.0  0.36730  0.24499  0.18936  1.0000
  N   N17       1.0  0.35388  0.23020  0.11139  1.0000
  O   O27       1.0  0.40305  0.23101  0.12528  1.0000
  C   C124      1.0  0.37567  0.22299  0.07410  1.0000
  H   H41       1.0  0.37181  0.21204  0.01241  1.0000
  C   C125      1.0  0.37418  0.10497  0.32348  1.0000
  C   C126      1.0  0.40413  0.13494  0.31279  1.0000
  N   N18       1.0  0.41325  0.13639  0.22696  1.0000
  O   O28       1.0  0.36450  0.08797  0.24406  1.0000
  C   C127      1.0  0.39048  0.10791  0.18913  1.0000
  H   H42       1.0  0.39038  0.10349  0.12164  1.0000
  C   C128      1.0  0.47178  0.26128  0.30588  1.0000
  C   C129      1.0  0.43681  0.24351  0.30088  1.0000
  C   C130      1.0  0.42025  0.20974  0.32365  1.0000
  H   H43       1.0  0.48306  0.28484  0.28161  1.0000
  H   H44       1.0  0.39486  0.19663  0.32122  1.0000
  H   H45       1.0  0.30954  0.19419  0.25174  1.0000
  C   C131      1.0  0.30286  0.04412  0.36988  1.0000
  C   C132      1.0  0.31886  0.07817  0.39257  1.0000
  H   H46       1.0  0.31696  0.03345  0.37864  1.0000
  H   H47       1.0  0.31077  0.11820  0.40787  1.0000
  C   C133      1.0  0.35387  0.25595  0.25793  1.0000
  C   C134      1.0  0.37446  0.26979  0.33479  1.0000
  C   C135      1.0  0.40422  0.26932  0.34407  1.0000
  C   C136      1.0  0.41726  0.25768  0.27593  1.0000
  N   N19       1.0  0.41363  0.27664  0.42986  1.0000
  O   O29       1.0  0.36512  0.27699  0.41497  1.0000
  C   C137      1.0  0.39113  0.28247  0.46904  1.0000
  H   H48       1.0  0.39130  0.28664  0.53673  1.0000
  C   C138      1.0  0.41766  0.16010  0.37944  1.0000
  C   C139      1.0  0.39855  0.15284  0.45923  1.0000
  C   C140      1.0  0.36783  0.12388  0.46776  1.0000
  C   C141      1.0  0.35376  0.09904  0.40033  1.0000
  N   N20       1.0  0.35465  0.12612  0.54528  1.0000
  O   O30       1.0  0.40420  0.17392  0.52938  1.0000
  C   C142      1.0  0.37680  0.15524  0.58119  1.0000
  H   H49       1.0  0.37317  0.16296  0.64219  1.0000
  C   C143      1.0  0.49122  0.74695  0.33422  1.0000
  C   C144      1.0  0.43736  0.69373  0.35313  1.0000
  C   C145      1.0  0.47257  0.71241  0.35835  1.0000
  O   O31       1.0  0.48742  0.69756  0.40221  1.0000
  H   H50       1.0  0.48554  0.67964  0.36307  1.0000
  C   C146      1.0  0.31912  0.74319  0.26436  1.0000
  C   C147      1.0  0.30406  0.76253  0.28457  1.0000
  O   O32       1.0  0.32422  0.79549  0.27019  1.0000
  H   H51       1.0  0.31992  0.79988  0.20813  1.0000
  C   C148      1.0  0.39774  0.74614  0.19680  1.0000
  C   C149      1.0  0.36730  0.74499  0.18936  1.0000
  N   N21       1.0  0.35389  0.73020  0.11138  1.0000
  O   O33       1.0  0.40306  0.73102  0.12529  1.0000
  C   C150      1.0  0.37568  0.72300  0.07410  1.0000
  H   H52       1.0  0.37183  0.71205  0.01241  1.0000
  C   C151      1.0  0.37419  0.60497  0.32350  1.0000
  C   C152      1.0  0.40414  0.63494  0.31280  1.0000
  N   N22       1.0  0.41326  0.63640  0.22697  1.0000
  O   O34       1.0  0.36450  0.58797  0.24407  1.0000
  C   C153      1.0  0.39049  0.60791  0.18915  1.0000
  H   H53       1.0  0.39039  0.60349  0.12165  1.0000
  C   C154      1.0  0.47178  0.76128  0.30587  1.0000
  C   C155      1.0  0.43681  0.74351  0.30089  1.0000
  C   C156      1.0  0.42024  0.70974  0.32367  1.0000
  H   H54       1.0  0.48306  0.78484  0.28160  1.0000
  H   H55       1.0  0.39486  0.69664  0.32125  1.0000
  H   H56       1.0  0.30954  0.69419  0.25173  1.0000
  C   C157      1.0  0.30286  0.54412  0.36988  1.0000
  C   C158      1.0  0.31886  0.57817  0.39257  1.0000
  H   H57       1.0  0.31696  0.53346  0.37865  1.0000
  H   H58       1.0  0.31076  0.61820  0.40787  1.0000
  C   C159      1.0  0.35387  0.75595  0.25793  1.0000
  C   C160      1.0  0.37445  0.76980  0.33480  1.0000
  C   C161      1.0  0.40422  0.76932  0.34408  1.0000
  C   C162      1.0  0.41726  0.75769  0.27594  1.0000
  N   N23       1.0  0.41362  0.77664  0.42988  1.0000
  O   O35       1.0  0.36511  0.77698  0.41497  1.0000
  C   C163      1.0  0.39113  0.78247  0.46905  1.0000
  H   H59       1.0  0.39129  0.78663  0.53673  1.0000
  C   C164      1.0  0.41766  0.66011  0.37946  1.0000
  C   C165      1.0  0.39854  0.65284  0.45924  1.0000
  C   C166      1.0  0.36782  0.62388  0.46777  1.0000
  C   C167      1.0  0.35376  0.59904  0.40033  1.0000
  N   N24       1.0  0.35465  0.62612  0.54528  1.0000
  O   O36       1.0  0.40420  0.67392  0.52939  1.0000
  C   C168      1.0  0.37679  0.65524  0.58119  1.0000
  H   H60       1.0  0.37315  0.66296  0.64219  1.0000
  C   C169      1.0  0.99122  0.24695  0.33422  1.0000
  C   C170      1.0  0.93736  0.19373  0.35311  1.0000
  C   C171      1.0  0.97257  0.21241  0.35835  1.0000
  C   C172      1.0  0.52707  0.26650  0.33806  1.0000
  C   C173      1.0  0.54519  0.30178  0.35322  1.0000
  C   C174      1.0  0.58028  0.31982  0.36310  1.0000
  O   O37       1.0  0.98742  0.19756  0.40222  1.0000
  O   O38       1.0  0.52924  0.31840  0.37726  1.0000
  H   H61       1.0  0.98554  0.17964  0.36308  1.0000
  H   H62       1.0  0.53311  0.33436  0.32875  1.0000
  C   C175      1.0  0.76940  0.24804  0.30633  1.0000
  C   C176      1.0  0.81912  0.24319  0.26438  1.0000
  C   C177      1.0  0.80406  0.26253  0.28457  1.0000
  C   C178      1.0  0.75181  0.26610  0.31988  1.0000
  C   C179      1.0  0.71618  0.25073  0.31450  1.0000
  C   C180      1.0  0.69880  0.26703  0.34261  1.0000
  O   O39       1.0  0.82422  0.29549  0.27019  1.0000
  O   O40       1.0  0.69660  0.21954  0.28195  1.0000
  H   H63       1.0  0.81991  0.29987  0.20814  1.0000
  H   H64       1.0  0.70082  0.22061  0.21665  1.0000
  C   C181      1.0  0.76824  0.02449  0.34969  1.0000
  C   C182      1.0  0.76622  0.07713  0.36565  1.0000
  C   C183      1.0  0.75203  0.04362  0.33661  1.0000
  C   C184      1.0  0.75109  0.48846  0.34932  1.0000
  C   C185      1.0  0.76741  0.46912  0.34462  1.0000
  C   C186      1.0  0.75169  0.43535  0.37195  1.0000
  O   O41       1.0  0.72188  0.03078  0.29592  1.0000
  O   O42       1.0  0.79910  0.48184  0.31511  1.0000
  H   H65       1.0  0.72439  0.02461  0.23415  1.0000
  H   H66       1.0  0.79908  0.48694  0.25070  1.0000
  C   C187      1.0  0.61265  0.24357  0.27171  1.0000
  C   C188      1.0  0.64326  0.24440  0.27164  1.0000
  N   N25       1.0  0.65038  0.24210  0.18587  1.0000
  O   O43       1.0  0.60111  0.24142  0.18609  1.0000
  C   C189      1.0  0.62449  0.23857  0.13762  1.0000
  H   H67       1.0  0.62429  0.23793  0.06882  1.0000
  C   C190      1.0  0.77770  0.37504  0.29838  1.0000
  C   C191      1.0  0.77648  0.40458  0.30064  1.0000
  N   N26       1.0  0.77885  0.41470  0.21551  1.0000
  O   O44       1.0  0.78078  0.36684  0.21201  1.0000
  C   C192      1.0  0.78326  0.39328  0.16544  1.0000
  H   H68       1.0  0.78360  0.39411  0.09661  1.0000
  C   C193      1.0  0.64276  0.40772  0.31875  1.0000
  C   C194      1.0  0.61259  0.37758  0.31311  1.0000
  N   N27       1.0  0.60321  0.37364  0.22692  1.0000
  O   O45       1.0  0.65217  0.42233  0.23602  1.0000
  C   C195      1.0  0.62609  0.40074  0.18380  1.0000
  H   H69       1.0  0.62558  0.40355  0.11559  1.0000
  C   C196      1.0  0.89774  0.24614  0.19680  1.0000
  C   C197      1.0  0.86730  0.24499  0.18936  1.0000
  N   N28       1.0  0.85388  0.23020  0.11139  1.0000
  O   O46       1.0  0.90305  0.23101  0.12528  1.0000
  C   C198      1.0  0.87567  0.22299  0.07410  1.0000
  H   H70       1.0  0.87181  0.21204  0.01241  1.0000
  C   C199      1.0  0.74754  0.13559  0.24379  1.0000
  C   C200      1.0  0.74796  0.10642  0.26359  1.0000
  N   N29       1.0  0.75022  0.09387  0.18494  1.0000
  O   O47       1.0  0.74948  0.14128  0.15313  1.0000
  C   C201      1.0  0.74928  0.11372  0.12111  1.0000
  H   H71       1.0  0.75267  0.11075  0.05452  1.0000
  C   C202      1.0  0.87418  0.10497  0.32348  1.0000
  C   C203      1.0  0.90413  0.13494  0.31279  1.0000
  N   N30       1.0  0.91325  0.13639  0.22696  1.0000
  O   O48       1.0  0.86450  0.08797  0.24406  1.0000
  C   C204      1.0  0.89048  0.10791  0.18913  1.0000
  H   H72       1.0  0.89038  0.10349  0.12164  1.0000
  C   C205      1.0  0.97178  0.26128  0.30588  1.0000
  C   C206      1.0  0.93681  0.24351  0.30088  1.0000
  C   C207      1.0  0.92025  0.20974  0.32365  1.0000
  H   H73       1.0  0.98306  0.28484  0.28161  1.0000
  H   H74       1.0  0.89486  0.19663  0.32122  1.0000
  C   C208      1.0  0.59748  0.30226  0.35794  1.0000
  C   C209      1.0  0.58159  0.26800  0.34215  1.0000
  C   C210      1.0  0.54697  0.25118  0.32805  1.0000
  H   H75       1.0  0.62276  0.31502  0.36499  1.0000
  H   H76       1.0  0.53630  0.22682  0.31130  1.0000
  C   C211      1.0  0.75279  0.21294  0.31947  1.0000
  C   C212      1.0  0.76584  0.19268  0.29225  1.0000
  C   C213      1.0  0.79878  0.20848  0.26171  1.0000
  H   H77       1.0  0.73029  0.20116  0.35044  1.0000
  H   H78       1.0  0.80954  0.19419  0.25174  1.0000
  C   C214      1.0  0.71764  0.30094  0.36360  1.0000
  C   C215      1.0  0.75234  0.31875  0.35890  1.0000
  C   C216      1.0  0.76868  0.30090  0.33881  1.0000
  H   H79       1.0  0.70550  0.31378  0.37624  1.0000
  H   H80       1.0  0.79352  0.31381  0.34694  1.0000
  C   C217      1.0  0.80286  0.04412  0.36988  1.0000
  C   C218      1.0  0.81886  0.07817  0.39257  1.0000
  C   C219      1.0  0.79917  0.09317  0.39693  1.0000
  H   H81       1.0  0.81697  0.03345  0.37864  1.0000
  H   H82       1.0  0.81077  0.11820  0.40787  1.0000
  C   C220      1.0  0.71755  0.41932  0.39089  1.0000
  C   C221      1.0  0.69872  0.43510  0.38392  1.0000
  C   C222      1.0  0.71596  0.46935  0.36385  1.0000
  H   H83       1.0  0.70528  0.39424  0.40179  1.0000
  H   H84       1.0  0.70232  0.48063  0.37152  1.0000
  C   C223      1.0  0.66380  0.25261  0.34902  1.0000
  C   C224      1.0  0.65024  0.25786  0.42885  1.0000
  C   C225      1.0  0.62064  0.25847  0.42786  1.0000
  C   C226      1.0  0.60107  0.25249  0.34929  1.0000
  N   N31       1.0  0.61823  0.27034  0.50764  1.0000
  O   O49       1.0  0.66640  0.26923  0.50914  1.0000
  C   C227      1.0  0.64470  0.27530  0.55538  1.0000
  H   H85       1.0  0.65024  0.28666  0.61688  1.0000
  C   C228      1.0  0.76684  0.41542  0.37834  1.0000
  C   C229      1.0  0.76086  0.39545  0.45625  1.0000
  C   C230      1.0  0.76065  0.36543  0.45257  1.0000
  C   C231      1.0  0.76838  0.35341  0.37389  1.0000
  N   N32       1.0  0.74774  0.34970  0.53003  1.0000
  O   O50       1.0  0.74823  0.39871  0.53625  1.0000
  C   C232      1.0  0.74136  0.37003  0.57884  1.0000
  H   H86       1.0  0.73033  0.36367  0.64076  1.0000
  C   C233      1.0  0.59964  0.35407  0.38422  1.0000
  C   C234      1.0  0.61930  0.36355  0.46347  1.0000
  C   C235      1.0  0.65028  0.39234  0.46702  1.0000
  C   C236      1.0  0.66382  0.41532  0.39494  1.0000
  N   N33       1.0  0.66472  0.39096  0.54323  1.0000
  O   O51       1.0  0.61463  0.34364  0.53596  1.0000
  C   C237      1.0  0.64291  0.36272  0.58395  1.0000
  H   H87       1.0  0.64830  0.35476  0.64229  1.0000
  C   C238      1.0  0.85387  0.25595  0.25793  1.0000
  C   C239      1.0  0.87446  0.26979  0.33479  1.0000
  C   C240      1.0  0.90422  0.26932  0.34407  1.0000
  C   C241      1.0  0.91726  0.25768  0.27593  1.0000
  N   N34       1.0  0.91363  0.27664  0.42986  1.0000
  O   O52       1.0  0.86512  0.27699  0.41497  1.0000
  C   C242      1.0  0.89113  0.28247  0.46904  1.0000
  H   H88       1.0  0.89130  0.28664  0.53673  1.0000
  C   C243      1.0  0.75207  0.09769  0.35222  1.0000
  C   C244      1.0  0.75372  0.11984  0.42073  1.0000
  C   C245      1.0  0.75301  0.14886  0.40097  1.0000
  C   C246      1.0  0.75069  0.15840  0.31181  1.0000
  N   N35       1.0  0.76161  0.16688  0.47627  1.0000
  O   O53       1.0  0.76188  0.11931  0.50893  1.0000
  C   C247      1.0  0.76517  0.14842  0.53964  1.0000
  H   H89       1.0  0.77421  0.15752  0.60231  1.0000
  C   C248      1.0  0.91766  0.16010  0.37944  1.0000
  C   C249      1.0  0.89855  0.15284  0.45923  1.0000
  C   C250      1.0  0.86783  0.12388  0.46776  1.0000
  C   C251      1.0  0.85376  0.09904  0.40033  1.0000
  N   N36       1.0  0.85466  0.12612  0.54528  1.0000
  O   O54       1.0  0.90420  0.17392  0.52938  1.0000
  C   C252      1.0  0.87680  0.15524  0.58119  1.0000
  H   H90       1.0  0.87317  0.16296  0.64219  1.0000
  C   C253      1.0  0.99122  0.74695  0.33422  1.0000
  C   C254      1.0  0.93736  0.69373  0.35313  1.0000
  C   C255      1.0  0.97257  0.71241  0.35835  1.0000
  C   C256      1.0  0.52707  0.76650  0.33805  1.0000
  C   C257      1.0  0.54519  0.80178  0.35321  1.0000
  C   C258      1.0  0.58028  0.81982  0.36308  1.0000
  O   O55       1.0  0.98742  0.69756  0.40221  1.0000
  O   O56       1.0  0.52924  0.81840  0.37726  1.0000
  H   H91       1.0  0.98554  0.67964  0.36307  1.0000
  H   H92       1.0  0.53311  0.83435  0.32875  1.0000
  C   C259      1.0  0.76940  0.74804  0.30632  1.0000
  C   C260      1.0  0.81912  0.74319  0.26436  1.0000
  C   C261      1.0  0.80406  0.76253  0.28457  1.0000
  C   C262      1.0  0.75181  0.76610  0.31987  1.0000
  C   C263      1.0  0.71618  0.75073  0.31449  1.0000
  C   C264      1.0  0.69880  0.76703  0.34260  1.0000
  O   O57       1.0  0.82422  0.79549  0.27019  1.0000
  O   O58       1.0  0.69660  0.71954  0.28194  1.0000
  H   H93       1.0  0.81992  0.79988  0.20813  1.0000
  H   H94       1.0  0.70082  0.72061  0.21664  1.0000
  C   C265      1.0  0.76824  0.52449  0.34969  1.0000
  C   C266      1.0  0.76622  0.57713  0.36564  1.0000
  C   C267      1.0  0.75203  0.54362  0.33660  1.0000
  C   C268      1.0  0.75108  0.98846  0.34932  1.0000
  C   C269      1.0  0.76741  0.96912  0.34462  1.0000
  C   C270      1.0  0.75169  0.93535  0.37196  1.0000
  O   O59       1.0  0.72188  0.53078  0.29590  1.0000
  O   O60       1.0  0.79909  0.98184  0.31511  1.0000
  H   H95       1.0  0.72439  0.52461  0.23414  1.0000
  H   H96       1.0  0.79908  0.98694  0.25070  1.0000
  C   C271      1.0  0.61265  0.74356  0.27170  1.0000
  C   C272      1.0  0.64326  0.74440  0.27163  1.0000
  N   N37       1.0  0.65038  0.74210  0.18587  1.0000
  O   O61       1.0  0.60111  0.74143  0.18608  1.0000
  C   C273      1.0  0.62449  0.73857  0.13761  1.0000
  H   H97       1.0  0.62429  0.73793  0.06881  1.0000
  C   C274      1.0  0.77770  0.87504  0.29838  1.0000
  C   C275      1.0  0.77648  0.90458  0.30064  1.0000
  N   N38       1.0  0.77885  0.91471  0.21552  1.0000
  O   O62       1.0  0.78078  0.86684  0.21201  1.0000
  C   C276      1.0  0.78326  0.89328  0.16544  1.0000
  H   H98       1.0  0.78359  0.89411  0.09661  1.0000
  C   C277      1.0  0.64276  0.90772  0.31874  1.0000
  C   C278      1.0  0.61259  0.87758  0.31310  1.0000
  N   N39       1.0  0.60322  0.87365  0.22692  1.0000
  O   O63       1.0  0.65217  0.92233  0.23602  1.0000
  C   C279      1.0  0.62609  0.90074  0.18380  1.0000
  H   H99       1.0  0.62559  0.90356  0.11559  1.0000
  C   C280      1.0  0.89774  0.74614  0.19680  1.0000
  C   C281      1.0  0.86730  0.74499  0.18936  1.0000
  N   N40       1.0  0.85389  0.73020  0.11138  1.0000
  O   O64       1.0  0.90306  0.73102  0.12529  1.0000
  C   C282      1.0  0.87568  0.72300  0.07410  1.0000
  H   H100      1.0  0.87182  0.71205  0.01241  1.0000
  C   C283      1.0  0.74755  0.63560  0.24378  1.0000
  C   C284      1.0  0.74796  0.60642  0.26357  1.0000
  N   N41       1.0  0.75022  0.59387  0.18493  1.0000
  O   O65       1.0  0.74948  0.64128  0.15311  1.0000
  C   C285      1.0  0.74929  0.61372  0.12109  1.0000
  H   H101      1.0  0.75268  0.61075  0.05451  1.0000
  C   C286      1.0  0.87419  0.60497  0.32350  1.0000
  C   C287      1.0  0.90414  0.63494  0.31280  1.0000
  N   N42       1.0  0.91326  0.63640  0.22697  1.0000
  O   O66       1.0  0.86450  0.58797  0.24407  1.0000
  C   C288      1.0  0.89049  0.60791  0.18915  1.0000
  H   H102      1.0  0.89039  0.60349  0.12165  1.0000
  C   C289      1.0  0.97178  0.76128  0.30587  1.0000
  C   C290      1.0  0.93681  0.74351  0.30089  1.0000
  C   C291      1.0  0.92024  0.70974  0.32367  1.0000
  H   H103      1.0  0.98306  0.78484  0.28160  1.0000
  H   H104      1.0  0.89485  0.69664  0.32125  1.0000
  C   C292      1.0  0.59748  0.80226  0.35792  1.0000
  C   C293      1.0  0.58159  0.76800  0.34213  1.0000
  C   C294      1.0  0.54697  0.75118  0.32805  1.0000
  H   H105      1.0  0.62276  0.81502  0.36497  1.0000
  H   H106      1.0  0.53630  0.72682  0.31129  1.0000
  C   C295      1.0  0.75279  0.71294  0.31946  1.0000
  C   C296      1.0  0.76584  0.69268  0.29224  1.0000
  C   C297      1.0  0.79878  0.70848  0.26169  1.0000
  H   H107      1.0  0.73029  0.70116  0.35043  1.0000
  H   H108      1.0  0.80954  0.69419  0.25173  1.0000
  C   C298      1.0  0.71764  0.80094  0.36360  1.0000
  C   C299      1.0  0.75234  0.81875  0.35889  1.0000
  C   C300      1.0  0.76868  0.80090  0.33880  1.0000
  H   H109      1.0  0.70550  0.81378  0.37623  1.0000
  H   H110      1.0  0.79352  0.81381  0.34694  1.0000
  C   C301      1.0  0.80286  0.54412  0.36988  1.0000
  C   C302      1.0  0.81886  0.57817  0.39257  1.0000
  C   C303      1.0  0.79917  0.59317  0.39692  1.0000
  H   H111      1.0  0.81696  0.53346  0.37865  1.0000
  H   H112      1.0  0.81077  0.61820  0.40787  1.0000
  C   C304      1.0  0.71755  0.91932  0.39090  1.0000
  C   C305      1.0  0.69872  0.93510  0.38393  1.0000
  C   C306      1.0  0.71596  0.96935  0.36385  1.0000
  H   H113      1.0  0.70527  0.89424  0.40180  1.0000
  H   H114      1.0  0.70232  0.98063  0.37152  1.0000
  C   C307      1.0  0.66380  0.75261  0.34901  1.0000
  C   C308      1.0  0.65025  0.75786  0.42884  1.0000
  C   C309      1.0  0.62064  0.75847  0.42784  1.0000
  C   C310      1.0  0.60107  0.75249  0.34928  1.0000
  N   N43       1.0  0.61823  0.77034  0.50763  1.0000
  O   O67       1.0  0.66640  0.76923  0.50913  1.0000
  C   C311      1.0  0.64470  0.77530  0.55536  1.0000
  H   H115      1.0  0.65024  0.78667  0.61686  1.0000
  C   C312      1.0  0.76684  0.91542  0.37834  1.0000
  C   C313      1.0  0.76086  0.89545  0.45625  1.0000
  C   C314      1.0  0.76065  0.86543  0.45257  1.0000
  C   C315      1.0  0.76838  0.85341  0.37389  1.0000
  N   N44       1.0  0.74774  0.84970  0.53003  1.0000
  O   O68       1.0  0.74824  0.89871  0.53625  1.0000
  C   C316      1.0  0.74136  0.87003  0.57885  1.0000
  H   H116      1.0  0.73033  0.86366  0.64076  1.0000
  C   C317      1.0  0.59964  0.85407  0.38422  1.0000
  C   C318      1.0  0.61930  0.86355  0.46347  1.0000
  C   C319      1.0  0.65027  0.89234  0.46702  1.0000
  C   C320      1.0  0.66382  0.91532  0.39494  1.0000
  N   N45       1.0  0.66472  0.89096  0.54323  1.0000
  O   O69       1.0  0.61463  0.84364  0.53594  1.0000
  C   C321      1.0  0.64291  0.86271  0.58394  1.0000
  H   H117      1.0  0.64830  0.85476  0.64228  1.0000
  C   C322      1.0  0.85387  0.75595  0.25793  1.0000
  C   C323      1.0  0.87446  0.76980  0.33480  1.0000
  C   C324      1.0  0.90422  0.76932  0.34408  1.0000
  C   C325      1.0  0.91726  0.75769  0.27594  1.0000
  N   N46       1.0  0.91362  0.77664  0.42988  1.0000
  O   O70       1.0  0.86511  0.77698  0.41497  1.0000
  C   C326      1.0  0.89113  0.78247  0.46905  1.0000
  H   H118      1.0  0.89129  0.78663  0.53673  1.0000
  C   C327      1.0  0.75206  0.59769  0.35222  1.0000
  C   C328      1.0  0.75372  0.61984  0.42072  1.0000
  C   C329      1.0  0.75301  0.64886  0.40095  1.0000
  C   C330      1.0  0.75069  0.65840  0.31180  1.0000
  N   N47       1.0  0.76160  0.66688  0.47625  1.0000
  O   O71       1.0  0.76188  0.61931  0.50891  1.0000
  C   C331      1.0  0.76517  0.64842  0.53964  1.0000
  H   H119      1.0  0.77420  0.65752  0.60229  1.0000
  C   C332      1.0  0.91765  0.66011  0.37946  1.0000
  C   C333      1.0  0.89854  0.65284  0.45924  1.0000
  C   C334      1.0  0.86782  0.62388  0.46777  1.0000
  C   C335      1.0  0.85376  0.59904  0.40033  1.0000
  N   N48       1.0  0.85465  0.62612  0.54528  1.0000
  O   O72       1.0  0.90419  0.67392  0.52939  1.0000
  C   C336      1.0  0.87679  0.65524  0.58119  1.0000
  H   H120      1.0  0.87316  0.66296  0.64219  1.0000
