data_image0
_chemical_formula_structural       C4N2O4C4N2O4C2H2C2H2C2H2C2H2C4N2O4C4N2O4C4N2O4C4N2O4C2H2C2H2C2H2C2H2C4N2O4C4N2O4C4N2O4C4N2O4C6H3C6H3C6H3C6H3C6H3C6H3C6H3C6H3C6H3C6H3C6H3C6H3C2H2C2H2C4N2O4C4N2O4C4N2O4C4N2O4C2H2C2H2C2H2C2H2C4N2O4C4N2O4C4N2O4C4N2O4C2H2C2H2C2H2C2H2
_chemical_formula_sum              "C180 N36 O72 H72"
_cell_length_a       34.411
_cell_length_b       34.2532
_cell_length_c       14.8603
_cell_angle_alpha    90
_cell_angle_beta     90
_cell_angle_gamma    90.2677

_space_group_name_H-M_alt    "P 1"
_space_group_IT_number       1

loop_
  _space_group_symop_operation_xyz
  'x, y, z'

loop_
  _atom_site_type_symbol
  _atom_site_label
  _atom_site_symmetry_multiplicity
  _atom_site_fract_x
  _atom_site_fract_y
  _atom_site_fract_z
  _atom_site_occupancy
  C   C1        1.0  0.97291  0.53191  0.33627  1.0000
  C   C2        1.0  0.03223  0.47361  0.33443  1.0000
  C   C3        1.0  0.01638  0.48779  0.25203  1.0000
  C   C4        1.0  0.98694  0.51689  0.25293  1.0000
  N   N1        1.0  0.02865  0.47418  0.16649  1.0000
  N   N2        1.0  0.97307  0.52997  0.16820  1.0000
  O   O1        1.0  0.06376  0.48175  0.15136  1.0000
  O   O2        1.0  0.97935  0.56572  0.15561  1.0000
  O   O3        1.0  0.02249  0.43831  0.15576  1.0000
  O   O4        1.0  0.93762  0.52267  0.15673  1.0000
  C   C5        1.0  0.47237  0.97247  0.33657  1.0000
  C   C6        1.0  0.53177  0.03114  0.33622  1.0000
  C   C7        1.0  0.51677  0.01642  0.25336  1.0000
  C   C8        1.0  0.48723  0.98715  0.25353  1.0000
  N   N3        1.0  0.53014  0.02956  0.16816  1.0000
  N   N4        1.0  0.47371  0.97396  0.16849  1.0000
  O   O5        1.0  0.52353  0.06516  0.15529  1.0000
  O   O6        1.0  0.43822  0.98069  0.15669  1.0000
  O   O7        1.0  0.56563  0.02288  0.15613  1.0000
  O   O8        1.0  0.48024  0.93834  0.15574  1.0000
  C   C9        1.0  0.05541  0.27369  0.26826  1.0000
  C   C10       1.0  0.06404  0.31383  0.26796  1.0000
  H   H1        1.0  0.06690  0.32782  0.20738  1.0000
  H   H2        1.0  0.05210  0.25956  0.20799  1.0000
  C   C11       1.0  0.94801  0.73228  0.27547  1.0000
  C   C12       1.0  0.93961  0.69209  0.27404  1.0000
  H   H3        1.0  0.93623  0.67852  0.21311  1.0000
  H   H4        1.0  0.95067  0.74680  0.21552  1.0000
  C   C13       1.0  0.73089  0.05478  0.27110  1.0000
  C   C14       1.0  0.69097  0.06323  0.27072  1.0000
  H   H5        1.0  0.67697  0.06558  0.21014  1.0000
  H   H6        1.0  0.74481  0.05110  0.21079  1.0000
  C   C15       1.0  0.27365  0.94989  0.26926  1.0000
  C   C16       1.0  0.31345  0.94087  0.26976  1.0000
  H   H7        1.0  0.32760  0.93812  0.20946  1.0000
  H   H8        1.0  0.25991  0.95350  0.20871  1.0000
  C   C17       1.0  0.45204  0.75228  0.33157  1.0000
  C   C18       1.0  0.43386  0.83345  0.33634  1.0000
  C   C19       1.0  0.43873  0.81425  0.25240  1.0000
  C   C20       1.0  0.44780  0.77363  0.24978  1.0000
  N   N5        1.0  0.43387  0.83697  0.17336  1.0000
  N   N6        1.0  0.45190  0.75629  0.16369  1.0000
  O   O9        1.0  0.40611  0.82494  0.12578  1.0000
  O   O10       1.0  0.42719  0.72993  0.14950  1.0000
  O   O11       1.0  0.46431  0.83840  0.12677  1.0000
  O   O12       1.0  0.48541  0.74315  0.15063  1.0000
  C   C21       1.0  0.55289  0.25157  0.33089  1.0000
  C   C22       1.0  0.57019  0.17023  0.33552  1.0000
  C   C23       1.0  0.56446  0.18926  0.25168  1.0000
  C   C24       1.0  0.55585  0.22998  0.24912  1.0000
  N   N7        1.0  0.56809  0.16628  0.17266  1.0000
  N   N8        1.0  0.55103  0.24719  0.16310  1.0000
  O   O13       1.0  0.59539  0.17785  0.12310  1.0000
  O   O14       1.0  0.57576  0.27336  0.14736  1.0000
  O   O15       1.0  0.53707  0.16511  0.12813  1.0000
  O   O16       1.0  0.51750  0.26053  0.15166  1.0000
  C   C25       1.0  0.75291  0.55320  0.33145  1.0000
  C   C26       1.0  0.83429  0.56958  0.33656  1.0000
  C   C27       1.0  0.81510  0.56503  0.25256  1.0000
  C   C28       1.0  0.77440  0.55680  0.24976  1.0000
  N   N9        1.0  0.83793  0.56939  0.17362  1.0000
  N   N10       1.0  0.75711  0.55295  0.16360  1.0000
  O   O17       1.0  0.82686  0.59749  0.12587  1.0000
  O   O18       1.0  0.73162  0.57830  0.14917  1.0000
  O   O19       1.0  0.83849  0.53876  0.12714  1.0000
  O   O20       1.0  0.74304  0.51957  0.15063  1.0000
  C   C29       1.0  0.25243  0.45093  0.33550  1.0000
  C   C30       1.0  0.17089  0.43530  0.33356  1.0000
  C   C31       1.0  0.19150  0.44050  0.25109  1.0000
  C   C32       1.0  0.23225  0.44850  0.25229  1.0000
  N   N11       1.0  0.17337  0.43782  0.16564  1.0000
  N   N12       1.0  0.25432  0.45402  0.17255  1.0000
  O   O21       1.0  0.14824  0.46378  0.15434  1.0000
  O   O22       1.0  0.24297  0.48298  0.12798  1.0000
  O   O23       1.0  0.15860  0.40480  0.15121  1.0000
  O   O24       1.0  0.25422  0.42419  0.12335  1.0000
  C   C33       1.0  0.12835  0.06267  0.26820  1.0000
  C   C34       1.0  0.10524  0.09631  0.26845  1.0000
  H   H9        1.0  0.09279  0.10506  0.20921  1.0000
  H   H10       1.0  0.13189  0.04792  0.20880  1.0000
  C   C35       1.0  0.87507  0.94159  0.27021  1.0000
  C   C36       1.0  0.89807  0.90787  0.27186  1.0000
  H   H11       1.0  0.90960  0.89799  0.21257  1.0000
  H   H12       1.0  0.87065  0.95528  0.20980  1.0000
  C   C37       1.0  0.94283  0.12846  0.26569  1.0000
  C   C38       1.0  0.90868  0.10593  0.26430  1.0000
  H   H13       1.0  0.90011  0.09359  0.20467  1.0000
  H   H14       1.0  0.95806  0.13187  0.20695  1.0000
  C   C39       1.0  0.06074  0.87821  0.27028  1.0000
  C   C40       1.0  0.09483  0.90082  0.26901  1.0000
  H   H15       1.0  0.10282  0.91399  0.20989  1.0000
  H   H16       1.0  0.04502  0.87562  0.21201  1.0000
  C   C41       1.0  0.36205  0.54497  0.33677  1.0000
  C   C42       1.0  0.40807  0.61440  0.33492  1.0000
  C   C43       1.0  0.39158  0.59988  0.25341  1.0000
  C   C44       1.0  0.36864  0.56520  0.25429  1.0000
  N   N13       1.0  0.39835  0.61744  0.16831  1.0000
  N   N14       1.0  0.35505  0.55127  0.16991  1.0000
  O   O25       1.0  0.43349  0.61707  0.14557  1.0000
  O   O26       1.0  0.31866  0.54893  0.16668  1.0000
  O   O27       1.0  0.38558  0.65166  0.16469  1.0000
  O   O28       1.0  0.36965  0.51908  0.14831  1.0000
  C   C45       1.0  0.64340  0.45871  0.33373  1.0000
  C   C46       1.0  0.59708  0.38943  0.33359  1.0000
  C   C47       1.0  0.61364  0.40348  0.25174  1.0000
  C   C48       1.0  0.63678  0.43802  0.25183  1.0000
  N   N15       1.0  0.60666  0.38564  0.16701  1.0000
  N   N16       1.0  0.65087  0.45113  0.16726  1.0000
  O   O29       1.0  0.57148  0.38608  0.14454  1.0000
  O   O30       1.0  0.68730  0.45216  0.16465  1.0000
  O   O31       1.0  0.61932  0.35137  0.16378  1.0000
  O   O32       1.0  0.63738  0.48364  0.14437  1.0000
  C   C49       1.0  0.54672  0.64353  0.33278  1.0000
  C   C50       1.0  0.61600  0.59798  0.33289  1.0000
  C   C51       1.0  0.60134  0.61350  0.25065  1.0000
  C   C52       1.0  0.56679  0.63618  0.25060  1.0000
  N   N17       1.0  0.61863  0.60591  0.16577  1.0000
  N   N18       1.0  0.55295  0.64895  0.16563  1.0000
  O   O33       1.0  0.61791  0.57040  0.14482  1.0000
  O   O34       1.0  0.55115  0.68546  0.16070  1.0000
  O   O35       1.0  0.65280  0.61872  0.16113  1.0000
  O   O36       1.0  0.52072  0.63418  0.14486  1.0000
  C   C53       1.0  0.45840  0.36030  0.33552  1.0000
  C   C54       1.0  0.38910  0.40568  0.33797  1.0000
  C   C55       1.0  0.40261  0.38923  0.25562  1.0000
  C   C56       1.0  0.43719  0.36660  0.25439  1.0000
  N   N19       1.0  0.38415  0.39590  0.17160  1.0000
  N   N20       1.0  0.44994  0.35293  0.16925  1.0000
  O   O37       1.0  0.38468  0.43117  0.14858  1.0000
  O   O38       1.0  0.45127  0.31636  0.16611  1.0000
  O   O39       1.0  0.34987  0.38320  0.17003  1.0000
  O   O40       1.0  0.48209  0.36713  0.14574  1.0000
  C   C57       1.0  0.07967  0.37474  0.34477  1.0000
  C   C58       1.0  0.11930  0.38568  0.34141  1.0000
  C   C59       1.0  0.13062  0.42535  0.33662  1.0000
  C   C60       1.0  0.10146  0.45437  0.33556  1.0000
  C   C61       1.0  0.06152  0.44421  0.33747  1.0000
  C   C62       1.0  0.05105  0.40424  0.34236  1.0000
  H   H17       1.0  0.10941  0.48320  0.33225  1.0000
  H   H18       1.0  0.02226  0.39651  0.34403  1.0000
  H   H19       1.0  0.14020  0.36445  0.34243  1.0000
  C   C63       1.0  0.92516  0.63055  0.34957  1.0000
  C   C64       1.0  0.88556  0.61946  0.34651  1.0000
  C   C65       1.0  0.87443  0.57975  0.34198  1.0000
  C   C66       1.0  0.90368  0.55086  0.33922  1.0000
  C   C67       1.0  0.94357  0.56118  0.34103  1.0000
  C   C68       1.0  0.95391  0.60117  0.34658  1.0000
  H   H20       1.0  0.89583  0.52204  0.33478  1.0000
  H   H21       1.0  0.98267  0.60901  0.34788  1.0000
  H   H22       1.0  0.86456  0.64059  0.34774  1.0000
  C   C69       1.0  0.63048  0.07917  0.34752  1.0000
  C   C70       1.0  0.61969  0.11892  0.34458  1.0000
  C   C71       1.0  0.58022  0.12999  0.34067  1.0000
  C   C72       1.0  0.55126  0.10056  0.33838  1.0000
  C   C73       1.0  0.56127  0.06053  0.34000  1.0000
  C   C74       1.0  0.60101  0.05022  0.34494  1.0000
  H   H23       1.0  0.52260  0.10838  0.33448  1.0000
  H   H24       1.0  0.60859  0.02134  0.34628  1.0000
  H   H25       1.0  0.64086  0.14008  0.34538  1.0000
  C   C75       1.0  0.37358  0.92464  0.34779  1.0000
  C   C76       1.0  0.38430  0.88485  0.34509  1.0000
  C   C77       1.0  0.42377  0.87370  0.34161  1.0000
  C   C78       1.0  0.45278  0.90308  0.33945  1.0000
  C   C79       1.0  0.44284  0.94313  0.34070  1.0000
  C   C80       1.0  0.40311  0.95351  0.34527  1.0000
  H   H26       1.0  0.48143  0.89522  0.33568  1.0000
  H   H27       1.0  0.39559  0.98242  0.34624  1.0000
  H   H28       1.0  0.36310  0.86373  0.34570  1.0000
  C   C81       1.0  0.06665  0.14432  0.34803  1.0000
  C   C82       1.0  0.02761  0.13140  0.34673  1.0000
  C   C83       1.0  0.99646  0.15810  0.34693  1.0000
  C   C84       1.0  0.00479  0.19854  0.34684  1.0000
  C   C85       1.0  0.04367  0.21223  0.34722  1.0000
  C   C86       1.0  0.07440  0.18488  0.34805  1.0000
  H   H29       1.0  0.98237  0.21812  0.34709  1.0000
  H   H30       1.0  0.10263  0.19452  0.34908  1.0000
  H   H31       1.0  0.02176  0.10200  0.34739  1.0000
  C   C87       1.0  0.93768  0.86121  0.35308  1.0000
  C   C88       1.0  0.97673  0.87404  0.35114  1.0000
  C   C89       1.0  0.00784  0.84730  0.35170  1.0000
  C   C90       1.0  0.99941  0.80688  0.35308  1.0000
  C   C91       1.0  0.96051  0.79323  0.35511  1.0000
  C   C92       1.0  0.92983  0.82067  0.35443  1.0000
  H   H32       1.0  0.02179  0.78727  0.35329  1.0000
  H   H33       1.0  0.90159  0.81112  0.35585  1.0000
  H   H34       1.0  0.98262  0.90344  0.35085  1.0000
  C   C93       1.0  0.85989  0.06738  0.34278  1.0000
  C   C94       1.0  0.87265  0.02828  0.34315  1.0000
  C   C95       1.0  0.84604  0.99684  0.34670  1.0000
  C   C96       1.0  0.80580  0.00494  0.34881  1.0000
  C   C97       1.0  0.79223  0.04393  0.34892  1.0000
  C   C98       1.0  0.81958  0.07496  0.34596  1.0000
  H   H35       1.0  0.78630  0.98228  0.35174  1.0000
  H   H36       1.0  0.81013  0.10327  0.34696  1.0000
  H   H37       1.0  0.90192  0.02262  0.34307  1.0000
  C   C99       1.0  0.14445  0.93829  0.34692  1.0000
  C   C100      1.0  0.13184  0.97746  0.34636  1.0000
  C   C101      1.0  0.15857  0.00885  0.34716  1.0000
  C   C102      1.0  0.19879  0.00062  0.34726  1.0000
  C   C103      1.0  0.21220  0.96158  0.34697  1.0000
  C   C104      1.0  0.18477  0.93063  0.34707  1.0000
  H   H38       1.0  0.21840  0.02321  0.34830  1.0000
  H   H39       1.0  0.19418  0.90230  0.34779  1.0000
  H   H40       1.0  0.10260  0.98323  0.34734  1.0000
  C   C105      1.0  0.43790  0.64331  0.33534  1.0000
  C   C106      1.0  0.47700  0.63096  0.33569  1.0000
  C   C107      1.0  0.50804  0.65808  0.33439  1.0000
  C   C108      1.0  0.49947  0.69841  0.33371  1.0000
  C   C109      1.0  0.46050  0.71159  0.33331  1.0000
  C   C110      1.0  0.42994  0.68375  0.33483  1.0000
  H   H41       1.0  0.52179  0.71830  0.33274  1.0000
  H   H42       1.0  0.40166  0.69295  0.33465  1.0000
  H   H43       1.0  0.48298  0.60164  0.33534  1.0000
  C   C111      1.0  0.56724  0.36052  0.33466  1.0000
  C   C112      1.0  0.52815  0.37288  0.33591  1.0000
  C   C113      1.0  0.49709  0.34578  0.33538  1.0000
  C   C114      1.0  0.50562  0.30545  0.33434  1.0000
  C   C115      1.0  0.54457  0.29226  0.33274  1.0000
  C   C116      1.0  0.57517  0.32007  0.33367  1.0000
  H   H44       1.0  0.48329  0.28558  0.33418  1.0000
  H   H45       1.0  0.60344  0.31083  0.33281  1.0000
  H   H46       1.0  0.52217  0.40220  0.33587  1.0000
  C   C117      1.0  0.64453  0.56802  0.33452  1.0000
  C   C118      1.0  0.63178  0.52878  0.33548  1.0000
  C   C119      1.0  0.65838  0.49751  0.33480  1.0000
  C   C120      1.0  0.69863  0.50597  0.33422  1.0000
  C   C121      1.0  0.71225  0.54506  0.33307  1.0000
  C   C122      1.0  0.68491  0.57588  0.33387  1.0000
  H   H47       1.0  0.71813  0.48347  0.33382  1.0000
  H   H48       1.0  0.69443  0.60425  0.33304  1.0000
  H   H49       1.0  0.60252  0.52284  0.33493  1.0000
  C   C123      1.0  0.36066  0.43570  0.33990  1.0000
  C   C124      1.0  0.37355  0.47490  0.34021  1.0000
  C   C125      1.0  0.34703  0.50623  0.33907  1.0000
  C   C126      1.0  0.30677  0.49792  0.33878  1.0000
  C   C127      1.0  0.29307  0.45888  0.33943  1.0000
  C   C128      1.0  0.32026  0.42796  0.33978  1.0000
  H   H50       1.0  0.28734  0.52048  0.33748  1.0000
  H   H51       1.0  0.31063  0.39962  0.33906  1.0000
  H   H52       1.0  0.40282  0.48076  0.33915  1.0000
  C   C129      1.0  0.98893  0.51756  0.41718  1.0000
  C   C130      1.0  0.01804  0.48886  0.41627  1.0000
  H   H53       1.0  0.02883  0.47913  0.47641  1.0000
  H   H54       1.0  0.97942  0.52790  0.47794  1.0000
  C   C131      1.0  0.48753  0.98741  0.41792  1.0000
  C   C132      1.0  0.51677  0.01623  0.41774  1.0000
  H   H55       1.0  0.52702  0.02634  0.47815  1.0000
  H   H56       1.0  0.47738  0.97733  0.47845  1.0000
  C   C133      1.0  0.05179  0.25302  0.34996  1.0000
  C   C134      1.0  0.06918  0.33450  0.34930  1.0000
  C   C135      1.0  0.06553  0.31406  0.43251  1.0000
  C   C136      1.0  0.05676  0.27327  0.43260  1.0000
  N   N21       1.0  0.07032  0.33246  0.51730  1.0000
  N   N22       1.0  0.05284  0.25128  0.51306  1.0000
  O   O41       1.0  0.10404  0.34581  0.52843  1.0000
  O   O42       1.0  0.08369  0.25090  0.55827  1.0000
  O   O43       1.0  0.04592  0.35903  0.53025  1.0000
  O   O44       1.0  0.02537  0.26325  0.56127  1.0000
  C   C137      1.0  0.95237  0.75244  0.35770  1.0000
  C   C138      1.0  0.93546  0.67080  0.35482  1.0000
  C   C139      1.0  0.93981  0.69068  0.43852  1.0000
  C   C140      1.0  0.94830  0.73138  0.43996  1.0000
  N   N23       1.0  0.93589  0.67167  0.52296  1.0000
  N   N24       1.0  0.95203  0.74919  0.52577  1.0000
  O   O45       1.0  0.90238  0.65797  0.53518  1.0000
  O   O46       1.0  0.92683  0.77490  0.53925  1.0000
  O   O47       1.0  0.96064  0.64527  0.53395  1.0000
  O   O48       1.0  0.98528  0.76331  0.53868  1.0000
  C   C141      1.0  0.75166  0.05189  0.35272  1.0000
  C   C142      1.0  0.67051  0.06889  0.35197  1.0000
  C   C143      1.0  0.69099  0.06596  0.43508  1.0000
  C   C144      1.0  0.73146  0.05749  0.43547  1.0000
  N   N25       1.0  0.67278  0.07111  0.51995  1.0000
  N   N26       1.0  0.74992  0.05519  0.52070  1.0000
  O   O49       1.0  0.65967  0.10497  0.53033  1.0000
  O   O50       1.0  0.76360  0.02193  0.53592  1.0000
  O   O51       1.0  0.64625  0.04652  0.53374  1.0000
  O   O52       1.0  0.77604  0.08055  0.53069  1.0000
  C   C145      1.0  0.25274  0.95341  0.35050  1.0000
  C   C146      1.0  0.33357  0.93514  0.35146  1.0000
  C   C147      1.0  0.31289  0.93873  0.43422  1.0000
  C   C148      1.0  0.27245  0.94789  0.43350  1.0000
  N   N27       1.0  0.33075  0.93353  0.51936  1.0000
  N   N28       1.0  0.25026  0.95170  0.51351  1.0000
  O   O53       1.0  0.34338  0.89952  0.53030  1.0000
  O   O54       1.0  0.24916  0.92054  0.55806  1.0000
  O   O55       1.0  0.35758  0.95778  0.53330  1.0000
  O   O56       1.0  0.26244  0.97901  0.56257  1.0000
  C   C149      1.0  0.44699  0.77192  0.41425  1.0000
  C   C150      1.0  0.43797  0.81188  0.41662  1.0000
  H   H57       1.0  0.43429  0.82513  0.47779  1.0000
  H   H58       1.0  0.44965  0.75716  0.47386  1.0000
  C   C151      1.0  0.55883  0.23211  0.41346  1.0000
  C   C152      1.0  0.56748  0.19207  0.41576  1.0000
  H   H59       1.0  0.57186  0.17895  0.47683  1.0000
  H   H60       1.0  0.55708  0.24704  0.47302  1.0000
  C   C153      1.0  0.77253  0.55796  0.41419  1.0000
  C   C154      1.0  0.81257  0.56618  0.41673  1.0000
  H   H61       1.0  0.82576  0.56985  0.47795  1.0000
  H   H62       1.0  0.75770  0.55571  0.47374  1.0000
  C   C155      1.0  0.23172  0.44541  0.41646  1.0000
  C   C156      1.0  0.19158  0.43763  0.41545  1.0000
  H   H63       1.0  0.17755  0.43345  0.47551  1.0000
  H   H64       1.0  0.24577  0.44691  0.47712  1.0000
  C   C157      1.0  0.14366  0.04753  0.34905  1.0000
  C   C158      1.0  0.09667  0.11589  0.34957  1.0000
  C   C159      1.0  0.11269  0.10162  0.43166  1.0000
  C   C160      1.0  0.13610  0.06747  0.43140  1.0000
  N   N29       1.0  0.10474  0.11875  0.51664  1.0000
  N   N30       1.0  0.14917  0.05366  0.51619  1.0000
  O   O57       1.0  0.06945  0.11673  0.53775  1.0000
  O   O58       1.0  0.18555  0.05173  0.52056  1.0000
  O   O59       1.0  0.11614  0.15357  0.52126  1.0000
  O   O60       1.0  0.13454  0.02126  0.53714  1.0000
  C   C161      1.0  0.86109  0.95828  0.35072  1.0000
  C   C162      1.0  0.90776  0.88973  0.35408  1.0000
  C   C163      1.0  0.89313  0.90563  0.43595  1.0000
  C   C164      1.0  0.86993  0.93990  0.43431  1.0000
  N   N31       1.0  0.90198  0.88985  0.52180  1.0000
  N   N32       1.0  0.85811  0.95519  0.51874  1.0000
  O   O61       1.0  0.93753  0.89161  0.54044  1.0000
  O   O62       1.0  0.82180  0.95637  0.52612  1.0000
  O   O63       1.0  0.89001  0.85537  0.53015  1.0000
  O   O64       1.0  0.87239  0.98823  0.53530  1.0000
  C   C165      1.0  0.95781  0.14317  0.34743  1.0000
  C   C166      1.0  0.88838  0.09760  0.34457  1.0000
  C   C167      1.0  0.90246  0.11286  0.42733  1.0000
  C   C168      1.0  0.93722  0.13575  0.42900  1.0000
  N   N33       1.0  0.88196  0.10243  0.50676  1.0000
  N   N34       1.0  0.95068  0.14854  0.51432  1.0000
  O   O65       1.0  0.86929  0.13178  0.54783  1.0000
  O   O66       1.0  0.95325  0.18505  0.51919  1.0000
  O   O67       1.0  0.90219  0.08217  0.55927  1.0000
  O   O68       1.0  0.98252  0.13351  0.53613  1.0000
  C   C169      1.0  0.04651  0.86221  0.35144  1.0000
  C   C170      1.0  0.11584  0.90818  0.34885  1.0000
  C   C171      1.0  0.10250  0.89140  0.43113  1.0000
  C   C172      1.0  0.06791  0.86847  0.43239  1.0000
  N   N35       1.0  0.12111  0.89804  0.51505  1.0000
  N   N36       1.0  0.05536  0.85445  0.51748  1.0000
  O   O69       1.0  0.12074  0.93327  0.53840  1.0000
  O   O70       1.0  0.05394  0.81786  0.52020  1.0000
  O   O71       1.0  0.15535  0.88554  0.51625  1.0000
  O   O72       1.0  0.02331  0.86836  0.54162  1.0000
  C   C173      1.0  0.37782  0.56028  0.41710  1.0000
  C   C174      1.0  0.40049  0.59443  0.41616  1.0000
  H   H65       1.0  0.41332  0.60334  0.47493  1.0000
  H   H66       1.0  0.37487  0.54539  0.47652  1.0000
  C   C175      1.0  0.62752  0.44384  0.41439  1.0000
  C   C176      1.0  0.60474  0.40976  0.41432  1.0000
  H   H67       1.0  0.59187  0.40118  0.47330  1.0000
  H   H68       1.0  0.63045  0.45905  0.47338  1.0000
  C   C177      1.0  0.56215  0.62865  0.41379  1.0000
  C   C178      1.0  0.59619  0.60622  0.41383  1.0000
  H   H69       1.0  0.60504  0.59389  0.47316  1.0000
  H   H70       1.0  0.54732  0.63190  0.47308  1.0000
  C   C179      1.0  0.44400  0.37593  0.41676  1.0000
  C   C180      1.0  0.40994  0.39828  0.41794  1.0000
  H   H71       1.0  0.40187  0.41126  0.47713  1.0000
  H   H72       1.0  0.45962  0.37334  0.47515  1.0000
