data_image0
_chemical_formula_structural       C2NO2CNC5H4C5H4NCHC4H4C4H4OC13H5C13H5NCHNCHNCHNCHNCHNCHC2NCNOC2NCNO2CNC2NCNO2C2NCNO2C2NO2C2NCNO2C2NCNO2C2NCNO2C2NCNO2C2NCNO2C2NCNO2C2H2C24H15C2H2C24H15C24H15C24H15C24H15C24H15C24H15C24H15C24H15C24H15C2NCNO2C2NCNO2C2NCNO2C2NCNO2C2NCNO2C2NCNO2NCHNCHCHNCHNCHN2CHNCHNCHNCHNCHNCH
_chemical_formula_sum              "C360 N54 O36 H198"
_cell_length_a       75.5709
_cell_length_b       75.5709
_cell_length_c       14.9317
_cell_angle_alpha    90
_cell_angle_beta     90
_cell_angle_gamma    120

_space_group_name_H-M_alt    "P 1"
_space_group_IT_number       1

loop_
  _space_group_symop_operation_xyz
  'x, y, z'

loop_
  _atom_site_type_symbol
  _atom_site_label
  _atom_site_symmetry_multiplicity
  _atom_site_fract_x
  _atom_site_fract_y
  _atom_site_fract_z
  _atom_site_occupancy
  C   C1        1.0  0.02083  0.80778  0.33033  1.0000
  C   C2        1.0  0.00855  0.80484  0.25360  1.0000
  N   N1        1.0  0.01702  0.81186  0.16796  1.0000
  O   O1        1.0  0.01119  0.82353  0.13684  1.0000
  O   O2        1.0  0.01144  0.79710  0.11497  1.0000
  C   C3        1.0  0.02016  0.20132  0.34135  1.0000
  N   N2        1.0  0.01003  0.19282  0.26368  1.0000
  C   C4        1.0  0.07475  0.21786  0.28160  1.0000
  C   C5        1.0  0.05323  0.20725  0.28158  1.0000
  C   C6        1.0  0.04203  0.21230  0.34234  1.0000
  C   C7        1.0  0.05339  0.22872  0.40213  1.0000
  C   C8        1.0  0.07491  0.23953  0.40138  1.0000
  H   H1        1.0  0.08213  0.21370  0.23609  1.0000
  H   H2        1.0  0.04580  0.19548  0.23711  1.0000
  H   H3        1.0  0.08243  0.25118  0.44631  1.0000
  H   H4        1.0  0.04612  0.23336  0.44595  1.0000
  C   C9        1.0  0.07515  0.82263  0.38687  1.0000
  C   C10       1.0  0.05363  0.81192  0.38451  1.0000
  C   C11       1.0  0.04270  0.81880  0.33156  1.0000
  C   C12       1.0  0.05429  0.83719  0.28315  1.0000
  C   C13       1.0  0.07580  0.84784  0.28519  1.0000
  H   H5        1.0  0.04598  0.79880  0.42139  1.0000
  H   H6        1.0  0.08226  0.81712  0.42707  1.0000
  H   H7        1.0  0.04720  0.84335  0.24699  1.0000
  H   H8        1.0  0.08338  0.86080  0.24725  1.0000
  N   N3        1.0  0.01073  0.79916  0.40806  1.0000
  C   C14       1.0  0.00777  0.19854  0.41689  1.0000
  H   H9        1.0  0.01388  0.20401  0.47859  1.0000
  C   C15       1.0  0.11912  0.26674  0.34092  1.0000
  C   C16       1.0  0.10791  0.24512  0.34085  1.0000
  C   C17       1.0  0.11897  0.23455  0.33998  1.0000
  C   C18       1.0  0.08603  0.23424  0.34146  1.0000
  H   H10       1.0  0.13152  0.21041  0.24731  1.0000
  H   H11       1.0  0.13465  0.30350  0.23657  1.0000
  H   H12       1.0  0.11101  0.21893  0.34310  1.0000
  H   H13       1.0  0.11136  0.27463  0.34157  1.0000
  C   C19       1.0  0.10874  0.85169  0.33875  1.0000
  C   C20       1.0  0.11988  0.84118  0.33882  1.0000
  C   C21       1.0  0.12007  0.87334  0.33994  1.0000
  C   C22       1.0  0.08677  0.84080  0.33686  1.0000
  H   H14       1.0  0.13606  0.91017  0.23600  1.0000
  H   H15       1.0  0.13518  0.81974  0.44356  1.0000
  H   H16       1.0  0.11210  0.82556  0.33472  1.0000
  H   H17       1.0  0.11240  0.88130  0.34309  1.0000
  O   O3        1.0  0.16878  0.17545  0.13705  1.0000
  C   C23       1.0  0.14062  0.24488  0.33876  1.0000
  C   C24       1.0  0.15114  0.26653  0.33880  1.0000
  C   C25       1.0  0.14074  0.27777  0.33996  1.0000
  C   C26       1.0  0.15179  0.29964  0.33974  1.0000
  C   C27       1.0  0.16836  0.31078  0.39886  1.0000
  C   C28       1.0  0.17394  0.34364  0.33989  1.0000
  C   C29       1.0  0.15734  0.33243  0.28074  1.0000
  C   C30       1.0  0.14644  0.31090  0.28095  1.0000
  C   C31       1.0  0.15151  0.23380  0.33690  1.0000
  C   C32       1.0  0.16968  0.24035  0.38692  1.0000
  C   C33       1.0  0.17352  0.21173  0.33167  1.0000
  C   C34       1.0  0.15513  0.20492  0.28325  1.0000
  C   C35       1.0  0.14447  0.21578  0.28523  1.0000
  H   H18       1.0  0.17520  0.25297  0.42710  1.0000
  H   H19       1.0  0.14897  0.19168  0.24709  1.0000
  H   H20       1.0  0.15262  0.33979  0.23788  1.0000
  H   H21       1.0  0.17258  0.30329  0.44355  1.0000
  H   H22       1.0  0.16675  0.27437  0.33475  1.0000
  C   C36       1.0  0.14151  0.85157  0.33996  1.0000
  C   C37       1.0  0.15210  0.87319  0.34092  1.0000
  C   C38       1.0  0.14170  0.88440  0.34085  1.0000
  C   C39       1.0  0.15234  0.84052  0.33976  1.0000
  C   C40       1.0  0.14689  0.82395  0.39887  1.0000
  C   C41       1.0  0.15770  0.81324  0.39951  1.0000
  C   C42       1.0  0.17419  0.81839  0.34004  1.0000
  C   C43       1.0  0.16895  0.84587  0.28099  1.0000
  C   C44       1.0  0.15269  0.90628  0.34144  1.0000
  C   C45       1.0  0.14760  0.91756  0.28156  1.0000
  C   C46       1.0  0.15851  0.93908  0.28146  1.0000
  C   C47       1.0  0.17476  0.95028  0.34224  1.0000
  C   C48       1.0  0.16910  0.91740  0.40138  1.0000
  H   H23       1.0  0.15417  0.94650  0.23697  1.0000
  H   H24       1.0  0.17324  0.90989  0.44629  1.0000
  H   H25       1.0  0.17335  0.85767  0.23665  1.0000
  H   H26       1.0  0.15314  0.80136  0.44353  1.0000
  H   H27       1.0  0.16775  0.88095  0.34158  1.0000
  N   N4        1.0  0.19818  0.39863  0.27599  1.0000
  C   C49       1.0  0.18743  0.37801  0.26684  1.0000
  H   H28       1.0  0.18177  0.37200  0.20522  1.0000
  N   N5        1.0  0.59359  0.79312  0.27718  1.0000
  C   C50       1.0  0.61420  0.80385  0.26767  1.0000
  H   H29       1.0  0.62017  0.80894  0.20542  1.0000
  N   N6        1.0  0.20496  0.79416  0.27644  1.0000
  C   C51       1.0  0.19509  0.80489  0.26716  1.0000
  H   H30       1.0  0.19476  0.81056  0.20552  1.0000
  N   N7        1.0  0.79973  0.58808  0.27605  1.0000
  C   C52       1.0  0.81048  0.60870  0.26676  1.0000
  H   H31       1.0  0.81611  0.61469  0.20507  1.0000
  N   N8        1.0  0.40418  0.19936  0.27629  1.0000
  C   C53       1.0  0.38357  0.18949  0.26704  1.0000
  H   H32       1.0  0.37756  0.18910  0.20536  1.0000
  N   N9        1.0  0.79292  0.19255  0.27653  1.0000
  C   C54       1.0  0.80279  0.18180  0.26740  1.0000
  H   H33       1.0  0.80315  0.17614  0.20579  1.0000
  C   C55       1.0  0.18453  0.20087  0.33049  1.0000
  C   C56       1.0  0.20685  0.18007  0.34118  1.0000
  N   N10       1.0  0.19836  0.18170  0.26347  1.0000
  C   C57       1.0  0.18747  0.19152  0.25380  1.0000
  N   N11       1.0  0.18045  0.19297  0.16814  1.0000
  O   O4        1.0  0.19521  0.20213  0.11515  1.0000
  C   C58       1.0  0.79142  0.97143  0.32978  1.0000
  C   C59       1.0  0.81226  0.01455  0.34117  1.0000
  N   N12       1.0  0.81063  0.00449  0.26329  1.0000
  C   C60       1.0  0.80079  0.98378  0.25327  1.0000
  N   N13       1.0  0.79935  0.97539  0.16747  1.0000
  O   O5        1.0  0.81687  0.98124  0.13638  1.0000
  O   O6        1.0  0.79021  0.98104  0.11466  1.0000
  C   C61       1.0  0.97771  0.78547  0.34091  1.0000
  N   N14       1.0  0.98784  0.79395  0.26322  1.0000
  C   C62       1.0  0.81328  0.78581  0.33005  1.0000
  C   C63       1.0  0.79098  0.80662  0.34136  1.0000
  N   N15       1.0  0.79948  0.80506  0.26357  1.0000
  C   C64       1.0  0.81037  0.79524  0.25360  1.0000
  N   N16       1.0  0.81742  0.79390  0.16787  1.0000
  O   O7        1.0  0.82912  0.81144  0.13719  1.0000
  O   O8        1.0  0.80268  0.78480  0.11470  1.0000
  C   C65       1.0  0.20646  0.01528  0.33051  1.0000
  C   C66       1.0  0.18566  0.97215  0.34120  1.0000
  N   N17       1.0  0.18729  0.98227  0.26348  1.0000
  C   C67       1.0  0.19711  0.00299  0.25381  1.0000
  N   N18       1.0  0.19856  0.01144  0.16815  1.0000
  O   O9        1.0  0.18104  0.00560  0.13705  1.0000
  O   O10       1.0  0.20772  0.00585  0.11517  1.0000
  C   C68       1.0  0.97703  0.17899  0.33078  1.0000
  C   C69       1.0  0.98931  0.18193  0.25406  1.0000
  N   N19       1.0  0.98084  0.17490  0.16843  1.0000
  O   O11       1.0  0.98668  0.16322  0.13735  1.0000
  O   O12       1.0  0.98643  0.18965  0.11541  1.0000
  C   C70       1.0  0.22541  0.62589  0.32418  1.0000
  C   C71       1.0  0.22500  0.58855  0.33662  1.0000
  N   N20       1.0  0.21928  0.59439  0.26086  1.0000
  C   C72       1.0  0.21887  0.61211  0.25100  1.0000
  N   N21       1.0  0.21223  0.61638  0.16984  1.0000
  O   O13       1.0  0.22288  0.61618  0.10566  1.0000
  O   O14       1.0  0.19400  0.60304  0.15499  1.0000
  C   C73       1.0  0.36650  0.58727  0.31767  1.0000
  C   C74       1.0  0.40390  0.62417  0.32909  1.0000
  N   N22       1.0  0.39784  0.61269  0.25310  1.0000
  C   C75       1.0  0.38009  0.59458  0.24376  1.0000
  N   N23       1.0  0.37561  0.58368  0.16251  1.0000
  O   O15       1.0  0.37580  0.59457  0.09853  1.0000
  O   O16       1.0  0.38881  0.57863  0.14704  1.0000
  C   C76       1.0  0.40507  0.76710  0.32992  1.0000
  C   C77       1.0  0.36806  0.76739  0.34226  1.0000
  N   N24       1.0  0.37983  0.77351  0.26712  1.0000
  C   C78       1.0  0.39799  0.77401  0.25739  1.0000
  N   N25       1.0  0.40909  0.78109  0.17685  1.0000
  O   O17       1.0  0.39842  0.77074  0.11168  1.0000
  O   O18       1.0  0.41395  0.79938  0.16373  1.0000
  C   C79       1.0  0.77259  0.36090  0.32400  1.0000
  C   C80       1.0  0.77293  0.39821  0.33643  1.0000
  N   N26       1.0  0.77875  0.39243  0.26078  1.0000
  C   C81       1.0  0.77919  0.37473  0.25096  1.0000
  N   N27       1.0  0.78595  0.37051  0.17000  1.0000
  O   O19       1.0  0.77542  0.37078  0.10548  1.0000
  O   O20       1.0  0.80422  0.38385  0.15574  1.0000
  C   C82       1.0  0.63135  0.39946  0.32396  1.0000
  C   C83       1.0  0.59407  0.36246  0.33644  1.0000
  N   N28       1.0  0.59988  0.37402  0.26069  1.0000
  C   C84       1.0  0.61756  0.39217  0.25082  1.0000
  N   N29       1.0  0.62178  0.40308  0.16965  1.0000
  O   O21       1.0  0.62161  0.39224  0.10545  1.0000
  O   O22       1.0  0.60839  0.40790  0.15483  1.0000
  C   C85       1.0  0.59286  0.21972  0.32394  1.0000
  C   C86       1.0  0.62982  0.21937  0.33664  1.0000
  N   N30       1.0  0.61828  0.21365  0.26081  1.0000
  C   C87       1.0  0.60015  0.21321  0.25082  1.0000
  N   N31       1.0  0.58928  0.20656  0.16955  1.0000
  O   O23       1.0  0.60015  0.21725  0.10548  1.0000
  O   O24       1.0  0.58445  0.18834  0.15463  1.0000
  C   C88       1.0  0.17908  0.33230  0.39941  1.0000
  C   C89       1.0  0.18039  0.22953  0.38461  1.0000
  H   H34       1.0  0.19351  0.23501  0.42148  1.0000
  H   H35       1.0  0.19096  0.33963  0.44343  1.0000
  C   C90       1.0  0.74737  0.88353  0.33707  1.0000
  C   C91       1.0  0.72571  0.87235  0.33662  1.0000
  C   C92       1.0  0.71452  0.85073  0.33984  1.0000
  C   C93       1.0  0.72559  0.84018  0.34268  1.0000
  C   C94       1.0  0.74721  0.85062  0.34184  1.0000
  C   C95       1.0  0.75773  0.87225  0.33954  1.0000
  C   C96       1.0  0.69264  0.83982  0.33997  1.0000
  C   C97       1.0  0.68140  0.84468  0.27881  1.0000
  C   C98       1.0  0.65988  0.83391  0.27901  1.0000
  C   C99       1.0  0.64864  0.81794  0.34095  1.0000
  C   C100      1.0  0.65995  0.81329  0.40280  1.0000
  C   C101      1.0  0.68147  0.82386  0.40187  1.0000
  C   C102      1.0  0.75842  0.90549  0.33512  1.0000
  C   C103      1.0  0.75186  0.91709  0.38524  1.0000
  C   C104      1.0  0.76270  0.93861  0.38325  1.0000
  C   C105      1.0  0.78053  0.94956  0.33056  1.0000
  C   C106      1.0  0.78734  0.93800  0.28198  1.0000
  C   C107      1.0  0.77646  0.91649  0.28367  1.0000
  C   C108      1.0  0.75812  0.83965  0.34247  1.0000
  C   C109      1.0  0.77447  0.84474  0.28243  1.0000
  C   C110      1.0  0.78506  0.83381  0.28211  1.0000
  C   C111      1.0  0.78002  0.81754  0.34275  1.0000
  C   C112      1.0  0.76365  0.81249  0.40279  1.0000
  C   C113      1.0  0.75285  0.82323  0.40231  1.0000
  H   H36       1.0  0.75721  0.94624  0.42022  1.0000
  H   H37       1.0  0.73923  0.90997  0.42537  1.0000
  H   H38       1.0  0.80062  0.94511  0.24601  1.0000
  H   H39       1.0  0.78185  0.90891  0.24579  1.0000
  H   H40       1.0  0.77859  0.85626  0.23683  1.0000
  H   H41       1.0  0.79678  0.83813  0.23743  1.0000
  H   H42       1.0  0.74121  0.81908  0.44729  1.0000
  H   H43       1.0  0.75900  0.80056  0.44647  1.0000
  H   H44       1.0  0.68895  0.82003  0.44832  1.0000
  H   H45       1.0  0.65261  0.80186  0.44885  1.0000
  H   H46       1.0  0.65253  0.83827  0.23430  1.0000
  H   H47       1.0  0.68882  0.85601  0.23240  1.0000
  H   H48       1.0  0.71786  0.88012  0.33408  1.0000
  H   H49       1.0  0.77336  0.87995  0.34257  1.0000
  H   H50       1.0  0.71772  0.82454  0.34201  1.0000
  C   C114      1.0  0.17958  0.83498  0.28084  1.0000
  C   C115      1.0  0.17982  0.93893  0.40209  1.0000
  H   H51       1.0  0.19173  0.94620  0.44589  1.0000
  H   H52       1.0  0.19168  0.83971  0.23806  1.0000
  C   C116      1.0  0.85723  0.74184  0.33785  1.0000
  C   C117      1.0  0.84673  0.72018  0.33795  1.0000
  C   C118      1.0  0.85714  0.70896  0.33923  1.0000
  C   C119      1.0  0.87876  0.72001  0.34025  1.0000
  C   C120      1.0  0.88996  0.74163  0.34014  1.0000
  C   C121      1.0  0.87888  0.75218  0.33912  1.0000
  C   C122      1.0  0.84611  0.68709  0.33913  1.0000
  C   C123      1.0  0.82953  0.67596  0.39826  1.0000
  C   C124      1.0  0.81884  0.65444  0.39901  1.0000
  C   C125      1.0  0.82399  0.64309  0.33958  1.0000
  C   C126      1.0  0.84058  0.65429  0.28038  1.0000
  C   C127      1.0  0.85147  0.67582  0.28045  1.0000
  C   C128      1.0  0.84631  0.75289  0.33599  1.0000
  C   C129      1.0  0.82813  0.74631  0.38597  1.0000
  C   C130      1.0  0.81741  0.75711  0.38372  1.0000
  C   C131      1.0  0.82429  0.77494  0.33099  1.0000
  C   C132      1.0  0.84268  0.78177  0.28255  1.0000
  C   C133      1.0  0.85335  0.77093  0.28447  1.0000
  C   C134      1.0  0.91183  0.75253  0.34085  1.0000
  C   C135      1.0  0.92312  0.76890  0.28095  1.0000
  C   C136      1.0  0.94464  0.77952  0.28102  1.0000
  C   C137      1.0  0.95583  0.77449  0.34189  1.0000
  C   C138      1.0  0.94448  0.75808  0.40172  1.0000
  C   C139      1.0  0.92295  0.74726  0.40091  1.0000
  H   H53       1.0  0.80428  0.75161  0.42059  1.0000
  H   H54       1.0  0.82261  0.73367  0.42603  1.0000
  H   H55       1.0  0.84885  0.79505  0.24659  1.0000
  H   H56       1.0  0.86631  0.77633  0.24659  1.0000
  H   H57       1.0  0.91574  0.77304  0.23535  1.0000
  H   H58       1.0  0.95207  0.79128  0.23649  1.0000
  H   H59       1.0  0.91543  0.73562  0.44586  1.0000
  H   H60       1.0  0.95174  0.75345  0.44563  1.0000
  H   H61       1.0  0.86326  0.68321  0.23609  1.0000
  H   H62       1.0  0.84532  0.64692  0.23762  1.0000
  H   H63       1.0  0.80696  0.64712  0.44301  1.0000
  H   H64       1.0  0.82532  0.68346  0.44290  1.0000
  H   H65       1.0  0.83112  0.71233  0.33382  1.0000
  H   H66       1.0  0.88682  0.76780  0.34227  1.0000
  H   H67       1.0  0.88653  0.71213  0.34101  1.0000
  C   C140      1.0  0.25043  0.10318  0.33880  1.0000
  C   C141      1.0  0.27209  0.11433  0.33892  1.0000
  C   C142      1.0  0.28332  0.13596  0.34000  1.0000
  C   C143      1.0  0.27228  0.14655  0.34090  1.0000
  C   C144      1.0  0.25067  0.13614  0.34082  1.0000
  C   C145      1.0  0.24010  0.11451  0.33995  1.0000
  C   C146      1.0  0.30519  0.14679  0.33980  1.0000
  C   C147      1.0  0.31632  0.14136  0.39900  1.0000
  C   C148      1.0  0.33785  0.15218  0.39961  1.0000
  C   C149      1.0  0.34919  0.16864  0.34003  1.0000
  C   C150      1.0  0.33798  0.17401  0.28075  1.0000
  C   C151      1.0  0.31645  0.16338  0.28093  1.0000
  C   C152      1.0  0.23936  0.08121  0.33694  1.0000
  C   C153      1.0  0.24591  0.06960  0.38701  1.0000
  C   C154      1.0  0.23511  0.04808  0.38465  1.0000
  C   C155      1.0  0.21731  0.03715  0.33170  1.0000
  C   C156      1.0  0.21050  0.04872  0.28327  1.0000
  C   C157      1.0  0.22135  0.07023  0.28527  1.0000
  C   C158      1.0  0.23978  0.14713  0.34140  1.0000
  C   C159      1.0  0.22340  0.14203  0.28152  1.0000
  C   C160      1.0  0.21279  0.15293  0.28146  1.0000
  C   C161      1.0  0.21783  0.16918  0.34222  1.0000
  C   C162      1.0  0.23424  0.17424  0.40207  1.0000
  C   C163      1.0  0.24506  0.16353  0.40133  1.0000
  H   H68       1.0  0.24059  0.04044  0.42154  1.0000
  H   H69       1.0  0.25854  0.07671  0.42717  1.0000
  H   H70       1.0  0.19725  0.04163  0.24709  1.0000
  H   H71       1.0  0.21598  0.07781  0.24731  1.0000
  H   H72       1.0  0.21925  0.13048  0.23599  1.0000
  H   H73       1.0  0.20103  0.14859  0.23695  1.0000
  H   H74       1.0  0.25671  0.16768  0.44625  1.0000
  H   H75       1.0  0.23889  0.18616  0.44584  1.0000
  H   H76       1.0  0.30905  0.16776  0.23649  1.0000
  H   H77       1.0  0.34534  0.18609  0.23786  1.0000
  H   H78       1.0  0.34517  0.14764  0.44372  1.0000
  H   H79       1.0  0.30882  0.12967  0.44377  1.0000
  H   H80       1.0  0.27992  0.10655  0.33481  1.0000
  H   H81       1.0  0.22448  0.10684  0.34308  1.0000
  H   H82       1.0  0.28017  0.16220  0.34152  1.0000
  C   C164      1.0  0.88912  0.13503  0.33946  1.0000
  C   C165      1.0  0.87797  0.14553  0.33960  1.0000
  C   C166      1.0  0.85634  0.13512  0.34078  1.0000
  C   C167      1.0  0.84576  0.11349  0.34176  1.0000
  C   C168      1.0  0.85619  0.10230  0.34163  1.0000
  C   C169      1.0  0.87781  0.11338  0.34067  1.0000
  C   C170      1.0  0.84549  0.14615  0.34053  1.0000
  C   C171      1.0  0.85093  0.16273  0.39959  1.0000
  C   C172      1.0  0.84013  0.17345  0.40008  1.0000
  C   C173      1.0  0.82364  0.16829  0.34055  1.0000
  C   C174      1.0  0.81827  0.15169  0.28143  1.0000
  C   C175      1.0  0.82888  0.14079  0.28173  1.0000
  C   C176      1.0  0.91109  0.14594  0.33747  1.0000
  C   C177      1.0  0.92271  0.16411  0.38745  1.0000
  C   C178      1.0  0.94424  0.17484  0.38499  1.0000
  C   C179      1.0  0.95516  0.16797  0.33205  1.0000
  C   C180      1.0  0.94358  0.14957  0.28369  1.0000
  C   C181      1.0  0.92207  0.13891  0.28576  1.0000
  C   C182      1.0  0.84521  0.08042  0.34211  1.0000
  C   C183      1.0  0.85030  0.06918  0.28203  1.0000
  C   C184      1.0  0.83940  0.04766  0.28176  1.0000
  C   C185      1.0  0.82316  0.03642  0.34251  1.0000
  C   C186      1.0  0.81810  0.04774  0.40257  1.0000
  C   C187      1.0  0.82881  0.06926  0.40205  1.0000
  H   H83       1.0  0.95188  0.18797  0.42184  1.0000
  H   H84       1.0  0.91560  0.16963  0.42762  1.0000
  H   H85       1.0  0.95067  0.14342  0.24752  1.0000
  H   H86       1.0  0.91449  0.12595  0.24788  1.0000
  H   H87       1.0  0.86184  0.07659  0.23648  1.0000
  H   H88       1.0  0.84374  0.04026  0.23711  1.0000
  H   H89       1.0  0.82468  0.07675  0.44710  1.0000
  H   H90       1.0  0.80620  0.04044  0.44640  1.0000
  H   H91       1.0  0.82450  0.12899  0.23740  1.0000
  H   H92       1.0  0.80617  0.14695  0.23862  1.0000
  H   H93       1.0  0.84468  0.18533  0.44406  1.0000
  H   H94       1.0  0.86264  0.16696  0.44426  1.0000
  H   H95       1.0  0.88574  0.16114  0.33542  1.0000
  H   H96       1.0  0.88549  0.10543  0.34375  1.0000
  H   H97       1.0  0.83011  0.10572  0.34242  1.0000
  C   C188      1.0  0.24911  0.52882  0.33529  1.0000
  C   C189      1.0  0.23885  0.50738  0.34479  1.0000
  C   C190      1.0  0.24964  0.49646  0.34414  1.0000
  C   C191      1.0  0.27128  0.50787  0.33649  1.0000
  C   C192      1.0  0.28188  0.52936  0.32709  1.0000
  C   C193      1.0  0.27055  0.53957  0.32688  1.0000
  C   C194      1.0  0.23894  0.47453  0.34807  1.0000
  C   C195      1.0  0.22056  0.46266  0.29983  1.0000
  C   C196      1.0  0.21018  0.44116  0.30220  1.0000
  C   C197      1.0  0.21765  0.43049  0.35324  1.0000
  C   C198      1.0  0.23621  0.44232  0.40023  1.0000
  C   C199      1.0  0.24656  0.46383  0.39805  1.0000
  C   C200      1.0  0.23872  0.54007  0.33242  1.0000
  C   C201      1.0  0.23150  0.54441  0.41189  1.0000
  C   C202      1.0  0.22599  0.55968  0.41293  1.0000
  C   C203      1.0  0.22750  0.57103  0.33481  1.0000
  C   C204      1.0  0.23370  0.56572  0.25442  1.0000
  C   C205      1.0  0.23943  0.55067  0.25337  1.0000
  C   C206      1.0  0.30348  0.54109  0.31768  1.0000
  C   C207      1.0  0.31210  0.55474  0.24485  1.0000
  C   C208      1.0  0.33304  0.56926  0.24301  1.0000
  C   C209      1.0  0.34612  0.57058  0.31370  1.0000
  C   C210      1.0  0.33754  0.55662  0.38569  1.0000
  C   C211      1.0  0.31655  0.54192  0.38730  1.0000
  H   H98       1.0  0.22158  0.56294  0.47253  1.0000
  H   H99       1.0  0.23159  0.53755  0.47087  1.0000
  H   H100      1.0  0.23565  0.57383  0.19679  1.0000
  H   H101      1.0  0.24531  0.54838  0.19556  1.0000
  H   H102      1.0  0.30297  0.55501  0.19478  1.0000
  H   H103      1.0  0.33828  0.57980  0.19244  1.0000
  H   H104      1.0  0.31066  0.53281  0.44260  1.0000
  H   H105      1.0  0.34640  0.55749  0.43922  1.0000
  H   H106      1.0  0.25977  0.47164  0.43418  1.0000
  H   H107      1.0  0.24277  0.43541  0.43489  1.0000
  H   H108      1.0  0.19691  0.43333  0.26640  1.0000
  H   H109      1.0  0.21466  0.46956  0.26056  1.0000
  H   H110      1.0  0.22328  0.49968  0.35142  1.0000
  H   H111      1.0  0.27808  0.55520  0.32149  1.0000
  H   H112      1.0  0.27946  0.50043  0.33336  1.0000
  C   C212      1.0  0.46349  0.70804  0.33178  1.0000
  C   C213      1.0  0.48495  0.71916  0.34116  1.0000
  C   C214      1.0  0.49584  0.74085  0.34553  1.0000
  C   C215      1.0  0.48440  0.75110  0.34233  1.0000
  C   C216      1.0  0.46294  0.74030  0.33203  1.0000
  C   C217      1.0  0.45274  0.71879  0.32738  1.0000
  C   C218      1.0  0.51776  0.75206  0.35007  1.0000
  C   C219      1.0  0.52872  0.74520  0.40299  1.0000
  C   C220      1.0  0.55023  0.75591  0.40522  1.0000
  C   C221      1.0  0.56181  0.77411  0.35555  1.0000
  C   C222      1.0  0.55089  0.78084  0.30176  1.0000
  C   C223      1.0  0.52937  0.77010  0.29928  1.0000
  C   C224      1.0  0.45222  0.68641  0.32637  1.0000
  C   C225      1.0  0.44852  0.67444  0.40416  1.0000
  C   C226      1.0  0.43329  0.65364  0.40447  1.0000
  C   C227      1.0  0.42137  0.64421  0.32718  1.0000
  C   C228      1.0  0.42602  0.65610  0.24814  1.0000
  C   C229      1.0  0.44101  0.67691  0.24799  1.0000
  C   C230      1.0  0.45123  0.75025  0.32554  1.0000
  C   C231      1.0  0.43799  0.74610  0.25179  1.0000
  C   C232      1.0  0.42350  0.75256  0.25159  1.0000
  C   C233      1.0  0.42180  0.76348  0.32491  1.0000
  C   C234      1.0  0.43537  0.76799  0.39790  1.0000
  C   C235      1.0  0.45004  0.76167  0.39790  1.0000
  H   H113      1.0  0.43045  0.64567  0.46310  1.0000
  H   H114      1.0  0.45581  0.68109  0.46288  1.0000
  H   H115      1.0  0.41745  0.65019  0.19139  1.0000
  H   H116      1.0  0.44283  0.68537  0.19159  1.0000
  H   H117      1.0  0.43801  0.73732  0.19956  1.0000
  H   H118      1.0  0.41321  0.74782  0.20008  1.0000
  H   H119      1.0  0.45884  0.76421  0.45379  1.0000
  H   H120      1.0  0.43419  0.77533  0.45325  1.0000
  H   H121      1.0  0.52228  0.77542  0.25789  1.0000
  H   H122      1.0  0.55853  0.79381  0.26390  1.0000
  H   H123      1.0  0.55733  0.74986  0.44204  1.0000
  H   H124      1.0  0.52111  0.73228  0.44106  1.0000
  H   H125      1.0  0.49271  0.71128  0.34126  1.0000
  H   H126      1.0  0.43712  0.71075  0.32177  1.0000
  H   H127      1.0  0.49177  0.76671  0.34625  1.0000
  C   C236      1.0  0.28423  0.74325  0.33828  1.0000
  C   C237      1.0  0.27302  0.75351  0.34695  1.0000
  C   C238      1.0  0.25132  0.74271  0.34592  1.0000
  C   C239      1.0  0.24111  0.72107  0.33864  1.0000
  C   C240      1.0  0.25202  0.71048  0.33013  1.0000
  C   C241      1.0  0.27356  0.72181  0.33020  1.0000
  C   C242      1.0  0.24007  0.75340  0.34939  1.0000
  C   C243      1.0  0.24661  0.77177  0.30099  1.0000
  C   C244      1.0  0.23548  0.78214  0.30304  1.0000
  C   C245      1.0  0.21732  0.77468  0.35391  1.0000
  C   C246      1.0  0.21056  0.75613  0.40094  1.0000
  C   C247      1.0  0.22173  0.74579  0.39914  1.0000
  C   C248      1.0  0.30586  0.75365  0.33620  1.0000
  C   C249      1.0  0.31722  0.76054  0.41633  1.0000
  C   C250      1.0  0.33799  0.76603  0.41805  1.0000
  C   C251      1.0  0.34802  0.76483  0.33997  1.0000
  C   C252      1.0  0.33672  0.75896  0.25899  1.0000
  C   C253      1.0  0.31594  0.75323  0.25727  1.0000
  C   C254      1.0  0.24216  0.68886  0.32160  1.0000
  C   C255      1.0  0.24710  0.68011  0.24903  1.0000
  C   C256      1.0  0.24068  0.65917  0.24799  1.0000
  C   C257      1.0  0.22908  0.64626  0.31942  1.0000
  C   C258      1.0  0.22383  0.65498  0.39124  1.0000
  C   C259      1.0  0.23006  0.67596  0.39190  1.0000
  H   H128      1.0  0.34550  0.77017  0.47809  1.0000
  H   H129      1.0  0.31012  0.76017  0.47526  1.0000
  H   H130      1.0  0.34303  0.75724  0.20132  1.0000
  H   H131      1.0  0.30791  0.74756  0.19897  1.0000
  H   H132      1.0  0.25635  0.68913  0.19838  1.0000
  H   H133      1.0  0.24586  0.65381  0.19743  1.0000
  H   H134      1.0  0.22699  0.68197  0.44721  1.0000
  H   H135      1.0  0.21599  0.64624  0.44530  1.0000
  H   H136      1.0  0.21632  0.73260  0.43542  1.0000
  H   H137      1.0  0.19709  0.74959  0.43555  1.0000
  H   H138      1.0  0.24094  0.79541  0.26720  1.0000
  H   H139      1.0  0.25944  0.77766  0.26187  1.0000
  H   H140      1.0  0.28088  0.76909  0.35343  1.0000
  H   H141      1.0  0.28167  0.71428  0.32536  1.0000
  H   H142      1.0  0.22549  0.71287  0.33554  1.0000
  C   C260      1.0  0.74875  0.45788  0.33586  1.0000
  C   C261      1.0  0.75904  0.47934  0.34511  1.0000
  C   C262      1.0  0.74826  0.49027  0.34509  1.0000
  C   C263      1.0  0.72661  0.47886  0.33835  1.0000
  C   C264      1.0  0.71598  0.45736  0.32940  1.0000
  C   C265      1.0  0.72729  0.44714  0.32840  1.0000
  C   C266      1.0  0.75898  0.51221  0.34882  1.0000
  C   C267      1.0  0.77730  0.52405  0.30013  1.0000
  C   C268      1.0  0.78768  0.54555  0.30228  1.0000
  C   C269      1.0  0.78028  0.55625  0.35354  1.0000
  C   C270      1.0  0.76177  0.54445  0.40089  1.0000
  C   C271      1.0  0.75143  0.52293  0.39899  1.0000
  C   C272      1.0  0.75912  0.44662  0.33252  1.0000
  C   C273      1.0  0.76650  0.44237  0.41176  1.0000
  C   C274      1.0  0.77202  0.42711  0.41267  1.0000
  C   C275      1.0  0.77039  0.41570  0.33462  1.0000
  C   C276      1.0  0.76408  0.42094  0.25437  1.0000
  C   C277      1.0  0.75830  0.43596  0.25352  1.0000
  C   C278      1.0  0.69436  0.44565  0.32108  1.0000
  C   C279      1.0  0.68553  0.43205  0.24824  1.0000
  C   C280      1.0  0.66459  0.41752  0.24745  1.0000
  C   C281      1.0  0.65172  0.41615  0.31914  1.0000
  C   C282      1.0  0.66051  0.43007  0.39114  1.0000
  C   C283      1.0  0.68150  0.44477  0.39177  1.0000
  H   H143      1.0  0.77648  0.42387  0.47219  1.0000
  H   H144      1.0  0.76645  0.44923  0.47081  1.0000
  H   H145      1.0  0.76204  0.41277  0.19686  1.0000
  H   H146      1.0  0.75232  0.43819  0.19589  1.0000
  H   H147      1.0  0.69451  0.43183  0.19741  1.0000
  H   H148      1.0  0.65920  0.40703  0.19669  1.0000
  H   H149      1.0  0.68756  0.45381  0.44718  1.0000
  H   H150      1.0  0.65182  0.42913  0.44545  1.0000
  H   H151      1.0  0.73827  0.51515  0.43548  1.0000
  H   H152      1.0  0.75526  0.55137  0.43577  1.0000
  H   H153      1.0  0.80091  0.55335  0.26621  1.0000
  H   H154      1.0  0.78315  0.51712  0.26068  1.0000
  H   H155      1.0  0.77462  0.48703  0.35112  1.0000
  H   H156      1.0  0.71974  0.43151  0.32318  1.0000
  H   H157      1.0  0.71842  0.48630  0.33588  1.0000
  C   C284      1.0  0.53439  0.27861  0.33581  1.0000
  C   C285      1.0  0.51293  0.26745  0.34507  1.0000
  C   C286      1.0  0.50199  0.24574  0.34504  1.0000
  C   C287      1.0  0.51340  0.23549  0.33826  1.0000
  C   C288      1.0  0.53489  0.24635  0.32929  1.0000
  C   C289      1.0  0.54512  0.26789  0.32831  1.0000
  C   C290      1.0  0.48006  0.23453  0.34886  1.0000
  C   C291      1.0  0.46822  0.24100  0.30017  1.0000
  C   C292      1.0  0.44671  0.22987  0.30237  1.0000
  C   C293      1.0  0.43602  0.21179  0.35375  1.0000
  C   C294      1.0  0.44783  0.20510  0.40112  1.0000
  C   C295      1.0  0.46935  0.21626  0.39913  1.0000
  C   C296      1.0  0.54566  0.30025  0.33254  1.0000
  C   C297      1.0  0.54992  0.31184  0.41186  1.0000
  C   C298      1.0  0.56520  0.33262  0.41278  1.0000
  C   C299      1.0  0.57658  0.34241  0.33469  1.0000
  C   C300      1.0  0.57132  0.33087  0.25441  1.0000
  C   C301      1.0  0.55628  0.31008  0.25347  1.0000
  C   C302      1.0  0.54660  0.23644  0.32097  1.0000
  C   C303      1.0  0.56021  0.24122  0.24815  1.0000
  C   C304      1.0  0.57472  0.23479  0.24725  1.0000
  C   C305      1.0  0.57613  0.22335  0.31909  1.0000
  C   C306      1.0  0.56223  0.21823  0.39113  1.0000
  C   C307      1.0  0.54752  0.22450  0.39174  1.0000
  H   H158      1.0  0.56843  0.34032  0.47229  1.0000
  H   H159      1.0  0.54307  0.30492  0.47089  1.0000
  H   H160      1.0  0.57948  0.33701  0.19687  1.0000
  H   H161      1.0  0.55406  0.30187  0.19585  1.0000
  H   H162      1.0  0.56039  0.25039  0.19721  1.0000
  H   H163      1.0  0.58524  0.23993  0.19658  1.0000
  H   H164      1.0  0.53846  0.22150  0.44710  1.0000
  H   H165      1.0  0.56318  0.21048  0.44546  1.0000
  H   H166      1.0  0.47713  0.21089  0.43561  1.0000
  H   H167      1.0  0.44092  0.19167  0.43603  1.0000
  H   H168      1.0  0.43890  0.23529  0.26626  1.0000
  H   H169      1.0  0.47513  0.25375  0.26060  1.0000
  H   H170      1.0  0.50524  0.27534  0.35110  1.0000
  H   H171      1.0  0.56075  0.27596  0.32310  1.0000
  H   H172      1.0  0.50595  0.21986  0.33580  1.0000
  C   C308      1.0  0.71365  0.24349  0.33586  1.0000
  C   C309      1.0  0.72483  0.23322  0.34508  1.0000
  C   C310      1.0  0.74655  0.24401  0.34490  1.0000
  C   C311      1.0  0.75677  0.26566  0.33801  1.0000
  C   C312      1.0  0.74588  0.27627  0.32908  1.0000
  C   C313      1.0  0.72434  0.26494  0.32826  1.0000
  C   C314      1.0  0.75778  0.23331  0.34871  1.0000
  C   C315      1.0  0.75129  0.21497  0.30017  1.0000
  C   C316      1.0  0.76243  0.20460  0.30245  1.0000
  C   C317      1.0  0.78052  0.21202  0.35376  1.0000
  C   C318      1.0  0.78722  0.23054  0.40097  1.0000
  C   C319      1.0  0.77605  0.24089  0.39891  1.0000
  C   C320      1.0  0.69201  0.23309  0.33279  1.0000
  C   C321      1.0  0.68043  0.22585  0.41217  1.0000
  C   C322      1.0  0.65965  0.22033  0.41307  1.0000
  C   C323      1.0  0.64985  0.22188  0.33492  1.0000
  C   C324      1.0  0.66137  0.22809  0.25458  1.0000
  C   C325      1.0  0.68217  0.23384  0.25368  1.0000
  C   C326      1.0  0.75576  0.29789  0.32082  1.0000
  C   C327      1.0  0.75092  0.30673  0.24822  1.0000
  C   C328      1.0  0.75735  0.32767  0.24745  1.0000
  C   C329      1.0  0.76889  0.34053  0.31911  1.0000
  C   C330      1.0  0.77403  0.33173  0.39099  1.0000
  C   C331      1.0  0.76777  0.31074  0.39144  1.0000
  H   H173      1.0  0.65195  0.21590  0.47261  1.0000
  H   H174      1.0  0.68735  0.22590  0.47118  1.0000
  H   H175      1.0  0.65526  0.23014  0.19703  1.0000
  H   H176      1.0  0.69036  0.23980  0.19601  1.0000
  H   H177      1.0  0.74172  0.29775  0.19732  1.0000
  H   H178      1.0  0.75226  0.33309  0.19674  1.0000
  H   H179      1.0  0.77081  0.30469  0.44672  1.0000
  H   H180      1.0  0.78185  0.34043  0.44519  1.0000
  H   H181      1.0  0.78143  0.25406  0.43529  1.0000
  H   H182      1.0  0.80065  0.23707  0.43585  1.0000
  H   H183      1.0  0.75700  0.19135  0.26648  1.0000
  H   H184      1.0  0.73853  0.20912  0.26068  1.0000
  H   H185      1.0  0.71696  0.21764  0.35122  1.0000
  H   H186      1.0  0.71625  0.27248  0.32313  1.0000
  H   H187      1.0  0.77239  0.27386  0.33548  1.0000
  C   C332      1.0  0.20700  0.40863  0.35367  1.0000
  C   C333      1.0  0.18494  0.36552  0.34162  1.0000
  N   N32       1.0  0.19367  0.37553  0.41926  1.0000
  C   C334      1.0  0.20448  0.39624  0.42952  1.0000
  N   N33       1.0  0.21179  0.40462  0.51502  1.0000
  O   O25       1.0  0.22371  0.39889  0.54413  1.0000
  O   O26       1.0  0.19723  0.39882  0.56929  1.0000
  C   C335      1.0  0.58367  0.78501  0.35580  1.0000
  C   C336      1.0  0.62676  0.80704  0.34303  1.0000
  N   N34       1.0  0.61681  0.79904  0.42159  1.0000
  C   C337      1.0  0.59611  0.78830  0.43227  1.0000
  N   N35       1.0  0.58781  0.78178  0.51853  1.0000
  O   O27       1.0  0.59362  0.77020  0.55098  1.0000
  O   O28       1.0  0.59360  0.79684  0.56993  1.0000
  C   C338      1.0  0.20612  0.78534  0.35417  1.0000
  C   C339      1.0  0.18507  0.80739  0.34186  1.0000
  N   N36       1.0  0.18635  0.79867  0.41956  1.0000
  C   C340      1.0  0.19624  0.78787  0.42995  1.0000
  N   N37       1.0  0.19729  0.78057  0.51551  1.0000
  O   O29       1.0  0.17964  0.76866  0.54458  1.0000
  O   O30       1.0  0.20604  0.79514  0.56974  1.0000
  C   C341      1.0  0.79095  0.57812  0.35382  1.0000
  C   C342      1.0  0.81300  0.62122  0.34146  1.0000
  N   N38       1.0  0.80431  0.61123  0.41920  1.0000
  C   C343      1.0  0.79350  0.59052  0.42961  1.0000
  N   N39       1.0  0.78625  0.58219  0.51522  1.0000
  O   O31       1.0  0.77434  0.58793  0.54443  1.0000
  O   O32       1.0  0.80083  0.58801  0.56933  1.0000
  C   C344      1.0  0.41416  0.20058  0.35407  1.0000
  C   C345      1.0  0.37106  0.17952  0.34183  1.0000
  N   N40       1.0  0.38106  0.18086  0.41958  1.0000
  C   C346      1.0  0.40176  0.19077  0.42993  1.0000
  N   N41       1.0  0.41012  0.19188  0.51554  1.0000
  O   O33       1.0  0.40438  0.17425  0.54487  1.0000
  O   O34       1.0  0.40431  0.20067  0.56958  1.0000
  C   C347      1.0  0.79172  0.20135  0.35422  1.0000
  C   C348      1.0  0.81277  0.17929  0.34223  1.0000
  N   N42       1.0  0.81146  0.18800  0.41988  1.0000
  C   C349      1.0  0.80156  0.19881  0.43011  1.0000
  N   N43       1.0  0.80047  0.20610  0.51564  1.0000
  O   O35       1.0  0.81811  0.21801  0.54486  1.0000
  O   O36       1.0  0.79169  0.19153  0.56983  1.0000
  N   N44       1.0  0.19315  0.19941  0.40823  1.0000
  C   C350      1.0  0.20404  0.18966  0.41671  1.0000
  H   H188      1.0  0.20953  0.18904  0.47839  1.0000
  N   N45       1.0  0.79288  0.98146  0.40770  1.0000
  C   C351      1.0  0.80263  0.00209  0.41651  1.0000
  H   H189      1.0  0.80327  0.00815  0.47833  1.0000
  C   C352      1.0  0.99010  0.78827  0.41648  1.0000
  H   H190      1.0  0.98398  0.78280  0.47817  1.0000
  N   N46       1.0  0.80464  0.78720  0.40787  1.0000
  C   C353      1.0  0.79376  0.79695  0.41665  1.0000
  H   H191      1.0  0.78826  0.79751  0.47839  1.0000
  N   N47       1.0  0.20499  0.00519  0.40825  1.0000
  C   C354      1.0  0.19525  0.98455  0.41673  1.0000
  H   H192      1.0  0.19462  0.97845  0.47842  1.0000
  N   N48       1.0  0.98713  0.18763  0.40849  1.0000
  N   N49       1.0  0.23096  0.62007  0.40048  1.0000
  C   C355      1.0  0.23057  0.60203  0.41033  1.0000
  H   H193      1.0  0.23599  0.59944  0.46856  1.0000
  N   N50       1.0  0.37257  0.59858  0.39414  1.0000
  C   C356      1.0  0.39063  0.61621  0.40347  1.0000
  H   H194      1.0  0.39347  0.62416  0.46202  1.0000
  N   N51       1.0  0.39349  0.76117  0.40564  1.0000
  C   C357      1.0  0.37579  0.76145  0.41541  1.0000
  H   H195      1.0  0.36764  0.75579  0.47317  1.0000
  N   N52       1.0  0.76694  0.36668  0.40016  1.0000
  C   C358      1.0  0.76732  0.38470  0.41008  1.0000
  H   H196      1.0  0.76180  0.38725  0.46811  1.0000
  N   N53       1.0  0.62556  0.38807  0.40023  1.0000
  C   C359      1.0  0.60755  0.37040  0.41013  1.0000
  H   H197      1.0  0.60499  0.36239  0.46835  1.0000
  N   N54       1.0  0.60420  0.22525  0.40034  1.0000
  C   C360      1.0  0.62187  0.22492  0.41028  1.0000
  H   H198      1.0  0.62983  0.23026  0.46867  1.0000
