data_image0
_chemical_formula_structural       C4NC2HNHNC2HNHNC2HNHC5H3C2O3C5H3C2O3CNC2OHNHCNC2OHNHCNC2OHNHC4NC2HNHNC2HNHNC2HNHC5H3C2O3C5H3C2O3CNC2OHNHCNC2OHNHCNC2OHNHC4NC2HNHNC2HNHNC2HNHC5H3C2O3C5H3C2O3CNC2OHNHCNC2OHNHCNC2OHNHC4NC2HNHNC2HNHNC2HNHC5H3C2O3C5H3C2O3CNC2OHNHCNC2OHNHCNC2OHNH
_chemical_formula_sum              "C132 N48 H72 O36"
_cell_length_a       43.596
_cell_length_b       43.596
_cell_length_c       15.0498
_cell_angle_alpha    90
_cell_angle_beta     90
_cell_angle_gamma    120

_space_group_name_H-M_alt    "P 1"
_space_group_IT_number       1

loop_
  _space_group_symop_operation_xyz
  'x, y, z'

loop_
  _atom_site_type_symbol
  _atom_site_label
  _atom_site_symmetry_multiplicity
  _atom_site_fract_x
  _atom_site_fract_y
  _atom_site_fract_z
  _atom_site_occupancy
  C   C1        1.0  0.18958  0.31979  0.24620  1.0000
  C   C2        1.0  0.21498  0.30874  0.25917  1.0000
  C   C3        1.0  0.30526  0.17668  0.42419  1.0000
  C   C4        1.0  0.27956  0.18752  0.41405  1.0000
  N   N1        1.0  0.23823  0.21471  0.33226  1.0000
  C   C5        1.0  0.21822  0.22591  0.29002  1.0000
  C   C6        1.0  0.22739  0.26172  0.29751  1.0000
  H   H1        1.0  0.19719  0.20840  0.25237  1.0000
  N   N2        1.0  0.20759  0.27435  0.25897  1.0000
  H   H2        1.0  0.18596  0.25688  0.22978  1.0000
  N   N3        1.0  0.28118  0.02269  0.33233  1.0000
  C   C7        1.0  0.26996  0.49146  0.29008  1.0000
  C   C8        1.0  0.23414  0.46484  0.29757  1.0000
  H   H3        1.0  0.28745  0.48795  0.25234  1.0000
  N   N4        1.0  0.22151  0.43241  0.25905  1.0000
  H   H4        1.0  0.23897  0.42824  0.22984  1.0000
  N   N5        1.0  0.47317  0.25765  0.33204  1.0000
  C   C9        1.0  0.00439  0.27766  0.28977  1.0000
  C   C10       1.0  0.03101  0.26846  0.29721  1.0000
  H   H5        1.0  0.00789  0.29866  0.25203  1.0000
  N   N6        1.0  0.06344  0.28826  0.25867  1.0000
  H   H6        1.0  0.06762  0.30990  0.22951  1.0000
  C   C11       1.0  0.17607  0.36896  0.24632  1.0000
  C   C12       1.0  0.13956  0.34319  0.24527  1.0000
  C   C13       1.0  0.12689  0.30628  0.24607  1.0000
  C   C14       1.0  0.15267  0.29555  0.24519  1.0000
  C   C15       1.0  0.20032  0.35630  0.24527  1.0000
  H   H7        1.0  0.14408  0.26918  0.25030  1.0000
  H   H8        1.0  0.22668  0.37407  0.25071  1.0000
  H   H9        1.0  0.12179  0.35178  0.25044  1.0000
  C   C16       1.0  0.18712  0.40540  0.25931  1.0000
  C   C17       1.0  0.09044  0.28087  0.25889  1.0000
  O   O1        1.0  0.24898  0.33416  0.27592  1.0000
  O   O2        1.0  0.16170  0.41398  0.27606  1.0000
  O   O3        1.0  0.08185  0.24686  0.27555  1.0000
  C   C18       1.0  0.31921  0.12776  0.42411  1.0000
  C   C19       1.0  0.35565  0.15373  0.42459  1.0000
  C   C20       1.0  0.36813  0.19062  0.42413  1.0000
  C   C21       1.0  0.34215  0.20109  0.42455  1.0000
  C   C22       1.0  0.29480  0.14024  0.42462  1.0000
  H   H10       1.0  0.35063  0.22743  0.41948  1.0000
  H   H11       1.0  0.26845  0.12237  0.41960  1.0000
  H   H12       1.0  0.37352  0.14526  0.41949  1.0000
  C   C23       1.0  0.30837  0.09122  0.41407  1.0000
  C   C24       1.0  0.40467  0.21633  0.41391  1.0000
  O   O4        1.0  0.24554  0.16205  0.39785  1.0000
  O   O5        1.0  0.33384  0.08267  0.39788  1.0000
  O   O6        1.0  0.41321  0.25034  0.39767  1.0000
  C   C25       1.0  0.26673  0.23531  0.38476  1.0000
  N   N7        1.0  0.25556  0.28218  0.35064  1.0000
  C   C26       1.0  0.27572  0.27136  0.39474  1.0000
  C   C27       1.0  0.30323  0.29561  0.44768  1.0000
  O   O7        1.0  0.31161  0.32689  0.44445  1.0000
  H   H13       1.0  0.30536  0.28742  0.50758  1.0000
  N   N8        1.0  0.28666  0.22179  0.41856  1.0000
  H   H14       1.0  0.30865  0.23860  0.44698  1.0000
  C   C28       1.0  0.26060  0.03059  0.38490  1.0000
  N   N9        1.0  0.21369  0.47254  0.35077  1.0000
  C   C29       1.0  0.22455  0.00353  0.39488  1.0000
  C   C30       1.0  0.20024  0.00664  0.44774  1.0000
  O   O8        1.0  0.16885  0.98410  0.44489  1.0000
  H   H15       1.0  0.20851  0.01740  0.50733  1.0000
  N   N10       1.0  0.27410  0.06404  0.41860  1.0000
  H   H16       1.0  0.25728  0.06922  0.44696  1.0000
  C   C31       1.0  0.46528  0.22916  0.38456  1.0000
  N   N11       1.0  0.02333  0.24032  0.35040  1.0000
  C   C32       1.0  0.49235  0.22019  0.39454  1.0000
  C   C33       1.0  0.48925  0.19278  0.44743  1.0000
  O   O9        1.0  0.51179  0.18392  0.44453  1.0000
  H   H17       1.0  0.47852  0.19031  0.50704  1.0000
  N   N12       1.0  0.43184  0.20923  0.41841  1.0000
  H   H18       1.0  0.42668  0.18725  0.44682  1.0000
  C   C34       1.0  0.18958  0.81979  0.24620  1.0000
  C   C35       1.0  0.21498  0.80874  0.25917  1.0000
  C   C36       1.0  0.30526  0.67668  0.42419  1.0000
  C   C37       1.0  0.27956  0.68751  0.41405  1.0000
  N   N13       1.0  0.23823  0.71471  0.33226  1.0000
  C   C38       1.0  0.21822  0.72591  0.29002  1.0000
  C   C39       1.0  0.22739  0.76172  0.29751  1.0000
  H   H19       1.0  0.19719  0.70840  0.25237  1.0000
  N   N14       1.0  0.20759  0.77435  0.25897  1.0000
  H   H20       1.0  0.18596  0.75689  0.22978  1.0000
  N   N15       1.0  0.28118  0.52269  0.33233  1.0000
  C   C40       1.0  0.26996  0.99146  0.29008  1.0000
  C   C41       1.0  0.23414  0.96484  0.29757  1.0000
  H   H21       1.0  0.28745  0.98795  0.25234  1.0000
  N   N16       1.0  0.22151  0.93241  0.25905  1.0000
  H   H22       1.0  0.23897  0.92824  0.22984  1.0000
  N   N17       1.0  0.47317  0.75765  0.33204  1.0000
  C   C42       1.0  0.00439  0.77766  0.28977  1.0000
  C   C43       1.0  0.03101  0.76846  0.29721  1.0000
  H   H23       1.0  0.00789  0.79866  0.25203  1.0000
  N   N18       1.0  0.06344  0.78826  0.25867  1.0000
  H   H24       1.0  0.06762  0.80990  0.22951  1.0000
  C   C44       1.0  0.17607  0.86896  0.24632  1.0000
  C   C45       1.0  0.13956  0.84319  0.24527  1.0000
  C   C46       1.0  0.12689  0.80628  0.24607  1.0000
  C   C47       1.0  0.15267  0.79555  0.24519  1.0000
  C   C48       1.0  0.20032  0.85630  0.24527  1.0000
  H   H25       1.0  0.14408  0.76918  0.25030  1.0000
  H   H26       1.0  0.22668  0.87407  0.25071  1.0000
  H   H27       1.0  0.12179  0.85178  0.25044  1.0000
  C   C49       1.0  0.18712  0.90540  0.25931  1.0000
  C   C50       1.0  0.09044  0.78087  0.25889  1.0000
  O   O10       1.0  0.24898  0.83416  0.27592  1.0000
  O   O11       1.0  0.16170  0.91398  0.27606  1.0000
  O   O12       1.0  0.08185  0.74686  0.27555  1.0000
  C   C51       1.0  0.31921  0.62777  0.42412  1.0000
  C   C52       1.0  0.35565  0.65373  0.42459  1.0000
  C   C53       1.0  0.36813  0.69063  0.42413  1.0000
  C   C54       1.0  0.34215  0.70109  0.42455  1.0000
  C   C55       1.0  0.29480  0.64024  0.42462  1.0000
  H   H28       1.0  0.35063  0.72743  0.41948  1.0000
  H   H29       1.0  0.26845  0.62237  0.41960  1.0000
  H   H30       1.0  0.37353  0.64526  0.41949  1.0000
  C   C56       1.0  0.30837  0.59122  0.41407  1.0000
  C   C57       1.0  0.40467  0.71633  0.41391  1.0000
  O   O13       1.0  0.24554  0.66205  0.39785  1.0000
  O   O14       1.0  0.33384  0.58267  0.39788  1.0000
  O   O15       1.0  0.41321  0.75034  0.39767  1.0000
  C   C58       1.0  0.26673  0.73530  0.38476  1.0000
  N   N19       1.0  0.25556  0.78218  0.35064  1.0000
  C   C59       1.0  0.27573  0.77136  0.39474  1.0000
  C   C60       1.0  0.30323  0.79561  0.44768  1.0000
  O   O16       1.0  0.31161  0.82688  0.44445  1.0000
  H   H31       1.0  0.30536  0.78742  0.50758  1.0000
  N   N20       1.0  0.28666  0.72179  0.41856  1.0000
  H   H32       1.0  0.30865  0.73860  0.44698  1.0000
  C   C61       1.0  0.26060  0.53059  0.38490  1.0000
  N   N21       1.0  0.21369  0.97254  0.35077  1.0000
  C   C62       1.0  0.22455  0.50353  0.39488  1.0000
  C   C63       1.0  0.20024  0.50664  0.44774  1.0000
  O   O17       1.0  0.16885  0.48410  0.44489  1.0000
  H   H33       1.0  0.20851  0.51740  0.50733  1.0000
  N   N22       1.0  0.27410  0.56404  0.41860  1.0000
  H   H34       1.0  0.25728  0.56922  0.44696  1.0000
  C   C64       1.0  0.46528  0.72916  0.38456  1.0000
  N   N23       1.0  0.02333  0.74032  0.35040  1.0000
  C   C65       1.0  0.49235  0.72019  0.39454  1.0000
  C   C66       1.0  0.48925  0.69278  0.44743  1.0000
  O   O18       1.0  0.51179  0.68392  0.44453  1.0000
  H   H35       1.0  0.47852  0.69031  0.50704  1.0000
  N   N24       1.0  0.43185  0.70923  0.41841  1.0000
  H   H36       1.0  0.42668  0.68725  0.44682  1.0000
  C   C67       1.0  0.68958  0.31979  0.24620  1.0000
  C   C68       1.0  0.71498  0.30874  0.25917  1.0000
  C   C69       1.0  0.80526  0.17668  0.42419  1.0000
  C   C70       1.0  0.77956  0.18752  0.41405  1.0000
  N   N25       1.0  0.73823  0.21471  0.33226  1.0000
  C   C71       1.0  0.71822  0.22591  0.29002  1.0000
  C   C72       1.0  0.72739  0.26172  0.29751  1.0000
  H   H37       1.0  0.69719  0.20840  0.25237  1.0000
  N   N26       1.0  0.70759  0.27435  0.25897  1.0000
  H   H38       1.0  0.68596  0.25688  0.22978  1.0000
  N   N27       1.0  0.78118  0.02269  0.33233  1.0000
  C   C73       1.0  0.76996  0.49146  0.29008  1.0000
  C   C74       1.0  0.73414  0.46484  0.29757  1.0000
  H   H39       1.0  0.78745  0.48795  0.25234  1.0000
  N   N28       1.0  0.72151  0.43241  0.25905  1.0000
  H   H40       1.0  0.73897  0.42824  0.22984  1.0000
  N   N29       1.0  0.97317  0.25765  0.33204  1.0000
  C   C75       1.0  0.50439  0.27766  0.28977  1.0000
  C   C76       1.0  0.53101  0.26846  0.29721  1.0000
  H   H41       1.0  0.50789  0.29866  0.25203  1.0000
  N   N30       1.0  0.56344  0.28826  0.25867  1.0000
  H   H42       1.0  0.56762  0.30990  0.22951  1.0000
  C   C77       1.0  0.67607  0.36896  0.24632  1.0000
  C   C78       1.0  0.63956  0.34319  0.24527  1.0000
  C   C79       1.0  0.62689  0.30628  0.24607  1.0000
  C   C80       1.0  0.65267  0.29555  0.24519  1.0000
  C   C81       1.0  0.70032  0.35630  0.24527  1.0000
  H   H43       1.0  0.64408  0.26918  0.25030  1.0000
  H   H44       1.0  0.72668  0.37407  0.25071  1.0000
  H   H45       1.0  0.62178  0.35178  0.25044  1.0000
  C   C82       1.0  0.68712  0.40540  0.25931  1.0000
  C   C83       1.0  0.59044  0.28087  0.25889  1.0000
  O   O19       1.0  0.74898  0.33416  0.27592  1.0000
  O   O20       1.0  0.66170  0.41398  0.27606  1.0000
  O   O21       1.0  0.58185  0.24686  0.27555  1.0000
  C   C84       1.0  0.81921  0.12776  0.42411  1.0000
  C   C85       1.0  0.85565  0.15373  0.42459  1.0000
  C   C86       1.0  0.86813  0.19062  0.42413  1.0000
  C   C87       1.0  0.84215  0.20109  0.42455  1.0000
  C   C88       1.0  0.79480  0.14024  0.42462  1.0000
  H   H46       1.0  0.85062  0.22743  0.41948  1.0000
  H   H47       1.0  0.76845  0.12237  0.41960  1.0000
  H   H48       1.0  0.87352  0.14526  0.41949  1.0000
  C   C89       1.0  0.80837  0.09122  0.41407  1.0000
  C   C90       1.0  0.90467  0.21633  0.41391  1.0000
  O   O22       1.0  0.74554  0.16205  0.39785  1.0000
  O   O23       1.0  0.83384  0.08267  0.39788  1.0000
  O   O24       1.0  0.91321  0.25034  0.39767  1.0000
  C   C91       1.0  0.76673  0.23531  0.38476  1.0000
  N   N31       1.0  0.75556  0.28218  0.35064  1.0000
  C   C92       1.0  0.77572  0.27136  0.39474  1.0000
  C   C93       1.0  0.80323  0.29561  0.44768  1.0000
  O   O25       1.0  0.81161  0.32689  0.44445  1.0000
  H   H49       1.0  0.80536  0.28742  0.50758  1.0000
  N   N32       1.0  0.78666  0.22179  0.41856  1.0000
  H   H50       1.0  0.80865  0.23860  0.44698  1.0000
  C   C94       1.0  0.76060  0.03059  0.38490  1.0000
  N   N33       1.0  0.71369  0.47254  0.35077  1.0000
  C   C95       1.0  0.72455  0.00353  0.39488  1.0000
  C   C96       1.0  0.70024  0.00664  0.44774  1.0000
  O   O26       1.0  0.66884  0.98410  0.44489  1.0000
  H   H51       1.0  0.70851  0.01740  0.50733  1.0000
  N   N34       1.0  0.77410  0.06404  0.41860  1.0000
  H   H52       1.0  0.75728  0.06922  0.44696  1.0000
  C   C97       1.0  0.96528  0.22916  0.38456  1.0000
  N   N35       1.0  0.52332  0.24032  0.35040  1.0000
  C   C98       1.0  0.99235  0.22019  0.39454  1.0000
  C   C99       1.0  0.98925  0.19278  0.44743  1.0000
  O   O27       1.0  0.01179  0.18392  0.44453  1.0000
  H   H53       1.0  0.97852  0.19031  0.50704  1.0000
  N   N36       1.0  0.93185  0.20923  0.41841  1.0000
  H   H54       1.0  0.92668  0.18725  0.44682  1.0000
  C   C100      1.0  0.68958  0.81979  0.24620  1.0000
  C   C101      1.0  0.71498  0.80874  0.25917  1.0000
  C   C102      1.0  0.80526  0.67668  0.42419  1.0000
  C   C103      1.0  0.77956  0.68751  0.41405  1.0000
  N   N37       1.0  0.73823  0.71471  0.33226  1.0000
  C   C104      1.0  0.71822  0.72591  0.29002  1.0000
  C   C105      1.0  0.72739  0.76172  0.29751  1.0000
  H   H55       1.0  0.69719  0.70840  0.25237  1.0000
  N   N38       1.0  0.70759  0.77435  0.25897  1.0000
  H   H56       1.0  0.68596  0.75689  0.22978  1.0000
  N   N39       1.0  0.78118  0.52269  0.33233  1.0000
  C   C106      1.0  0.76996  0.99146  0.29008  1.0000
  C   C107      1.0  0.73414  0.96484  0.29757  1.0000
  H   H57       1.0  0.78745  0.98795  0.25234  1.0000
  N   N40       1.0  0.72151  0.93241  0.25905  1.0000
  H   H58       1.0  0.73897  0.92824  0.22984  1.0000
  N   N41       1.0  0.97317  0.75765  0.33204  1.0000
  C   C108      1.0  0.50439  0.77766  0.28977  1.0000
  C   C109      1.0  0.53101  0.76846  0.29721  1.0000
  H   H59       1.0  0.50789  0.79866  0.25203  1.0000
  N   N42       1.0  0.56344  0.78826  0.25867  1.0000
  H   H60       1.0  0.56762  0.80990  0.22951  1.0000
  C   C110      1.0  0.67607  0.86896  0.24632  1.0000
  C   C111      1.0  0.63957  0.84319  0.24527  1.0000
  C   C112      1.0  0.62689  0.80628  0.24607  1.0000
  C   C113      1.0  0.65267  0.79555  0.24519  1.0000
  C   C114      1.0  0.70032  0.85630  0.24527  1.0000
  H   H61       1.0  0.64408  0.76918  0.25030  1.0000
  H   H62       1.0  0.72668  0.87407  0.25071  1.0000
  H   H63       1.0  0.62178  0.85178  0.25044  1.0000
  C   C115      1.0  0.68712  0.90540  0.25931  1.0000
  C   C116      1.0  0.59044  0.78087  0.25889  1.0000
  O   O28       1.0  0.74898  0.83416  0.27592  1.0000
  O   O29       1.0  0.66170  0.91398  0.27606  1.0000
  O   O30       1.0  0.58185  0.74686  0.27555  1.0000
  C   C117      1.0  0.81921  0.62777  0.42412  1.0000
  C   C118      1.0  0.85565  0.65373  0.42459  1.0000
  C   C119      1.0  0.86813  0.69063  0.42413  1.0000
  C   C120      1.0  0.84215  0.70109  0.42455  1.0000
  C   C121      1.0  0.79480  0.64024  0.42462  1.0000
  H   H64       1.0  0.85063  0.72743  0.41948  1.0000
  H   H65       1.0  0.76845  0.62237  0.41960  1.0000
  H   H66       1.0  0.87352  0.64526  0.41949  1.0000
  C   C122      1.0  0.80837  0.59122  0.41407  1.0000
  C   C123      1.0  0.90467  0.71633  0.41391  1.0000
  O   O31       1.0  0.74554  0.66205  0.39785  1.0000
  O   O32       1.0  0.83384  0.58267  0.39788  1.0000
  O   O33       1.0  0.91321  0.75034  0.39767  1.0000
  C   C124      1.0  0.76673  0.73530  0.38476  1.0000
  N   N43       1.0  0.75556  0.78218  0.35064  1.0000
  C   C125      1.0  0.77572  0.77136  0.39474  1.0000
  C   C126      1.0  0.80323  0.79561  0.44768  1.0000
  O   O34       1.0  0.81161  0.82688  0.44445  1.0000
  H   H67       1.0  0.80536  0.78742  0.50758  1.0000
  N   N44       1.0  0.78666  0.72179  0.41856  1.0000
  H   H68       1.0  0.80865  0.73860  0.44698  1.0000
  C   C127      1.0  0.76060  0.53059  0.38490  1.0000
  N   N45       1.0  0.71369  0.97254  0.35077  1.0000
  C   C128      1.0  0.72455  0.50353  0.39488  1.0000
  C   C129      1.0  0.70024  0.50664  0.44774  1.0000
  O   O35       1.0  0.66884  0.48410  0.44489  1.0000
  H   H69       1.0  0.70851  0.51740  0.50733  1.0000
  N   N46       1.0  0.77410  0.56404  0.41860  1.0000
  H   H70       1.0  0.75728  0.56922  0.44696  1.0000
  C   C130      1.0  0.96528  0.72916  0.38456  1.0000
  N   N47       1.0  0.52333  0.74032  0.35040  1.0000
  C   C131      1.0  0.99235  0.72019  0.39454  1.0000
  C   C132      1.0  0.98925  0.69278  0.44743  1.0000
  O   O36       1.0  0.01179  0.68392  0.44453  1.0000
  H   H71       1.0  0.97852  0.69031  0.50704  1.0000
  N   N48       1.0  0.93185  0.70923  0.41841  1.0000
  H   H72       1.0  0.92668  0.68725  0.44682  1.0000
