data_image0
_chemical_formula_structural       C3O2HNC5H2OHNCHNCHCHCNC2OCNC2NC2NC2O2HC2NC2O2HNCHNCHNCHNCHC6H3C6H3C6H3C6H3C6H3CHNCHNCHC3NC2O2HC2O2HC2NC2O2HC2NC2O2HC2NC2O2H
_chemical_formula_sum              "C81 O18 H36 N18"
_cell_length_a       30.2511
_cell_length_b       30.251
_cell_length_c       14.71
_cell_angle_alpha    90
_cell_angle_beta     90
_cell_angle_gamma    120

_space_group_name_H-M_alt    "P 1"
_space_group_IT_number       1

loop_
  _space_group_symop_operation_xyz
  'x, y, z'

loop_
  _atom_site_type_symbol
  _atom_site_label
  _atom_site_symmetry_multiplicity
  _atom_site_fract_x
  _atom_site_fract_y
  _atom_site_fract_z
  _atom_site_occupancy
  C   C1        1.0  0.06943  0.53684  0.30702  1.0000
  C   C2        1.0  0.03825  0.55284  0.26104  1.0000
  C   C3        1.0  0.05756  0.59615  0.20705  1.0000
  O   O1        1.0  0.03633  0.62153  0.20934  1.0000
  O   O2        1.0  0.08169  0.60057  0.13661  1.0000
  H   H1        1.0  0.09551  0.58167  0.12229  1.0000
  N   N1        1.0  0.04321  0.49132  0.35162  1.0000
  C   C4        1.0  0.20256  0.56303  0.36515  1.0000
  C   C5        1.0  0.20310  0.64553  0.36209  1.0000
  C   C6        1.0  0.15217  0.61931  0.32981  1.0000
  C   C7        1.0  0.12444  0.56514  0.31881  1.0000
  C   C8        1.0  0.15197  0.53856  0.33124  1.0000
  H   H2        1.0  0.13386  0.63980  0.32398  1.0000
  H   H3        1.0  0.13367  0.49983  0.32242  1.0000
  O   O3        1.0  0.21240  0.55104  0.57445  1.0000
  H   H4        1.0  0.18472  0.52277  0.55683  1.0000
  N   N2        1.0  0.24731  0.52362  0.30510  1.0000
  C   C9        1.0  0.29040  0.51975  0.29989  1.0000
  H   H5        1.0  0.30104  0.51283  0.23796  1.0000
  N   N3        1.0  0.29566  0.77775  0.30815  1.0000
  C   C10       1.0  0.24854  0.73478  0.30340  1.0000
  H   H6        1.0  0.23098  0.72437  0.24148  1.0000
  C   C11       1.0  0.22641  0.61611  0.38095  1.0000
  H   H7        1.0  0.26426  0.63499  0.39890  1.0000
  C   C12       1.0  0.23206  0.53899  0.38044  1.0000
  N   N4        1.0  0.30978  0.55338  0.44770  1.0000
  C   C13       1.0  0.26423  0.55121  0.45819  1.0000
  C   C14       1.0  0.25538  0.56717  0.54160  1.0000
  O   O4        1.0  0.28942  0.60650  0.57522  1.0000
  C   C15       1.0  0.23338  0.69909  0.37529  1.0000
  N   N5        1.0  0.26374  0.71489  0.45018  1.0000
  C   C16       1.0  0.30714  0.76043  0.46065  1.0000
  C   C17       1.0  0.96040  0.47737  0.31106  1.0000
  N   N6        1.0  0.98625  0.52287  0.26654  1.0000
  C   C18       1.0  0.48812  0.53775  0.30570  1.0000
  C   C19       1.0  0.54744  0.48806  0.31001  1.0000
  N   N7        1.0  0.50210  0.46857  0.26499  1.0000
  C   C20       1.0  0.47221  0.49068  0.25938  1.0000
  C   C21       1.0  0.42911  0.46679  0.20484  1.0000
  O   O5        1.0  0.40324  0.42024  0.20728  1.0000
  O   O6        1.0  0.42488  0.48703  0.13488  1.0000
  H   H8        1.0  0.44406  0.51976  0.12086  1.0000
  C   C22       1.0  0.48679  0.95506  0.30658  1.0000
  C   C23       1.0  0.53658  0.06406  0.31036  1.0000
  N   N8        1.0  0.55580  0.03811  0.26486  1.0000
  C   C24       1.0  0.53361  0.98609  0.25948  1.0000
  C   C25       1.0  0.55712  0.96667  0.20450  1.0000
  O   O7        1.0  0.60371  0.98776  0.20456  1.0000
  O   O8        1.0  0.53641  0.94185  0.13504  1.0000
  H   H9        1.0  0.50353  0.92796  0.12197  1.0000
  N   N9        1.0  0.50185  0.72932  0.30607  1.0000
  C   C26       1.0  0.50600  0.77646  0.30208  1.0000
  H   H10       1.0  0.51279  0.79423  0.24042  1.0000
  N   N10       1.0  0.78523  0.49604  0.30324  1.0000
  C   C27       1.0  0.74264  0.50078  0.29802  1.0000
  H   H11       1.0  0.73231  0.50812  0.23615  1.0000
  N   N11       1.0  0.52901  0.29433  0.30178  1.0000
  C   C28       1.0  0.52384  0.24680  0.29658  1.0000
  H   H12       1.0  0.51706  0.22950  0.23445  1.0000
  N   N12       1.0  0.73090  0.23965  0.30263  1.0000
  C   C29       1.0  0.77828  0.28228  0.29863  1.0000
  H   H13       1.0  0.79653  0.29272  0.23729  1.0000
  C   C30       1.0  0.46187  0.64466  0.36369  1.0000
  C   C31       1.0  0.40869  0.61546  0.37849  1.0000
  C   C32       1.0  0.37935  0.56279  0.35922  1.0000
  C   C33       1.0  0.40564  0.53810  0.32723  1.0000
  C   C34       1.0  0.45987  0.56452  0.31714  1.0000
  C   C35       1.0  0.48647  0.61858  0.33025  1.0000
  H   H14       1.0  0.38517  0.49929  0.32152  1.0000
  H   H15       1.0  0.52527  0.63897  0.32235  1.0000
  H   H16       1.0  0.38976  0.63438  0.39651  1.0000
  C   C36       1.0  0.38014  0.82216  0.36667  1.0000
  C   C37       1.0  0.40949  0.79840  0.38211  1.0000
  C   C38       1.0  0.46204  0.82154  0.36182  1.0000
  C   C39       1.0  0.48655  0.87231  0.32876  1.0000
  C   C40       1.0  0.46009  0.90008  0.31868  1.0000
  C   C41       1.0  0.40607  0.87263  0.33219  1.0000
  H   H17       1.0  0.52532  0.89061  0.32227  1.0000
  H   H18       1.0  0.38561  0.89094  0.32384  1.0000
  H   H19       1.0  0.39061  0.76058  0.40030  1.0000
  C   C42       1.0  0.82840  0.45499  0.36367  1.0000
  C   C43       1.0  0.80319  0.40170  0.37849  1.0000
  C   C44       1.0  0.82532  0.37122  0.35928  1.0000
  C   C45       1.0  0.87648  0.39657  0.32827  1.0000
  C   C46       1.0  0.90558  0.45085  0.32070  1.0000
  C   C47       1.0  0.87935  0.47873  0.33151  1.0000
  H   H20       1.0  0.89372  0.37529  0.31770  1.0000
  H   H21       1.0  0.89897  0.51765  0.32556  1.0000
  H   H22       1.0  0.76518  0.38355  0.39524  1.0000
  C   C48       1.0  0.57002  0.37845  0.36153  1.0000
  C   C49       1.0  0.62329  0.40658  0.37655  1.0000
  C   C50       1.0  0.65365  0.45925  0.35781  1.0000
  C   C51       1.0  0.62826  0.48507  0.32711  1.0000
  C   C52       1.0  0.57399  0.45980  0.31938  1.0000
  C   C53       1.0  0.54618  0.40566  0.32984  1.0000
  H   H23       1.0  0.64948  0.52364  0.31698  1.0000
  H   H24       1.0  0.50725  0.38634  0.32404  1.0000
  H   H25       1.0  0.64151  0.38682  0.39356  1.0000
  C   C54       1.0  0.64618  0.19646  0.36074  1.0000
  C   C55       1.0  0.61808  0.22175  0.37438  1.0000
  C   C56       1.0  0.56537  0.19930  0.35607  1.0000
  C   C57       1.0  0.53951  0.14788  0.32649  1.0000
  C   C58       1.0  0.56482  0.11891  0.31915  1.0000
  C   C59       1.0  0.61896  0.14525  0.32980  1.0000
  H   H26       1.0  0.50091  0.13044  0.31653  1.0000
  H   H27       1.0  0.63825  0.12558  0.32473  1.0000
  H   H28       1.0  0.63786  0.25982  0.39082  1.0000
  C   C60       1.0  0.99159  0.46122  0.35453  1.0000
  H   H29       1.0  0.97635  0.42879  0.39297  1.0000
  N   N13       1.0  0.53345  0.55685  0.35084  1.0000
  C   C61       1.0  0.56351  0.53529  0.35384  1.0000
  H   H30       1.0  0.59574  0.55225  0.39285  1.0000
  N   N14       1.0  0.46797  0.98139  0.35219  1.0000
  C   C62       1.0  0.48959  0.03302  0.35494  1.0000
  H   H31       1.0  0.47280  0.04839  0.39420  1.0000
  C   C63       1.0  0.32579  0.53945  0.37235  1.0000
  C   C64       1.0  0.48603  0.69808  0.38058  1.0000
  C   C65       1.0  0.48525  0.79114  0.37440  1.0000
  N   N15       1.0  0.47100  0.76055  0.44897  1.0000
  C   C66       1.0  0.47345  0.71729  0.45883  1.0000
  C   C67       1.0  0.45653  0.69083  0.54066  1.0000
  O   O9        1.0  0.42347  0.69319  0.58467  1.0000
  O   O10       1.0  0.47665  0.66865  0.57784  1.0000
  H   H32       1.0  0.50303  0.66698  0.55592  1.0000
  C   C68       1.0  0.32666  0.79267  0.38297  1.0000
  C   C69       1.0  0.33318  0.76962  0.54288  1.0000
  O   O11       1.0  0.33091  0.73403  0.58619  1.0000
  O   O12       1.0  0.35542  0.81178  0.58050  1.0000
  H   H33       1.0  0.35711  0.83991  0.55900  1.0000
  C   C70       1.0  0.79986  0.48009  0.37855  1.0000
  C   C71       1.0  0.70713  0.48148  0.37031  1.0000
  N   N16       1.0  0.72259  0.46690  0.44562  1.0000
  C   C72       1.0  0.76771  0.46821  0.45630  1.0000
  C   C73       1.0  0.77592  0.45162  0.53960  1.0000
  O   O13       1.0  0.74149  0.41217  0.57212  1.0000
  O   O14       1.0  0.81873  0.46688  0.57253  1.0000
  H   H34       1.0  0.84669  0.49506  0.55553  1.0000
  C   C74       1.0  0.54486  0.32487  0.37717  1.0000
  C   C75       1.0  0.54313  0.23051  0.36885  1.0000
  N   N17       1.0  0.55785  0.26067  0.44400  1.0000
  C   C76       1.0  0.55669  0.30457  0.45479  1.0000
  C   C77       1.0  0.57370  0.33024  0.53730  1.0000
  O   O15       1.0  0.60672  0.32733  0.58043  1.0000
  O   O16       1.0  0.55469  0.35341  0.57472  1.0000
  H   H35       1.0  0.52859  0.35572  0.55322  1.0000
  C   C78       1.0  0.69971  0.22491  0.37712  1.0000
  C   C79       1.0  0.79374  0.31770  0.37101  1.0000
  N   N18       1.0  0.76302  0.30204  0.44543  1.0000
  C   C80       1.0  0.71915  0.25684  0.45524  1.0000
  C   C81       1.0  0.69258  0.24776  0.53690  1.0000
  O   O17       1.0  0.69648  0.28365  0.58157  1.0000
  O   O18       1.0  0.67077  0.20573  0.57503  1.0000
  H   H36       1.0  0.66841  0.17740  0.55299  1.0000
