data_image0
_chemical_formula_structural       C2NOCHC2NOCHC2NOCHC2NOCHC2NOCHC2NOCHC4NOCHC4NOCHC4NOCHC4NOCHC4NOCHC4NOCHC4NOCHC4NOCHC4NOCHC4NOCHC4NOCHC4NOCHC6H3C6H3C6H3C6H3C6H3C6H3C6H3C6H3C6H3C6H3C6H3C6H3C4NOCHC4NOCHC4NOCHC4NOCHC4NOCHC4NOCHC2NOCHC2NOCHC2NOCHC2NOCHC2NOCHC2NOCHC2NOCHC2NOCHC2NOCHC2NOCHC2NOCHC2NOCH
_chemical_formula_sum              "C216 N36 O36 H72"
_cell_length_a       37.8215
_cell_length_b       37.8216
_cell_length_c       14.8416
_cell_angle_alpha    90
_cell_angle_beta     90
_cell_angle_gamma    120

_space_group_name_H-M_alt    "P 1"
_space_group_IT_number       1

loop_
  _space_group_symop_operation_xyz
  'x, y, z'

loop_
  _atom_site_type_symbol
  _atom_site_label
  _atom_site_symmetry_multiplicity
  _atom_site_fract_x
  _atom_site_fract_y
  _atom_site_fract_z
  _atom_site_occupancy
  C   C1        1.0  0.21411  0.37413  0.29037  1.0000
  C   C2        1.0  0.23511  0.41698  0.28891  1.0000
  N   N1        1.0  0.26046  0.42830  0.21878  1.0000
  O   O1        1.0  0.22622  0.35860  0.22186  1.0000
  C   C3        1.0  0.25521  0.39369  0.18152  1.0000
  H   H1        1.0  0.27047  0.39354  0.12493  1.0000
  C   C4        1.0  0.62996  0.83414  0.29125  1.0000
  C   C5        1.0  0.58718  0.81287  0.28963  1.0000
  N   N2        1.0  0.57589  0.83193  0.23069  1.0000
  O   O2        1.0  0.64557  0.86631  0.23291  1.0000
  C   C6        1.0  0.61061  0.86344  0.19923  1.0000
  H   H2        1.0  0.61091  0.88295  0.15131  1.0000
  C   C7        1.0  0.17183  0.78911  0.28146  1.0000
  C   C8        1.0  0.19349  0.76794  0.28516  1.0000
  N   N3        1.0  0.17675  0.73813  0.22434  1.0000
  O   O3        1.0  0.14172  0.77283  0.21817  1.0000
  C   C9        1.0  0.14635  0.74145  0.18642  1.0000
  H   H3        1.0  0.12834  0.72229  0.13661  1.0000
  C   C10       1.0  0.79547  0.62184  0.28363  1.0000
  C   C11       1.0  0.77432  0.57902  0.28759  1.0000
  N   N4        1.0  0.74445  0.56586  0.22690  1.0000
  O   O4        1.0  0.77914  0.63558  0.22028  1.0000
  C   C12       1.0  0.74774  0.59953  0.18877  1.0000
  H   H4        1.0  0.72852  0.59832  0.13902  1.0000
  C   C13       1.0  0.38094  0.16534  0.28704  1.0000
  C   C14       1.0  0.42378  0.18708  0.28622  1.0000
  N   N5        1.0  0.43526  0.17329  0.21592  1.0000
  O   O5        1.0  0.36556  0.13800  0.21794  1.0000
  C   C15       1.0  0.40073  0.14415  0.17796  1.0000
  H   H5        1.0  0.40070  0.12896  0.12107  1.0000
  C   C16       1.0  0.84096  0.20913  0.29331  1.0000
  C   C17       1.0  0.81964  0.23060  0.29116  1.0000
  N   N6        1.0  0.83871  0.26088  0.23205  1.0000
  O   O6        1.0  0.87315  0.22564  0.23501  1.0000
  C   C18       1.0  0.87027  0.25767  0.20094  1.0000
  H   H6        1.0  0.88980  0.27681  0.15295  1.0000
  C   C19       1.0  0.22699  0.17558  0.34949  1.0000
  C   C20       1.0  0.23772  0.20972  0.29296  1.0000
  C   C21       1.0  0.21579  0.23062  0.29338  1.0000
  C   C22       1.0  0.18166  0.21976  0.35009  1.0000
  N   N7        1.0  0.23267  0.25975  0.23103  1.0000
  O   O7        1.0  0.26813  0.22547  0.23028  1.0000
  C   C23       1.0  0.26349  0.25640  0.19567  1.0000
  H   H7        1.0  0.28152  0.27495  0.14511  1.0000
  C   C24       1.0  0.82895  0.04271  0.34914  1.0000
  C   C25       1.0  0.79498  0.01937  0.29205  1.0000
  C   C26       1.0  0.77366  0.97654  0.29312  1.0000
  C   C27       1.0  0.78400  0.95320  0.35083  1.0000
  N   N8        1.0  0.74475  0.96434  0.23027  1.0000
  O   O8        1.0  0.77965  0.03406  0.22844  1.0000
  C   C28       1.0  0.74851  0.99855  0.19414  1.0000
  H   H8        1.0  0.73037  0.99809  0.14269  1.0000
  C   C29       1.0  0.96072  0.77791  0.33676  1.0000
  C   C30       1.0  0.98386  0.76752  0.27845  1.0000
  C   C31       1.0  0.02667  0.78916  0.27863  1.0000
  C   C32       1.0  0.05009  0.82271  0.33649  1.0000
  N   N9        1.0  0.03871  0.77274  0.21477  1.0000
  O   O9        1.0  0.96898  0.73772  0.21434  1.0000
  C   C33       1.0  0.00440  0.74231  0.17893  1.0000
  H   H9        1.0  0.00472  0.72487  0.12678  1.0000
  C   C34       1.0  0.78405  0.82176  0.34392  1.0000
  C   C35       1.0  0.81765  0.83268  0.28556  1.0000
  C   C36       1.0  0.83883  0.81105  0.28428  1.0000
  C   C37       1.0  0.82880  0.77714  0.34099  1.0000
  N   N10       1.0  0.86734  0.82806  0.22066  1.0000
  O   O10       1.0  0.83263  0.86307  0.22283  1.0000
  C   C38       1.0  0.86335  0.85865  0.18620  1.0000
  H   H10       1.0  0.88143  0.87681  0.13522  1.0000
  C   C39       1.0  0.18117  0.95445  0.33714  1.0000
  C   C40       1.0  0.21521  0.97813  0.28059  1.0000
  C   C41       1.0  0.23651  0.02093  0.28321  1.0000
  C   C42       1.0  0.22605  0.04377  0.34215  1.0000
  N   N11       1.0  0.26560  0.03359  0.22069  1.0000
  O   O11       1.0  0.23070  0.96388  0.21637  1.0000
  C   C43       1.0  0.26185  0.99964  0.18307  1.0000
  H   H11       1.0  0.28030  0.00047  0.13194  1.0000
  C   C44       1.0  0.05004  0.21999  0.35292  1.0000
  C   C45       1.0  0.02667  0.23089  0.29665  1.0000
  C   C46       1.0  0.98381  0.20906  0.29696  1.0000
  C   C47       1.0  0.96040  0.17476  0.35312  1.0000
  N   N12       1.0  0.97166  0.22612  0.23485  1.0000
  O   O12       1.0  0.04139  0.26143  0.23429  1.0000
  C   C48       1.0  0.00588  0.25704  0.19992  1.0000
  H   H12       1.0  0.00545  0.27504  0.14918  1.0000
  C   C49       1.0  0.22135  0.56933  0.35483  1.0000
  C   C50       1.0  0.21323  0.59048  0.28636  1.0000
  C   C51       1.0  0.21518  0.62800  0.30217  1.0000
  C   C52       1.0  0.22658  0.64813  0.38667  1.0000
  N   N13       1.0  0.21370  0.64283  0.22166  1.0000
  O   O13       1.0  0.21048  0.58187  0.19657  1.0000
  C   C53       1.0  0.20855  0.61424  0.16135  1.0000
  H   H13       1.0  0.20952  0.61928  0.09359  1.0000
  C   C54       1.0  0.42710  0.65376  0.27955  1.0000
  C   C55       1.0  0.39851  0.64294  0.20841  1.0000
  C   C56       1.0  0.36090  0.60686  0.21040  1.0000
  C   C57       1.0  0.34915  0.57765  0.28048  1.0000
  N   N14       1.0  0.33899  0.60859  0.14192  1.0000
  O   O14       1.0  0.40013  0.66787  0.14006  1.0000
  C   C58       1.0  0.36301  0.64416  0.10029  1.0000
  H   H14       1.0  0.35335  0.65385  0.04638  1.0000
  C   C59       1.0  0.35493  0.77434  0.38681  1.0000
  C   C60       1.0  0.37605  0.78863  0.30394  1.0000
  C   C61       1.0  0.41288  0.78897  0.28944  1.0000
  C   C62       1.0  0.43423  0.78094  0.35750  1.0000
  N   N15       1.0  0.41971  0.79237  0.20095  1.0000
  O   O15       1.0  0.35941  0.79095  0.22413  1.0000
  C   C63       1.0  0.38871  0.79502  0.16436  1.0000
  H   H15       1.0  0.38533  0.79601  0.09633  1.0000
  C   C64       1.0  0.78017  0.42377  0.39002  1.0000
  C   C65       1.0  0.79490  0.41726  0.30741  1.0000
  C   C66       1.0  0.79575  0.38108  0.29256  1.0000
  C   C67       1.0  0.78720  0.35147  0.36029  1.0000
  N   N16       1.0  0.80001  0.37828  0.20418  1.0000
  O   O16       1.0  0.79806  0.43685  0.22804  1.0000
  C   C68       1.0  0.80310  0.41223  0.16819  1.0000
  H   H16       1.0  0.80406  0.41674  0.10021  1.0000
  C   C69       1.0  0.57592  0.35285  0.35372  1.0000
  C   C70       1.0  0.59744  0.38213  0.28552  1.0000
  C   C71       1.0  0.63479  0.41771  0.30237  1.0000
  C   C72       1.0  0.65425  0.42635  0.38767  1.0000
  N   N17       1.0  0.65018  0.43412  0.22224  1.0000
  O   O17       1.0  0.58945  0.37634  0.19547  1.0000
  C   C73       1.0  0.62204  0.41071  0.16109  1.0000
  H   H17       1.0  0.62755  0.41487  0.09350  1.0000
  C   C74       1.0  0.66046  0.23156  0.28004  1.0000
  C   C75       1.0  0.64975  0.24917  0.20841  1.0000
  C   C76       1.0  0.61365  0.25068  0.20990  1.0000
  C   C77       1.0  0.58430  0.23336  0.27972  1.0000
  N   N18       1.0  0.61543  0.27415  0.14104  1.0000
  O   O18       1.0  0.67476  0.27236  0.14007  1.0000
  C   C78       1.0  0.65106  0.28565  0.09971  1.0000
  H   H18       1.0  0.66078  0.30488  0.04560  1.0000
  C   C79       1.0  0.09404  0.24199  0.35285  1.0000
  C   C80       1.0  0.11641  0.22104  0.35115  1.0000
  C   C81       1.0  0.15971  0.24172  0.35081  1.0000
  C   C82       1.0  0.18069  0.28499  0.35157  1.0000
  C   C83       1.0  0.15998  0.30752  0.35297  1.0000
  C   C84       1.0  0.11668  0.28530  0.35399  1.0000
  H   H19       1.0  0.21192  0.30057  0.35418  1.0000
  H   H20       1.0  0.10127  0.30113  0.35540  1.0000
  H   H21       1.0  0.10073  0.18986  0.34698  1.0000
  C   C85       1.0  0.76213  0.84367  0.34614  1.0000
  C   C86       1.0  0.78299  0.88694  0.34837  1.0000
  C   C87       1.0  0.76209  0.90929  0.35045  1.0000
  C   C88       1.0  0.71881  0.88676  0.35087  1.0000
  C   C89       1.0  0.69633  0.84345  0.34798  1.0000
  C   C90       1.0  0.71886  0.82273  0.34559  1.0000
  H   H22       1.0  0.70326  0.90236  0.35589  1.0000
  H   H23       1.0  0.70339  0.79161  0.33972  1.0000
  H   H24       1.0  0.81423  0.90258  0.34816  1.0000
  C   C91       1.0  0.15940  0.91058  0.33590  1.0000
  C   C92       1.0  0.11615  0.88801  0.33583  1.0000
  C   C93       1.0  0.09393  0.84474  0.33584  1.0000
  C   C94       1.0  0.11648  0.82401  0.33565  1.0000
  C   C95       1.0  0.15975  0.84505  0.33546  1.0000
  C   C96       1.0  0.18041  0.88833  0.33549  1.0000
  H   H25       1.0  0.10100  0.79281  0.33939  1.0000
  H   H26       1.0  0.21164  0.90408  0.33577  1.0000
  H   H27       1.0  0.10041  0.90349  0.33280  1.0000
  C   C97       1.0  0.91683  0.75583  0.33727  1.0000
  C   C98       1.0  0.89419  0.77644  0.33869  1.0000
  C   C99       1.0  0.85090  0.75536  0.33939  1.0000
  C   C100      1.0  0.83024  0.71208  0.33875  1.0000
  C   C101      1.0  0.85134  0.68991  0.33763  1.0000
  C   C102      1.0  0.89461  0.71256  0.33676  1.0000
  H   H28       1.0  0.79901  0.69629  0.33953  1.0000
  H   H29       1.0  0.91038  0.69710  0.33618  1.0000
  H   H30       1.0  0.90967  0.80767  0.33930  1.0000
  C   C103      1.0  0.24890  0.15358  0.34892  1.0000
  C   C104      1.0  0.22775  0.11032  0.34597  1.0000
  C   C105      1.0  0.24829  0.08761  0.34475  1.0000
  C   C106      1.0  0.29155  0.10966  0.34612  1.0000
  C   C107      1.0  0.31424  0.15288  0.34894  1.0000
  C   C108      1.0  0.29219  0.17413  0.35054  1.0000
  H   H31       1.0  0.30696  0.09382  0.34807  1.0000
  H   H32       1.0  0.30809  0.20536  0.35269  1.0000
  H   H33       1.0  0.19657  0.09496  0.34131  1.0000
  C   C109      1.0  0.85080  0.08665  0.34971  1.0000
  C   C110      1.0  0.89409  0.10926  0.35093  1.0000
  C   C111      1.0  0.91641  0.15254  0.35261  1.0000
  C   C112      1.0  0.89372  0.17314  0.35315  1.0000
  C   C113      1.0  0.85041  0.15223  0.35069  1.0000
  C   C114      1.0  0.82980  0.10895  0.34925  1.0000
  H   H34       1.0  0.90923  0.20429  0.35797  1.0000
  H   H35       1.0  0.79860  0.09320  0.34757  1.0000
  H   H36       1.0  0.90982  0.09379  0.34731  1.0000
  C   C115      1.0  0.30707  0.55136  0.29976  1.0000
  C   C116      1.0  0.28179  0.56901  0.30386  1.0000
  C   C117      1.0  0.24070  0.54687  0.33178  1.0000
  C   C118      1.0  0.22375  0.50495  0.35125  1.0000
  C   C119      1.0  0.24686  0.48484  0.34272  1.0000
  C   C120      1.0  0.28926  0.50945  0.32261  1.0000
  H   H37       1.0  0.19351  0.48875  0.36812  1.0000
  H   H38       1.0  0.30716  0.49627  0.31975  1.0000
  H   H39       1.0  0.29472  0.59998  0.29553  1.0000
  C   C121      1.0  0.45662  0.76152  0.33476  1.0000
  C   C122      1.0  0.43460  0.72031  0.30764  1.0000
  C   C123      1.0  0.45294  0.69572  0.30025  1.0000
  C   C124      1.0  0.49529  0.71415  0.31900  1.0000
  C   C125      1.0  0.51926  0.75660  0.33839  1.0000
  C   C126      1.0  0.49888  0.77920  0.35062  1.0000
  H   H40       1.0  0.50933  0.69722  0.31069  1.0000
  H   H41       1.0  0.51506  0.80917  0.37011  1.0000
  H   H42       1.0  0.40351  0.70695  0.30072  1.0000
  C   C127      1.0  0.24575  0.69131  0.38918  1.0000
  C   C128      1.0  0.28818  0.71380  0.40657  1.0000
  C   C129      1.0  0.31182  0.75610  0.38873  1.0000
  C   C130      1.0  0.29110  0.77660  0.36017  1.0000
  C   C131      1.0  0.24788  0.75627  0.35312  1.0000
  C   C132      1.0  0.22621  0.71305  0.36091  1.0000
  H   H43       1.0  0.30780  0.80738  0.34858  1.0000
  H   H44       1.0  0.19518  0.69725  0.35291  1.0000
  H   H45       1.0  0.30315  0.69799  0.41913  1.0000
  C   C133      1.0  0.69741  0.45030  0.39135  1.0000
  C   C134      1.0  0.71973  0.43022  0.40916  1.0000
  C   C135      1.0  0.76207  0.44879  0.39176  1.0000
  C   C136      1.0  0.78277  0.49005  0.36347  1.0000
  C   C137      1.0  0.76257  0.51305  0.35610  1.0000
  C   C138      1.0  0.71933  0.49160  0.36335  1.0000
  H   H46       1.0  0.81358  0.50406  0.35234  1.0000
  H   H47       1.0  0.70361  0.50688  0.35499  1.0000
  H   H48       1.0  0.70379  0.39942  0.42149  1.0000
  C   C139      1.0  0.55802  0.24919  0.29859  1.0000
  C   C140      1.0  0.57566  0.29213  0.30233  1.0000
  C   C141      1.0  0.55350  0.31107  0.33030  1.0000
  C   C142      1.0  0.51160  0.28609  0.35000  1.0000
  C   C143      1.0  0.49149  0.24288  0.34122  1.0000
  C   C144      1.0  0.51610  0.22509  0.32129  1.0000
  H   H49       1.0  0.49538  0.30012  0.36673  1.0000
  H   H50       1.0  0.50289  0.19401  0.31834  1.0000
  H   H51       1.0  0.60663  0.31018  0.29423  1.0000
  C   C145      1.0  0.76806  0.30978  0.33640  1.0000
  C   C146      1.0  0.72688  0.29058  0.30898  1.0000
  C   C147      1.0  0.70238  0.24766  0.30105  1.0000
  C   C148      1.0  0.72084  0.22375  0.31968  1.0000
  C   C149      1.0  0.76328  0.24227  0.33930  1.0000
  C   C150      1.0  0.78578  0.28522  0.35206  1.0000
  H   H52       1.0  0.70396  0.19280  0.31093  1.0000
  H   H53       1.0  0.81570  0.29900  0.37189  1.0000
  H   H54       1.0  0.71345  0.30825  0.30225  1.0000
  C   C151      1.0  0.22727  0.44099  0.35047  1.0000
  C   C152      1.0  0.19597  0.41803  0.41415  1.0000
  C   C153      1.0  0.17453  0.37517  0.41464  1.0000
  C   C154      1.0  0.18238  0.35137  0.35291  1.0000
  N   N19       1.0  0.14781  0.36337  0.48214  1.0000
  O   O19       1.0  0.18289  0.43310  0.48176  1.0000
  C   C155      1.0  0.15300  0.39785  0.51989  1.0000
  H   H55       1.0  0.13659  0.39779  0.57456  1.0000
  C   C156      1.0  0.56298  0.77726  0.34141  1.0000
  C   C157      1.0  0.58521  0.76395  0.39453  1.0000
  C   C158      1.0  0.62807  0.78549  0.39689  1.0000
  C   C159      1.0  0.65237  0.82142  0.34580  1.0000
  N   N20       1.0  0.63908  0.76620  0.45580  1.0000
  O   O20       1.0  0.56928  0.73133  0.45139  1.0000
  C   C160      1.0  0.60422  0.73448  0.48624  1.0000
  H   H56       1.0  0.60380  0.71452  0.53312  1.0000
  C   C161      1.0  0.22698  0.77902  0.34392  1.0000
  C   C162      1.0  0.23704  0.81327  0.39966  1.0000
  C   C163      1.0  0.21526  0.83424  0.39632  1.0000
  C   C164      1.0  0.18195  0.82337  0.33720  1.0000
  N   N21       1.0  0.23100  0.86309  0.45951  1.0000
  O   O21       1.0  0.26615  0.82865  0.46534  1.0000
  C   C165      1.0  0.26115  0.85962  0.49812  1.0000
  H   H57       1.0  0.27810  0.87778  0.55029  1.0000
  C   C166      1.0  0.78539  0.55669  0.34659  1.0000
  C   C167      1.0  0.81969  0.58094  0.40216  1.0000
  C   C168      1.0  0.84070  0.62369  0.39844  1.0000
  C   C169      1.0  0.82976  0.64604  0.33921  1.0000
  N   N22       1.0  0.86961  0.63689  0.46149  1.0000
  O   O22       1.0  0.83512  0.56731  0.46792  1.0000
  C   C170      1.0  0.86625  0.60331  0.50015  1.0000
  H   H58       1.0  0.88423  0.60460  0.55279  1.0000
  C   C171      1.0  0.44765  0.21868  0.34842  1.0000
  C   C172      1.0  0.42458  0.22685  0.41211  1.0000
  C   C173      1.0  0.38174  0.20554  0.41200  1.0000
  C   C174      1.0  0.35807  0.17417  0.34958  1.0000
  N   N23       1.0  0.36981  0.22027  0.47963  1.0000
  O   O23       1.0  0.43953  0.25478  0.48018  1.0000
  C   C175      1.0  0.40422  0.24937  0.51805  1.0000
  H   H59       1.0  0.40405  0.26556  0.57290  1.0000
  C   C176      1.0  0.78397  0.21923  0.34265  1.0000
  C   C177      1.0  0.77067  0.18380  0.39610  1.0000
  C   C178      1.0  0.79229  0.16256  0.39910  1.0000
  C   C179      1.0  0.82830  0.17412  0.34829  1.0000
  N   N24       1.0  0.77297  0.13240  0.45831  1.0000
  O   O24       1.0  0.73799  0.16719  0.45278  1.0000
  C   C180      1.0  0.74117  0.13553  0.48823  1.0000
  H   H60       1.0  0.72118  0.11608  0.53519  1.0000
  C   C181      1.0  0.17094  0.18561  0.40664  1.0000
  C   C182      1.0  0.19283  0.16467  0.40608  1.0000
  N   N25       1.0  0.17589  0.13546  0.46825  1.0000
  O   O25       1.0  0.14049  0.16979  0.46923  1.0000
  C   C183      1.0  0.14509  0.13881  0.50369  1.0000
  H   H61       1.0  0.12694  0.12014  0.55398  1.0000
  C   C184      1.0  0.81804  0.97650  0.40769  1.0000
  C   C185      1.0  0.83929  0.01934  0.40680  1.0000
  N   N26       1.0  0.86817  0.03147  0.46972  1.0000
  O   O26       1.0  0.83341  0.96173  0.47102  1.0000
  C   C186      1.0  0.86436  0.99724  0.50582  1.0000
  H   H62       1.0  0.88273  0.99766  0.55670  1.0000
  C   C187      1.0  0.02699  0.83314  0.39476  1.0000
  C   C188      1.0  0.98418  0.81143  0.39478  1.0000
  N   N27       1.0  0.97223  0.82785  0.45884  1.0000
  O   O27       1.0  0.04196  0.86301  0.45873  1.0000
  C   C189      1.0  0.00657  0.85830  0.49454  1.0000
  H   H63       1.0  0.00631  0.87579  0.54665  1.0000
  C   C190      1.0  0.79521  0.76626  0.39945  1.0000
  C   C191      1.0  0.77394  0.78780  0.40050  1.0000
  N   N28       1.0  0.74544  0.77090  0.46418  1.0000
  O   O28       1.0  0.78029  0.73601  0.46253  1.0000
  C   C192      1.0  0.74939  0.74028  0.49869  1.0000
  H   H64       1.0  0.73161  0.72246  0.55039  1.0000
  C   C193      1.0  0.19194  0.02011  0.39854  1.0000
  C   C194      1.0  0.17066  0.97730  0.39599  1.0000
  N   N29       1.0  0.14177  0.96468  0.45899  1.0000
  O   O29       1.0  0.17659  0.03439  0.46301  1.0000
  C   C195      1.0  0.14558  0.99863  0.49670  1.0000
  H   H65       1.0  0.12723  0.99782  0.54804  1.0000
  C   C196      1.0  0.98376  0.16382  0.40931  1.0000
  C   C197      1.0  0.02662  0.18568  0.40906  1.0000
  N   N30       1.0  0.03875  0.16846  0.47086  1.0000
  O   O30       1.0  0.96901  0.13311  0.47124  1.0000
  C   C198      1.0  0.00451  0.13756  0.50578  1.0000
  H   H66       1.0  0.00492  0.11917  0.55564  1.0000
  C   C199      1.0  0.23306  0.62623  0.45612  1.0000
  C   C200      1.0  0.23076  0.58868  0.44018  1.0000
  N   N31       1.0  0.24562  0.58014  0.51325  1.0000
  O   O31       1.0  0.24888  0.64109  0.53930  1.0000
  C   C201      1.0  0.25438  0.61040  0.57190  1.0000
  H   H67       1.0  0.26853  0.61266  0.63196  1.0000
  C   C202      1.0  0.37999  0.58557  0.34496  1.0000
  C   C203      1.0  0.41717  0.62290  0.34519  1.0000
  N   N32       1.0  0.43446  0.62579  0.42508  1.0000
  O   O32       1.0  0.37424  0.56535  0.42448  1.0000
  C   C204      1.0  0.40995  0.59072  0.46825  1.0000
  H   H68       1.0  0.41462  0.58626  0.53402  1.0000
  C   C205      1.0  0.41504  0.77130  0.44308  1.0000
  C   C206      1.0  0.37629  0.76670  0.45556  1.0000
  N   N33       1.0  0.36349  0.75036  0.53695  1.0000
  O   O33       1.0  0.42590  0.75631  0.51502  1.0000
  C   C207      1.0  0.39363  0.74571  0.57162  1.0000
  H   H69       1.0  0.39134  0.73254  0.63299  1.0000
  C   C208      1.0  0.77687  0.36041  0.44572  1.0000
  C   C209      1.0  0.77204  0.39442  0.45825  1.0000
  N   N34       1.0  0.75546  0.39064  0.53944  1.0000
  O   O34       1.0  0.76154  0.33426  0.51708  1.0000
  C   C210      1.0  0.75070  0.35574  0.57370  1.0000
  H   H70       1.0  0.73744  0.34472  0.63493  1.0000
  C   C211      1.0  0.63192  0.39796  0.45675  1.0000
  C   C212      1.0  0.59451  0.36269  0.43982  1.0000
  N   N35       1.0  0.58550  0.33922  0.51288  1.0000
  O   O35       1.0  0.64624  0.39693  0.54051  1.0000
  C   C213      1.0  0.61532  0.36071  0.57247  1.0000
  H   H71       1.0  0.61724  0.34874  0.63270  1.0000
  C   C214      1.0  0.59230  0.21079  0.34502  1.0000
  C   C215      1.0  0.62962  0.21091  0.34584  1.0000
  N   N36       1.0  0.63248  0.19682  0.42616  1.0000
  O   O36       1.0  0.57205  0.19662  0.42462  1.0000
  C   C216      1.0  0.59740  0.18646  0.46908  1.0000
  H   H72       1.0  0.59291  0.17759  0.53502  1.0000
