data_image0
_chemical_formula_structural       C2NHCHC2NHCH3C2HC2HNC5H2NHNC5H2NHC3NH5C6N2H6C6N2H6C2HCNCHNCHCNCHCNCHCNCHC3HN2H2C3HNC3NH3C3HNC3NH3N2C3H3C3H2NC3H3NC3H3NC3H3C3NH5C6N2H6C6N2H6C2HCNCHNCHCNCHCNCHCNCHC3HN2H2C3HNC3NH3C3HNC3NH3N2C3H3C3H2NC3H3NC3H3NC3H3C6N2H5C6N2H6C6N2H6CNCHCNCHCNCHCNCHCNCHCNCHC3HNC3NH3C3HNC3NH3C3HNC3NH3NC3H3NC3H3NC3H3NC3H3NC3H3NC3H3C6N2H5C6N2H6C6N2H6CNCHCNCHCNCHCNCHCNCHCNCHC3HNC3NH3C3HNC3NH3C3HNC3NH3NC3H3NC3H3NC3H3NC3H3NC3H3NC3H3
_chemical_formula_sum              "C264 N96 H216"
_cell_length_a       45.7576
_cell_length_b       45.7576
_cell_length_c       14.9271
_cell_angle_alpha    90
_cell_angle_beta     90
_cell_angle_gamma    120

_space_group_name_H-M_alt    "P 1"
_space_group_IT_number       1

loop_
  _space_group_symop_operation_xyz
  'x, y, z'

loop_
  _atom_site_type_symbol
  _atom_site_label
  _atom_site_symmetry_multiplicity
  _atom_site_fract_x
  _atom_site_fract_y
  _atom_site_fract_z
  _atom_site_occupancy
  C   C1        1.0  0.02192  0.26085  0.31612  1.0000
  C   C2        1.0  0.04375  0.29663  0.30502  1.0000
  N   N1        1.0  0.03419  0.31442  0.25069  1.0000
  H   H1        1.0  0.04875  0.33831  0.23864  1.0000
  C   C3        1.0  0.03886  0.24246  0.33496  1.0000
  H   H2        1.0  0.02581  0.21679  0.33898  1.0000
  C   C4        1.0  0.02192  0.76085  0.31612  1.0000
  C   C5        1.0  0.04375  0.79663  0.30503  1.0000
  N   N2        1.0  0.03419  0.81442  0.25069  1.0000
  H   H3        1.0  0.04875  0.83831  0.23864  1.0000
  C   C6        1.0  0.03887  0.74246  0.33496  1.0000
  H   H4        1.0  0.02581  0.71679  0.33898  1.0000
  H   H5        1.0  0.01481  0.30276  0.21115  1.0000
  H   H6        1.0  0.01481  0.80275  0.21116  1.0000
  C   C7        1.0  0.07698  0.31300  0.34261  1.0000
  C   C8        1.0  0.07286  0.25767  0.36238  1.0000
  H   H7        1.0  0.07049  0.19922  0.49445  1.0000
  C   C9        1.0  0.07698  0.81300  0.34261  1.0000
  C   C10       1.0  0.07286  0.75767  0.36238  1.0000
  H   H8        1.0  0.07049  0.69922  0.49445  1.0000
  N   N3        1.0  0.10673  0.25053  0.25789  1.0000
  C   C11       1.0  0.10040  0.34768  0.32750  1.0000
  C   C12       1.0  0.09026  0.29301  0.37811  1.0000
  C   C13       1.0  0.10821  0.23206  0.40458  1.0000
  C   C14       1.0  0.09183  0.24180  0.34019  1.0000
  C   C15       1.0  0.09533  0.22188  0.49690  1.0000
  H   H9        1.0  0.11204  0.21627  0.53627  1.0000
  H   H10       1.0  0.09309  0.24173  0.53105  1.0000
  N   N4        1.0  0.10480  0.37025  0.39330  1.0000
  H   H11       1.0  0.11080  0.41067  0.51787  1.0000
  N   N5        1.0  0.10673  0.75053  0.25789  1.0000
  C   C16       1.0  0.10041  0.84768  0.32750  1.0000
  C   C17       1.0  0.09026  0.79301  0.37811  1.0000
  C   C18       1.0  0.10821  0.73206  0.40458  1.0000
  C   C19       1.0  0.09183  0.74179  0.34019  1.0000
  C   C20       1.0  0.09533  0.72188  0.49690  1.0000
  H   H12       1.0  0.11204  0.71626  0.53627  1.0000
  H   H13       1.0  0.09309  0.74173  0.53105  1.0000
  N   N6        1.0  0.10480  0.87025  0.39330  1.0000
  H   H14       1.0  0.11080  0.91067  0.51787  1.0000
  C   C21       1.0  0.48539  0.24405  0.31618  1.0000
  C   C22       1.0  0.43022  0.19189  0.34196  1.0000
  C   C23       1.0  0.46353  0.20828  0.30473  1.0000
  N   N7        1.0  0.47315  0.19054  0.25038  1.0000
  H   H15       1.0  0.99244  0.20230  0.21067  1.0000
  H   H16       1.0  0.45839  0.16674  0.23762  1.0000
  H   H17       1.0  0.51481  0.30276  0.21115  1.0000
  H   H18       1.0  0.12979  0.33061  0.44693  1.0000
  H   H19       1.0  0.37758  0.17421  0.44697  1.0000
  C   C24       1.0  0.26354  0.24413  0.29656  1.0000
  C   C25       1.0  0.31819  0.24393  0.29826  1.0000
  C   C26       1.0  0.29932  0.26044  0.27823  1.0000
  C   C27       1.0  0.24357  0.26067  0.29614  1.0000
  C   C28       1.0  0.20781  0.24430  0.27761  1.0000
  C   C29       1.0  0.18893  0.26088  0.29674  1.0000
  N   N8        1.0  0.31523  0.29009  0.23144  1.0000
  N   N9        1.0  0.19192  0.21450  0.23147  1.0000
  H   H20       1.0  0.30229  0.29822  0.19911  1.0000
  H   H21       1.0  0.33870  0.30025  0.21319  1.0000
  H   H22       1.0  0.16849  0.20443  0.21284  1.0000
  H   H23       1.0  0.20490  0.20633  0.19951  1.0000
  H   H24       1.0  0.16566  0.30307  0.33080  1.0000
  H   H25       1.0  0.34142  0.20176  0.33309  1.0000
  C   C30       1.0  0.26150  0.02062  0.33151  1.0000
  C   C31       1.0  0.25586  0.07111  0.36113  1.0000
  C   C32       1.0  0.24370  0.03884  0.31935  1.0000
  C   C33       1.0  0.24582  0.48433  0.33132  1.0000
  C   C34       1.0  0.26360  0.46614  0.31807  1.0000
  C   C35       1.0  0.25155  0.43378  0.35929  1.0000
  N   N10       1.0  0.21602  0.02588  0.26487  1.0000
  N   N11       1.0  0.29115  0.47920  0.26308  1.0000
  H   H26       1.0  0.21075  0.50698  0.22533  1.0000
  H   H27       1.0  0.20316  0.03721  0.25487  1.0000
  H   H28       1.0  0.30385  0.46777  0.25203  1.0000
  H   H29       1.0  0.29624  0.99812  0.22380  1.0000
  H   H30       1.0  0.21908  0.37986  0.47049  1.0000
  H   H31       1.0  0.28861  0.12487  0.47285  1.0000
  C   C36       1.0  0.15299  0.24314  0.29914  1.0000
  C   C37       1.0  0.13471  0.24939  0.23285  1.0000
  H   H32       1.0  0.14559  0.25967  0.17255  1.0000
  C   C38       1.0  0.26567  0.41310  0.33890  1.0000
  N   N12       1.0  0.25336  0.36470  0.25282  1.0000
  C   C39       1.0  0.25725  0.39603  0.25593  1.0000
  H   H33       1.0  0.24715  0.40306  0.20494  1.0000
  N   N13       1.0  0.15815  0.38438  0.29122  1.0000
  C   C40       1.0  0.12859  0.35629  0.27218  1.0000
  H   H34       1.0  0.12868  0.33929  0.22782  1.0000
  C   C41       1.0  0.35413  0.26163  0.30031  1.0000
  N   N14       1.0  0.40032  0.25415  0.25876  1.0000
  C   C42       1.0  0.37226  0.25518  0.23403  1.0000
  H   H35       1.0  0.36141  0.24489  0.17370  1.0000
  C   C43       1.0  0.24181  0.09190  0.34134  1.0000
  N   N15       1.0  0.25347  0.14005  0.25486  1.0000
  C   C44       1.0  0.24968  0.10876  0.25808  1.0000
  H   H36       1.0  0.25952  0.10163  0.20665  1.0000
  C   C45       1.0  0.40684  0.15721  0.32693  1.0000
  N   N16       1.0  0.34901  0.12044  0.29141  1.0000
  C   C46       1.0  0.37851  0.14857  0.27214  1.0000
  H   H37       1.0  0.37829  0.16556  0.22800  1.0000
  C   C47       1.0  0.46848  0.26245  0.33543  1.0000
  C   C48       1.0  0.43449  0.24723  0.36266  1.0000
  C   C49       1.0  0.41702  0.21186  0.37800  1.0000
  H   H38       1.0  0.48153  0.28812  0.33942  1.0000
  N   N17       1.0  0.38775  0.19734  0.42663  1.0000
  N   N18       1.0  0.11958  0.30749  0.42649  1.0000
  H   H39       1.0  0.12759  0.29413  0.45658  1.0000
  H   H40       1.0  0.38003  0.21080  0.45748  1.0000
  C   C50       1.0  0.24772  0.20951  0.32158  1.0000
  C   C51       1.0  0.26462  0.19090  0.32191  1.0000
  C   C52       1.0  0.30051  0.20857  0.31750  1.0000
  H   H41       1.0  0.22268  0.19668  0.33774  1.0000
  N   N19       1.0  0.31730  0.19141  0.33528  1.0000
  C   C53       1.0  0.20660  0.29629  0.31531  1.0000
  C   C54       1.0  0.24251  0.31400  0.31965  1.0000
  C   C55       1.0  0.25937  0.29536  0.32036  1.0000
  N   N20       1.0  0.18979  0.31344  0.33279  1.0000
  H   H42       1.0  0.28441  0.30822  0.33661  1.0000
  H   H43       1.0  0.20112  0.33637  0.35445  1.0000
  H   H44       1.0  0.30596  0.16850  0.35701  1.0000
  C   C56       1.0  0.29633  0.04069  0.35351  1.0000
  C   C57       1.0  0.31093  0.07469  0.37900  1.0000
  C   C58       1.0  0.28926  0.08779  0.39729  1.0000
  H   H45       1.0  0.31172  0.03056  0.35655  1.0000
  N   N21       1.0  0.30247  0.11650  0.44806  1.0000
  C   C59       1.0  0.21822  0.41704  0.39591  1.0000
  C   C60       1.0  0.19650  0.43014  0.37857  1.0000
  C   C61       1.0  0.21104  0.46421  0.35383  1.0000
  N   N22       1.0  0.20515  0.38826  0.44637  1.0000
  H   H46       1.0  0.19563  0.47430  0.35732  1.0000
  H   H47       1.0  0.18348  0.37960  0.47616  1.0000
  H   H48       1.0  0.32421  0.12509  0.47746  1.0000
  N   N23       1.0  0.13849  0.23494  0.38194  1.0000
  N   N24       1.0  0.27387  0.39843  0.40639  1.0000
  C   C62       1.0  0.27398  0.36872  0.40051  1.0000
  C   C63       1.0  0.26126  0.34979  0.32033  1.0000
  C   C64       1.0  0.28029  0.35501  0.48333  1.0000
  H   H49       1.0  0.28841  0.37331  0.53795  1.0000
  H   H50       1.0  0.30012  0.34887  0.47137  1.0000
  H   H51       1.0  0.25735  0.33226  0.50439  1.0000
  C   C65       1.0  0.13367  0.40051  0.40691  1.0000
  C   C66       1.0  0.16246  0.40743  0.35508  1.0000
  C   C67       1.0  0.13524  0.42131  0.48443  1.0000
  H   H52       1.0  0.14249  0.44673  0.46197  1.0000
  H   H53       1.0  0.15375  0.42272  0.53294  1.0000
  N   N25       1.0  0.36878  0.26992  0.38294  1.0000
  C   C68       1.0  0.39909  0.27280  0.40524  1.0000
  C   C69       1.0  0.41543  0.26304  0.34082  1.0000
  C   C70       1.0  0.41210  0.28309  0.49742  1.0000
  H   H54       1.0  0.39544  0.28873  0.53694  1.0000
  H   H55       1.0  0.43693  0.30576  0.49469  1.0000
  H   H56       1.0  0.41441  0.26328  0.53159  1.0000
  N   N26       1.0  0.23391  0.10673  0.40908  1.0000
  C   C71       1.0  0.23368  0.13638  0.40325  1.0000
  C   C72       1.0  0.24591  0.15513  0.32259  1.0000
  C   C73       1.0  0.22772  0.15024  0.48632  1.0000
  H   H57       1.0  0.21979  0.13202  0.54110  1.0000
  H   H58       1.0  0.20786  0.15639  0.47496  1.0000
  H   H59       1.0  0.25075  0.17300  0.50678  1.0000
  N   N27       1.0  0.40262  0.13465  0.39258  1.0000
  C   C74       1.0  0.37380  0.10436  0.40648  1.0000
  C   C75       1.0  0.34492  0.09740  0.35507  1.0000
  C   C76       1.0  0.37241  0.08355  0.48377  1.0000
  H   H60       1.0  0.39692  0.09420  0.51683  1.0000
  H   H61       1.0  0.36514  0.05814  0.46114  1.0000
  H   H62       1.0  0.35399  0.08211  0.53264  1.0000
  C   C77       1.0  0.48539  0.74405  0.31618  1.0000
  C   C78       1.0  0.43022  0.69189  0.34197  1.0000
  C   C79       1.0  0.46353  0.70828  0.30473  1.0000
  N   N28       1.0  0.47315  0.69054  0.25038  1.0000
  H   H63       1.0  0.99244  0.70230  0.21067  1.0000
  H   H64       1.0  0.45839  0.66674  0.23762  1.0000
  H   H65       1.0  0.51481  0.80275  0.21116  1.0000
  H   H66       1.0  0.12979  0.83061  0.44693  1.0000
  H   H67       1.0  0.37758  0.67422  0.44697  1.0000
  C   C80       1.0  0.26354  0.74413  0.29656  1.0000
  C   C81       1.0  0.31819  0.74393  0.29826  1.0000
  C   C82       1.0  0.29932  0.76045  0.27823  1.0000
  C   C83       1.0  0.24357  0.76067  0.29614  1.0000
  C   C84       1.0  0.20780  0.74430  0.27761  1.0000
  C   C85       1.0  0.18893  0.76088  0.29674  1.0000
  N   N29       1.0  0.31523  0.79009  0.23144  1.0000
  N   N30       1.0  0.19192  0.71450  0.23147  1.0000
  H   H68       1.0  0.30229  0.79822  0.19911  1.0000
  H   H69       1.0  0.33870  0.80025  0.21319  1.0000
  H   H70       1.0  0.16849  0.70443  0.21284  1.0000
  H   H71       1.0  0.20490  0.70633  0.19951  1.0000
  H   H72       1.0  0.16566  0.80307  0.33080  1.0000
  H   H73       1.0  0.34142  0.70176  0.33309  1.0000
  C   C86       1.0  0.26150  0.52062  0.33151  1.0000
  C   C87       1.0  0.25586  0.57111  0.36113  1.0000
  C   C88       1.0  0.24370  0.53883  0.31935  1.0000
  C   C89       1.0  0.24582  0.98432  0.33132  1.0000
  C   C90       1.0  0.26360  0.96614  0.31807  1.0000
  C   C91       1.0  0.25155  0.93378  0.35928  1.0000
  N   N31       1.0  0.21602  0.52589  0.26487  1.0000
  N   N32       1.0  0.29115  0.97919  0.26308  1.0000
  H   H74       1.0  0.21075  0.00698  0.22533  1.0000
  H   H75       1.0  0.20316  0.53721  0.25487  1.0000
  H   H76       1.0  0.30385  0.96777  0.25203  1.0000
  H   H77       1.0  0.29624  0.49812  0.22380  1.0000
  H   H78       1.0  0.21908  0.87986  0.47049  1.0000
  H   H79       1.0  0.28861  0.62487  0.47285  1.0000
  C   C92       1.0  0.15299  0.74314  0.29914  1.0000
  C   C93       1.0  0.13470  0.74939  0.23285  1.0000
  H   H80       1.0  0.14559  0.75967  0.17255  1.0000
  C   C94       1.0  0.26568  0.91310  0.33890  1.0000
  N   N33       1.0  0.25336  0.86470  0.25282  1.0000
  C   C95       1.0  0.25725  0.89603  0.25593  1.0000
  H   H81       1.0  0.24715  0.90306  0.20494  1.0000
  N   N34       1.0  0.15815  0.88438  0.29122  1.0000
  C   C96       1.0  0.12859  0.85629  0.27218  1.0000
  H   H82       1.0  0.12868  0.83929  0.22782  1.0000
  C   C97       1.0  0.35413  0.76163  0.30031  1.0000
  N   N35       1.0  0.40032  0.75414  0.25876  1.0000
  C   C98       1.0  0.37226  0.75518  0.23403  1.0000
  H   H83       1.0  0.36141  0.74489  0.17370  1.0000
  C   C99       1.0  0.24181  0.59190  0.34134  1.0000
  N   N36       1.0  0.25347  0.64005  0.25486  1.0000
  C   C100      1.0  0.24968  0.60876  0.25808  1.0000
  H   H84       1.0  0.25952  0.60163  0.20665  1.0000
  C   C101      1.0  0.40683  0.65721  0.32693  1.0000
  N   N37       1.0  0.34901  0.62044  0.29141  1.0000
  C   C102      1.0  0.37851  0.64857  0.27214  1.0000
  H   H85       1.0  0.37829  0.66556  0.22800  1.0000
  C   C103      1.0  0.46848  0.76244  0.33543  1.0000
  C   C104      1.0  0.43449  0.74723  0.36266  1.0000
  C   C105      1.0  0.41702  0.71186  0.37800  1.0000
  H   H86       1.0  0.48153  0.78812  0.33942  1.0000
  N   N38       1.0  0.38775  0.69734  0.42663  1.0000
  N   N39       1.0  0.11958  0.80749  0.42649  1.0000
  H   H87       1.0  0.12759  0.79413  0.45658  1.0000
  H   H88       1.0  0.38003  0.71080  0.45748  1.0000
  C   C106      1.0  0.24772  0.70951  0.32158  1.0000
  C   C107      1.0  0.26462  0.69090  0.32192  1.0000
  C   C108      1.0  0.30051  0.70857  0.31750  1.0000
  H   H89       1.0  0.22267  0.69668  0.33775  1.0000
  N   N40       1.0  0.31730  0.69142  0.33528  1.0000
  C   C109      1.0  0.20660  0.79629  0.31531  1.0000
  C   C110      1.0  0.24251  0.81400  0.31965  1.0000
  C   C111      1.0  0.25937  0.79536  0.32036  1.0000
  N   N41       1.0  0.18979  0.81344  0.33279  1.0000
  H   H90       1.0  0.28441  0.80822  0.33661  1.0000
  H   H91       1.0  0.20112  0.83637  0.35445  1.0000
  H   H92       1.0  0.30596  0.66850  0.35701  1.0000
  C   C112      1.0  0.29633  0.54069  0.35351  1.0000
  C   C113      1.0  0.31093  0.57469  0.37900  1.0000
  C   C114      1.0  0.28926  0.58779  0.39729  1.0000
  H   H93       1.0  0.31172  0.53056  0.35655  1.0000
  N   N42       1.0  0.30247  0.61650  0.44806  1.0000
  C   C115      1.0  0.21822  0.91704  0.39591  1.0000
  C   C116      1.0  0.19650  0.93014  0.37857  1.0000
  C   C117      1.0  0.21104  0.96421  0.35383  1.0000
  N   N43       1.0  0.20515  0.88826  0.44637  1.0000
  H   H94       1.0  0.19563  0.97431  0.35732  1.0000
  H   H95       1.0  0.18348  0.87960  0.47616  1.0000
  H   H96       1.0  0.32421  0.62509  0.47746  1.0000
  N   N44       1.0  0.13849  0.73494  0.38194  1.0000
  N   N45       1.0  0.27387  0.89843  0.40638  1.0000
  C   C118      1.0  0.27398  0.86872  0.40051  1.0000
  C   C119      1.0  0.26126  0.84979  0.32032  1.0000
  C   C120      1.0  0.28029  0.85501  0.48333  1.0000
  H   H97       1.0  0.28841  0.87331  0.53795  1.0000
  H   H98       1.0  0.30013  0.84887  0.47137  1.0000
  H   H99       1.0  0.25735  0.83226  0.50439  1.0000
  C   C121      1.0  0.13367  0.90051  0.40691  1.0000
  C   C122      1.0  0.16246  0.90743  0.35508  1.0000
  C   C123      1.0  0.13524  0.92131  0.48443  1.0000
  H   H100      1.0  0.14249  0.94673  0.46197  1.0000
  H   H101      1.0  0.15376  0.92272  0.53294  1.0000
  N   N46       1.0  0.36878  0.76992  0.38294  1.0000
  C   C124      1.0  0.39909  0.77281  0.40525  1.0000
  C   C125      1.0  0.41543  0.76304  0.34082  1.0000
  C   C126      1.0  0.41210  0.78309  0.49743  1.0000
  H   H102      1.0  0.39544  0.78872  0.53694  1.0000
  H   H103      1.0  0.43693  0.80576  0.49469  1.0000
  H   H104      1.0  0.41441  0.76328  0.53159  1.0000
  N   N47       1.0  0.23391  0.60673  0.40908  1.0000
  C   C127      1.0  0.23368  0.63638  0.40325  1.0000
  C   C128      1.0  0.24591  0.65513  0.32259  1.0000
  C   C129      1.0  0.22771  0.65024  0.48632  1.0000
  H   H105      1.0  0.21979  0.63202  0.54110  1.0000
  H   H106      1.0  0.20786  0.65639  0.47496  1.0000
  H   H107      1.0  0.25075  0.67300  0.50678  1.0000
  N   N48       1.0  0.40262  0.63465  0.39258  1.0000
  C   C130      1.0  0.37380  0.60436  0.40648  1.0000
  C   C131      1.0  0.34492  0.59740  0.35507  1.0000
  C   C132      1.0  0.37241  0.58355  0.48377  1.0000
  H   H108      1.0  0.39692  0.59420  0.51683  1.0000
  H   H109      1.0  0.36514  0.55814  0.46114  1.0000
  H   H110      1.0  0.35399  0.58211  0.53264  1.0000
  C   C133      1.0  0.98539  0.24405  0.31618  1.0000
  C   C134      1.0  0.93022  0.19189  0.34196  1.0000
  C   C135      1.0  0.96353  0.20828  0.30473  1.0000
  C   C136      1.0  0.52192  0.26085  0.31612  1.0000
  C   C137      1.0  0.54375  0.29663  0.30502  1.0000
  C   C138      1.0  0.57698  0.31300  0.34261  1.0000
  N   N49       1.0  0.97315  0.19054  0.25038  1.0000
  N   N50       1.0  0.53419  0.31442  0.25069  1.0000
  H   H111      1.0  0.49244  0.20230  0.21067  1.0000
  H   H112      1.0  0.95839  0.16674  0.23762  1.0000
  H   H113      1.0  0.54875  0.33831  0.23864  1.0000
  H   H114      1.0  0.62979  0.33061  0.44693  1.0000
  H   H115      1.0  0.87758  0.17421  0.44697  1.0000
  C   C139      1.0  0.76354  0.24413  0.29656  1.0000
  C   C140      1.0  0.81819  0.24393  0.29826  1.0000
  C   C141      1.0  0.79932  0.26044  0.27823  1.0000
  C   C142      1.0  0.74357  0.26067  0.29614  1.0000
  C   C143      1.0  0.70780  0.24430  0.27761  1.0000
  C   C144      1.0  0.68893  0.26088  0.29674  1.0000
  N   N51       1.0  0.81523  0.29009  0.23144  1.0000
  N   N52       1.0  0.69192  0.21450  0.23147  1.0000
  H   H116      1.0  0.80229  0.29822  0.19911  1.0000
  H   H117      1.0  0.83870  0.30025  0.21319  1.0000
  H   H118      1.0  0.66849  0.20443  0.21284  1.0000
  H   H119      1.0  0.70490  0.20633  0.19951  1.0000
  H   H120      1.0  0.66566  0.30307  0.33080  1.0000
  H   H121      1.0  0.84142  0.20176  0.33309  1.0000
  C   C145      1.0  0.76150  0.02062  0.33151  1.0000
  C   C146      1.0  0.75586  0.07111  0.36113  1.0000
  C   C147      1.0  0.74370  0.03884  0.31935  1.0000
  C   C148      1.0  0.74582  0.48433  0.33132  1.0000
  C   C149      1.0  0.76360  0.46614  0.31807  1.0000
  C   C150      1.0  0.75155  0.43378  0.35929  1.0000
  N   N53       1.0  0.71602  0.02588  0.26487  1.0000
  N   N54       1.0  0.79115  0.47920  0.26308  1.0000
  H   H122      1.0  0.71075  0.50698  0.22533  1.0000
  H   H123      1.0  0.70316  0.03721  0.25487  1.0000
  H   H124      1.0  0.80385  0.46777  0.25203  1.0000
  H   H125      1.0  0.79624  0.99812  0.22380  1.0000
  H   H126      1.0  0.71908  0.37986  0.47049  1.0000
  H   H127      1.0  0.78861  0.12487  0.47285  1.0000
  C   C151      1.0  0.65299  0.24314  0.29914  1.0000
  N   N55       1.0  0.60673  0.25053  0.25789  1.0000
  C   C152      1.0  0.63470  0.24939  0.23285  1.0000
  H   H128      1.0  0.64558  0.25967  0.17255  1.0000
  C   C153      1.0  0.76568  0.41310  0.33890  1.0000
  N   N56       1.0  0.75336  0.36470  0.25282  1.0000
  C   C154      1.0  0.75725  0.39603  0.25593  1.0000
  H   H129      1.0  0.74715  0.40306  0.20494  1.0000
  C   C155      1.0  0.60041  0.34768  0.32750  1.0000
  N   N57       1.0  0.65815  0.38438  0.29122  1.0000
  C   C156      1.0  0.62859  0.35629  0.27218  1.0000
  H   H130      1.0  0.62868  0.33929  0.22782  1.0000
  C   C157      1.0  0.85413  0.26163  0.30031  1.0000
  N   N58       1.0  0.90032  0.25415  0.25876  1.0000
  C   C158      1.0  0.87226  0.25518  0.23403  1.0000
  H   H131      1.0  0.86141  0.24489  0.17370  1.0000
  C   C159      1.0  0.74181  0.09190  0.34134  1.0000
  N   N59       1.0  0.75347  0.14005  0.25486  1.0000
  C   C160      1.0  0.74968  0.10876  0.25808  1.0000
  H   H132      1.0  0.75953  0.10163  0.20665  1.0000
  C   C161      1.0  0.90684  0.15721  0.32693  1.0000
  N   N60       1.0  0.84901  0.12044  0.29141  1.0000
  C   C162      1.0  0.87851  0.14857  0.27214  1.0000
  H   H133      1.0  0.87829  0.16556  0.22800  1.0000
  C   C163      1.0  0.96849  0.26245  0.33543  1.0000
  C   C164      1.0  0.93449  0.24723  0.36266  1.0000
  C   C165      1.0  0.91702  0.21186  0.37800  1.0000
  H   H134      1.0  0.98153  0.28812  0.33942  1.0000
  N   N61       1.0  0.88775  0.19734  0.42663  1.0000
  C   C166      1.0  0.59026  0.29301  0.37811  1.0000
  C   C167      1.0  0.57286  0.25767  0.36238  1.0000
  C   C168      1.0  0.53887  0.24246  0.33496  1.0000
  N   N62       1.0  0.61958  0.30749  0.42649  1.0000
  H   H135      1.0  0.52581  0.21679  0.33898  1.0000
  H   H136      1.0  0.62759  0.29413  0.45658  1.0000
  H   H137      1.0  0.88003  0.21080  0.45748  1.0000
  C   C169      1.0  0.74772  0.20951  0.32158  1.0000
  C   C170      1.0  0.76462  0.19090  0.32191  1.0000
  C   C171      1.0  0.80051  0.20857  0.31750  1.0000
  H   H138      1.0  0.72267  0.19668  0.33774  1.0000
  N   N63       1.0  0.81730  0.19141  0.33528  1.0000
  C   C172      1.0  0.70660  0.29629  0.31531  1.0000
  C   C173      1.0  0.74251  0.31400  0.31965  1.0000
  C   C174      1.0  0.75937  0.29536  0.32036  1.0000
  N   N64       1.0  0.68979  0.31344  0.33279  1.0000
  H   H139      1.0  0.78441  0.30822  0.33661  1.0000
  H   H140      1.0  0.70112  0.33637  0.35445  1.0000
  H   H141      1.0  0.80596  0.16850  0.35701  1.0000
  C   C175      1.0  0.79633  0.04069  0.35351  1.0000
  C   C176      1.0  0.81093  0.07469  0.37900  1.0000
  C   C177      1.0  0.78926  0.08779  0.39729  1.0000
  H   H142      1.0  0.81172  0.03056  0.35655  1.0000
  N   N65       1.0  0.80247  0.11650  0.44806  1.0000
  C   C178      1.0  0.71822  0.41704  0.39591  1.0000
  C   C179      1.0  0.69649  0.43014  0.37857  1.0000
  C   C180      1.0  0.71104  0.46421  0.35383  1.0000
  N   N66       1.0  0.70515  0.38826  0.44637  1.0000
  H   H143      1.0  0.69563  0.47430  0.35732  1.0000
  H   H144      1.0  0.68348  0.37960  0.47616  1.0000
  H   H145      1.0  0.82421  0.12509  0.47746  1.0000
  N   N67       1.0  0.63848  0.23494  0.38194  1.0000
  C   C181      1.0  0.60821  0.23206  0.40458  1.0000
  C   C182      1.0  0.59183  0.24180  0.34019  1.0000
  C   C183      1.0  0.59534  0.22188  0.49690  1.0000
  H   H146      1.0  0.61204  0.21627  0.53627  1.0000
  H   H147      1.0  0.57049  0.19922  0.49445  1.0000
  H   H148      1.0  0.59309  0.24173  0.53105  1.0000
  N   N68       1.0  0.77387  0.39843  0.40639  1.0000
  C   C184      1.0  0.77398  0.36872  0.40051  1.0000
  C   C185      1.0  0.76126  0.34979  0.32033  1.0000
  C   C186      1.0  0.78029  0.35501  0.48333  1.0000
  H   H149      1.0  0.78841  0.37331  0.53795  1.0000
  H   H150      1.0  0.80013  0.34887  0.47137  1.0000
  H   H151      1.0  0.75735  0.33226  0.50439  1.0000
  N   N69       1.0  0.60480  0.37025  0.39330  1.0000
  C   C187      1.0  0.63367  0.40051  0.40691  1.0000
  C   C188      1.0  0.66246  0.40743  0.35508  1.0000
  C   C189      1.0  0.63524  0.42131  0.48443  1.0000
  H   H152      1.0  0.61080  0.41067  0.51787  1.0000
  H   H153      1.0  0.64249  0.44673  0.46197  1.0000
  H   H154      1.0  0.65375  0.42272  0.53294  1.0000
  N   N70       1.0  0.86878  0.26992  0.38294  1.0000
  C   C190      1.0  0.89909  0.27280  0.40524  1.0000
  C   C191      1.0  0.91544  0.26304  0.34082  1.0000
  C   C192      1.0  0.91210  0.28309  0.49742  1.0000
  H   H155      1.0  0.89544  0.28873  0.53694  1.0000
  H   H156      1.0  0.93693  0.30576  0.49469  1.0000
  H   H157      1.0  0.91441  0.26328  0.53159  1.0000
  N   N71       1.0  0.73391  0.10673  0.40908  1.0000
  C   C193      1.0  0.73368  0.13638  0.40325  1.0000
  C   C194      1.0  0.74591  0.15513  0.32259  1.0000
  C   C195      1.0  0.72772  0.15024  0.48632  1.0000
  H   H158      1.0  0.71979  0.13202  0.54110  1.0000
  H   H159      1.0  0.70786  0.15639  0.47496  1.0000
  H   H160      1.0  0.75075  0.17300  0.50678  1.0000
  N   N72       1.0  0.90262  0.13465  0.39258  1.0000
  C   C196      1.0  0.87380  0.10436  0.40648  1.0000
  C   C197      1.0  0.84493  0.09740  0.35507  1.0000
  C   C198      1.0  0.87241  0.08355  0.48377  1.0000
  H   H161      1.0  0.89692  0.09420  0.51683  1.0000
  H   H162      1.0  0.86514  0.05814  0.46114  1.0000
  H   H163      1.0  0.85399  0.08211  0.53264  1.0000
  C   C199      1.0  0.98539  0.74405  0.31618  1.0000
  C   C200      1.0  0.93022  0.69189  0.34197  1.0000
  C   C201      1.0  0.96353  0.70828  0.30473  1.0000
  C   C202      1.0  0.52192  0.76085  0.31612  1.0000
  C   C203      1.0  0.54375  0.79663  0.30503  1.0000
  C   C204      1.0  0.57698  0.81300  0.34261  1.0000
  N   N73       1.0  0.97315  0.69054  0.25038  1.0000
  N   N74       1.0  0.53419  0.81442  0.25069  1.0000
  H   H164      1.0  0.49244  0.70230  0.21067  1.0000
  H   H165      1.0  0.95839  0.66674  0.23762  1.0000
  H   H166      1.0  0.54875  0.83831  0.23864  1.0000
  H   H167      1.0  0.62979  0.83061  0.44693  1.0000
  H   H168      1.0  0.87758  0.67422  0.44697  1.0000
  C   C205      1.0  0.76354  0.74413  0.29656  1.0000
  C   C206      1.0  0.81819  0.74393  0.29826  1.0000
  C   C207      1.0  0.79932  0.76045  0.27823  1.0000
  C   C208      1.0  0.74357  0.76067  0.29614  1.0000
  C   C209      1.0  0.70780  0.74430  0.27761  1.0000
  C   C210      1.0  0.68893  0.76088  0.29674  1.0000
  N   N75       1.0  0.81523  0.79009  0.23144  1.0000
  N   N76       1.0  0.69192  0.71450  0.23147  1.0000
  H   H169      1.0  0.80229  0.79822  0.19911  1.0000
  H   H170      1.0  0.83870  0.80025  0.21319  1.0000
  H   H171      1.0  0.66849  0.70443  0.21284  1.0000
  H   H172      1.0  0.70490  0.70633  0.19951  1.0000
  H   H173      1.0  0.66566  0.80307  0.33080  1.0000
  H   H174      1.0  0.84142  0.70176  0.33309  1.0000
  C   C211      1.0  0.76150  0.52062  0.33151  1.0000
  C   C212      1.0  0.75586  0.57111  0.36113  1.0000
  C   C213      1.0  0.74370  0.53883  0.31935  1.0000
  C   C214      1.0  0.74582  0.98432  0.33132  1.0000
  C   C215      1.0  0.76360  0.96614  0.31807  1.0000
  C   C216      1.0  0.75155  0.93378  0.35928  1.0000
  N   N77       1.0  0.71602  0.52589  0.26487  1.0000
  N   N78       1.0  0.79115  0.97919  0.26308  1.0000
  H   H175      1.0  0.71075  0.00698  0.22533  1.0000
  H   H176      1.0  0.70316  0.53721  0.25487  1.0000
  H   H177      1.0  0.80385  0.96777  0.25203  1.0000
  H   H178      1.0  0.79625  0.49812  0.22380  1.0000
  H   H179      1.0  0.71908  0.87986  0.47049  1.0000
  H   H180      1.0  0.78861  0.62487  0.47285  1.0000
  C   C217      1.0  0.65299  0.74314  0.29914  1.0000
  N   N79       1.0  0.60673  0.75053  0.25789  1.0000
  C   C218      1.0  0.63470  0.74939  0.23285  1.0000
  H   H181      1.0  0.64558  0.75967  0.17255  1.0000
  C   C219      1.0  0.76568  0.91310  0.33890  1.0000
  N   N80       1.0  0.75336  0.86470  0.25282  1.0000
  C   C220      1.0  0.75725  0.89603  0.25593  1.0000
  H   H182      1.0  0.74715  0.90306  0.20494  1.0000
  C   C221      1.0  0.60041  0.84768  0.32750  1.0000
  N   N81       1.0  0.65815  0.88438  0.29122  1.0000
  C   C222      1.0  0.62859  0.85629  0.27218  1.0000
  H   H183      1.0  0.62868  0.83929  0.22782  1.0000
  C   C223      1.0  0.85413  0.76163  0.30031  1.0000
  N   N82       1.0  0.90032  0.75414  0.25876  1.0000
  C   C224      1.0  0.87226  0.75518  0.23403  1.0000
  H   H184      1.0  0.86141  0.74489  0.17370  1.0000
  C   C225      1.0  0.74181  0.59190  0.34134  1.0000
  N   N83       1.0  0.75347  0.64005  0.25486  1.0000
  C   C226      1.0  0.74968  0.60876  0.25808  1.0000
  H   H185      1.0  0.75952  0.60163  0.20665  1.0000
  C   C227      1.0  0.90684  0.65721  0.32693  1.0000
  N   N84       1.0  0.84901  0.62044  0.29141  1.0000
  C   C228      1.0  0.87851  0.64857  0.27214  1.0000
  H   H186      1.0  0.87829  0.66556  0.22800  1.0000
  C   C229      1.0  0.96848  0.76244  0.33543  1.0000
  C   C230      1.0  0.93449  0.74723  0.36266  1.0000
  C   C231      1.0  0.91702  0.71186  0.37800  1.0000
  H   H187      1.0  0.98153  0.78812  0.33942  1.0000
  N   N85       1.0  0.88775  0.69734  0.42663  1.0000
  C   C232      1.0  0.59026  0.79301  0.37811  1.0000
  C   C233      1.0  0.57286  0.75767  0.36238  1.0000
  C   C234      1.0  0.53887  0.74246  0.33496  1.0000
  N   N86       1.0  0.61958  0.80749  0.42649  1.0000
  H   H188      1.0  0.52581  0.71679  0.33898  1.0000
  H   H189      1.0  0.62759  0.79413  0.45658  1.0000
  H   H190      1.0  0.88003  0.71080  0.45748  1.0000
  C   C235      1.0  0.74772  0.70951  0.32158  1.0000
  C   C236      1.0  0.76462  0.69090  0.32192  1.0000
  C   C237      1.0  0.80051  0.70857  0.31750  1.0000
  H   H191      1.0  0.72267  0.69668  0.33775  1.0000
  N   N87       1.0  0.81730  0.69142  0.33528  1.0000
  C   C238      1.0  0.70660  0.79629  0.31531  1.0000
  C   C239      1.0  0.74251  0.81400  0.31965  1.0000
  C   C240      1.0  0.75937  0.79536  0.32036  1.0000
  N   N88       1.0  0.68979  0.81344  0.33279  1.0000
  H   H192      1.0  0.78441  0.80822  0.33661  1.0000
  H   H193      1.0  0.70112  0.83637  0.35445  1.0000
  H   H194      1.0  0.80596  0.66850  0.35701  1.0000
  C   C241      1.0  0.79633  0.54069  0.35351  1.0000
  C   C242      1.0  0.81093  0.57469  0.37900  1.0000
  C   C243      1.0  0.78926  0.58779  0.39729  1.0000
  H   H195      1.0  0.81172  0.53056  0.35655  1.0000
  N   N89       1.0  0.80247  0.61650  0.44806  1.0000
  C   C244      1.0  0.71822  0.91704  0.39591  1.0000
  C   C245      1.0  0.69649  0.93014  0.37857  1.0000
  C   C246      1.0  0.71104  0.96421  0.35383  1.0000
  N   N90       1.0  0.70515  0.88826  0.44637  1.0000
  H   H196      1.0  0.69563  0.97431  0.35732  1.0000
  H   H197      1.0  0.68348  0.87960  0.47616  1.0000
  H   H198      1.0  0.82421  0.62509  0.47746  1.0000
  N   N91       1.0  0.63849  0.73494  0.38194  1.0000
  C   C247      1.0  0.60821  0.73206  0.40458  1.0000
  C   C248      1.0  0.59183  0.74179  0.34019  1.0000
  C   C249      1.0  0.59533  0.72188  0.49690  1.0000
  H   H199      1.0  0.61204  0.71626  0.53627  1.0000
  H   H200      1.0  0.57049  0.69922  0.49445  1.0000
  H   H201      1.0  0.59309  0.74173  0.53105  1.0000
  N   N92       1.0  0.77387  0.89843  0.40638  1.0000
  C   C250      1.0  0.77398  0.86872  0.40051  1.0000
  C   C251      1.0  0.76126  0.84979  0.32032  1.0000
  C   C252      1.0  0.78029  0.85501  0.48333  1.0000
  H   H202      1.0  0.78841  0.87331  0.53795  1.0000
  H   H203      1.0  0.80013  0.84887  0.47137  1.0000
  H   H204      1.0  0.75735  0.83226  0.50439  1.0000
  N   N93       1.0  0.60480  0.87025  0.39330  1.0000
  C   C253      1.0  0.63367  0.90051  0.40691  1.0000
  C   C254      1.0  0.66246  0.90743  0.35508  1.0000
  C   C255      1.0  0.63524  0.92131  0.48443  1.0000
  H   H205      1.0  0.61080  0.91067  0.51787  1.0000
  H   H206      1.0  0.64249  0.94673  0.46197  1.0000
  H   H207      1.0  0.65376  0.92272  0.53294  1.0000
  N   N94       1.0  0.86878  0.76992  0.38294  1.0000
  C   C256      1.0  0.89909  0.77281  0.40525  1.0000
  C   C257      1.0  0.91544  0.76304  0.34082  1.0000
  C   C258      1.0  0.91209  0.78309  0.49743  1.0000
  H   H208      1.0  0.89544  0.78872  0.53694  1.0000
  H   H209      1.0  0.93693  0.80576  0.49469  1.0000
  H   H210      1.0  0.91441  0.76328  0.53159  1.0000
  N   N95       1.0  0.73391  0.60673  0.40908  1.0000
  C   C259      1.0  0.73368  0.63638  0.40325  1.0000
  C   C260      1.0  0.74591  0.65513  0.32259  1.0000
  C   C261      1.0  0.72772  0.65024  0.48632  1.0000
  H   H211      1.0  0.71979  0.63202  0.54110  1.0000
  H   H212      1.0  0.70786  0.65639  0.47496  1.0000
  H   H213      1.0  0.75075  0.67300  0.50678  1.0000
  N   N96       1.0  0.90262  0.63465  0.39258  1.0000
  C   C262      1.0  0.87380  0.60436  0.40648  1.0000
  C   C263      1.0  0.84492  0.59740  0.35507  1.0000
  C   C264      1.0  0.87241  0.58355  0.48377  1.0000
  H   H214      1.0  0.89692  0.59420  0.51683  1.0000
  H   H215      1.0  0.86514  0.55814  0.46114  1.0000
  H   H216      1.0  0.85399  0.58211  0.53264  1.0000
