data_image0
_chemical_formula_structural       CNHCNHCNHCNHCNHCNHC3NOCH3C3NOCH3C3NOCH3C3NOCH3C3NOCH3C3NOCH3C3NOCH3C3NOCH3C3NOCH3C3NOCH3C3NOCH3C3NOCH3NC18H12NC18H12NC18H12NC18H12NC18H12NC18H12NC18H12NC18H12NC18H12NC18H12NC18H12NC18H12C3NOCH3C3NOCH3C3NOCH3C3NOCH3C3NOCH3C3NOCH3CNHCNHCNHCNHCNHCNHCNHCNHCNHCNHCNHCNH
_chemical_formula_sum              "C306 N48 H216 O18"
_cell_length_a       63.8455
_cell_length_b       63.8455
_cell_length_c       14.7201
_cell_angle_alpha    90
_cell_angle_beta     90
_cell_angle_gamma    120

_space_group_name_H-M_alt    "P 1"
_space_group_IT_number       1

loop_
  _space_group_symop_operation_xyz
  'x, y, z'

loop_
  _atom_site_type_symbol
  _atom_site_label
  _atom_site_symmetry_multiplicity
  _atom_site_fract_x
  _atom_site_fract_y
  _atom_site_fract_z
  _atom_site_occupancy
  C   C1        1.0  0.20549  0.38025  0.27837  1.0000
  N   N1        1.0  0.21765  0.40488  0.27914  1.0000
  H   H1        1.0  0.20572  0.37183  0.21975  1.0000
  C   C2        1.0  0.63079  0.81727  0.27850  1.0000
  N   N2        1.0  0.60616  0.80481  0.27930  1.0000
  H   H2        1.0  0.63920  0.82593  0.21987  1.0000
  C   C3        1.0  0.19380  0.80557  0.27848  1.0000
  N   N3        1.0  0.20626  0.79340  0.27926  1.0000
  H   H3        1.0  0.18515  0.80534  0.21985  1.0000
  C   C4        1.0  0.81454  0.62180  0.27861  1.0000
  N   N4        1.0  0.80237  0.59718  0.27944  1.0000
  H   H4        1.0  0.81429  0.63021  0.21999  1.0000
  C   C5        1.0  0.38929  0.18482  0.27844  1.0000
  N   N5        1.0  0.41391  0.19727  0.27921  1.0000
  H   H5        1.0  0.38086  0.17617  0.21981  1.0000
  C   C6        1.0  0.82620  0.19647  0.27828  1.0000
  N   N6        1.0  0.81374  0.20863  0.27905  1.0000
  H   H6        1.0  0.83485  0.19670  0.21964  1.0000
  C   C7        1.0  0.20107  0.20304  0.26080  1.0000
  C   C8        1.0  0.19425  0.21051  0.34132  1.0000
  C   C9        1.0  0.21997  0.18443  0.34414  1.0000
  N   N7        1.0  0.21343  0.19074  0.26528  1.0000
  O   O1        1.0  0.19605  0.20794  0.17575  1.0000
  C   C10       1.0  0.17577  0.18771  0.13330  1.0000
  H   H7        1.0  0.17917  0.17272  0.12271  1.0000
  H   H8        1.0  0.17296  0.19355  0.06712  1.0000
  H   H9        1.0  0.15927  0.18148  0.17326  1.0000
  C   C11       1.0  0.80804  0.99006  0.26073  1.0000
  C   C12       1.0  0.80057  0.97578  0.34125  1.0000
  C   C13       1.0  0.82665  0.02758  0.34406  1.0000
  N   N8        1.0  0.82034  0.01472  0.26520  1.0000
  O   O2        1.0  0.80312  0.98014  0.17568  1.0000
  C   C14       1.0  0.82334  0.98006  0.13323  1.0000
  H   H10       1.0  0.83834  0.99845  0.12266  1.0000
  H   H11       1.0  0.81749  0.97141  0.06704  1.0000
  H   H12       1.0  0.82955  0.96978  0.17319  1.0000
  C   C15       1.0  0.02103  0.81002  0.26073  1.0000
  C   C16       1.0  0.03531  0.81685  0.34125  1.0000
  C   C17       1.0  0.98351  0.79114  0.34406  1.0000
  N   N9        1.0  0.99637  0.79766  0.26520  1.0000
  O   O3        1.0  0.03095  0.81502  0.17568  1.0000
  C   C18       1.0  0.03101  0.83530  0.13317  1.0000
  H   H13       1.0  0.01262  0.83190  0.12255  1.0000
  H   H14       1.0  0.03966  0.83810  0.06700  1.0000
  H   H15       1.0  0.04127  0.85180  0.17310  1.0000
  C   C19       1.0  0.81903  0.79905  0.26070  1.0000
  C   C20       1.0  0.82585  0.79159  0.34121  1.0000
  C   C21       1.0  0.80013  0.81768  0.34403  1.0000
  N   N10       1.0  0.80667  0.81135  0.26517  1.0000
  O   O4        1.0  0.82403  0.79413  0.17564  1.0000
  C   C22       1.0  0.84431  0.81435  0.13313  1.0000
  H   H16       1.0  0.84092  0.82934  0.12253  1.0000
  H   H17       1.0  0.84711  0.80850  0.06696  1.0000
  H   H18       1.0  0.86081  0.82058  0.17306  1.0000
  C   C23       1.0  0.21209  0.01203  0.26082  1.0000
  C   C24       1.0  0.21955  0.02632  0.34134  1.0000
  C   C25       1.0  0.19345  0.97452  0.34414  1.0000
  N   N11       1.0  0.19978  0.98738  0.26528  1.0000
  O   O5        1.0  0.21701  0.02196  0.17577  1.0000
  C   C26       1.0  0.19679  0.02203  0.13329  1.0000
  H   H19       1.0  0.18179  0.00365  0.12269  1.0000
  H   H20       1.0  0.20265  0.03068  0.06711  1.0000
  H   H21       1.0  0.19057  0.03231  0.17323  1.0000
  C   C27       1.0  0.99905  0.19204  0.26076  1.0000
  C   C28       1.0  0.98476  0.18524  0.34128  1.0000
  C   C29       1.0  0.03656  0.21093  0.34409  1.0000
  N   N12       1.0  0.02370  0.20440  0.26523  1.0000
  O   O6        1.0  0.98912  0.18704  0.17570  1.0000
  C   C30       1.0  0.98905  0.16675  0.13324  1.0000
  H   H22       1.0  0.00744  0.17013  0.12265  1.0000
  H   H23       1.0  0.98040  0.16395  0.06706  1.0000
  H   H24       1.0  0.97878  0.15025  0.17319  1.0000
  C   C31       1.0  0.24373  0.60869  0.26759  1.0000
  C   C32       1.0  0.24963  0.59880  0.34334  1.0000
  C   C33       1.0  0.24941  0.64304  0.35372  1.0000
  N   N13       1.0  0.24414  0.63011  0.27537  1.0000
  O   O7        1.0  0.23842  0.59804  0.18374  1.0000
  C   C34       1.0  0.21320  0.58646  0.16087  1.0000
  H   H25       1.0  0.20216  0.57236  0.20990  1.0000
  H   H26       1.0  0.21079  0.57805  0.09441  1.0000
  H   H27       1.0  0.20694  0.59955  0.15668  1.0000
  C   C35       1.0  0.40233  0.62709  0.26796  1.0000
  C   C36       1.0  0.41217  0.64289  0.34369  1.0000
  C   C37       1.0  0.36790  0.59844  0.35389  1.0000
  N   N14       1.0  0.38088  0.60609  0.27564  1.0000
  O   O8        1.0  0.41302  0.63242  0.18419  1.0000
  C   C38       1.0  0.42455  0.61872  0.16146  1.0000
  H   H28       1.0  0.43861  0.62173  0.21062  1.0000
  H   H29       1.0  0.43301  0.62472  0.09507  1.0000
  H   H30       1.0  0.41143  0.59938  0.15719  1.0000
  C   C39       1.0  0.38385  0.76710  0.26748  1.0000
  C   C40       1.0  0.36810  0.76124  0.34331  1.0000
  C   C41       1.0  0.41258  0.76150  0.35361  1.0000
  N   N15       1.0  0.40488  0.76670  0.27522  1.0000
  O   O9        1.0  0.37848  0.77234  0.18357  1.0000
  C   C42       1.0  0.39204  0.79755  0.16062  1.0000
  H   H31       1.0  0.38891  0.80857  0.20954  1.0000
  H   H32       1.0  0.38603  0.79991  0.09410  1.0000
  H   H33       1.0  0.41141  0.80389  0.15651  1.0000
  C   C43       1.0  0.77617  0.39331  0.26820  1.0000
  C   C44       1.0  0.77017  0.40312  0.34390  1.0000
  C   C45       1.0  0.77039  0.35887  0.35407  1.0000
  N   N16       1.0  0.77574  0.37187  0.27586  1.0000
  O   O10       1.0  0.78156  0.40402  0.18446  1.0000
  C   C46       1.0  0.80679  0.41553  0.16177  1.0000
  H   H34       1.0  0.81783  0.42958  0.21098  1.0000
  H   H35       1.0  0.80926  0.42401  0.09541  1.0000
  H   H36       1.0  0.81299  0.40240  0.15745  1.0000
  C   C47       1.0  0.61783  0.37479  0.26715  1.0000
  C   C48       1.0  0.60784  0.35911  0.34312  1.0000
  C   C49       1.0  0.65204  0.40362  0.35355  1.0000
  N   N17       1.0  0.63923  0.39583  0.27497  1.0000
  O   O11       1.0  0.60733  0.36934  0.18304  1.0000
  C   C50       1.0  0.59566  0.38283  0.15929  1.0000
  H   H37       1.0  0.58143  0.37970  0.20780  1.0000
  H   H38       1.0  0.58739  0.37675  0.09264  1.0000
  H   H39       1.0  0.60866  0.40220  0.15511  1.0000
  C   C51       1.0  0.63597  0.23457  0.26757  1.0000
  C   C52       1.0  0.65176  0.24047  0.34329  1.0000
  C   C53       1.0  0.60729  0.24022  0.35381  1.0000
  N   N18       1.0  0.61496  0.23498  0.27541  1.0000
  O   O12       1.0  0.64133  0.22932  0.18365  1.0000
  C   C54       1.0  0.62771  0.20411  0.16060  1.0000
  H   H40       1.0  0.63080  0.19306  0.20950  1.0000
  H   H41       1.0  0.63373  0.20175  0.09408  1.0000
  H   H42       1.0  0.60836  0.19783  0.15646  1.0000
  N   N19       1.0  0.14094  0.26210  0.34801  1.0000
  C   C55       1.0  0.11502  0.24928  0.34676  1.0000
  C   C56       1.0  0.15369  0.28802  0.35129  1.0000
  C   C57       1.0  0.15397  0.24915  0.34551  1.0000
  C   C58       1.0  0.15077  0.23215  0.41341  1.0000
  C   C59       1.0  0.16367  0.21948  0.41117  1.0000
  C   C60       1.0  0.18091  0.22350  0.34232  1.0000
  C   C61       1.0  0.18429  0.24103  0.27566  1.0000
  C   C62       1.0  0.17096  0.25327  0.27636  1.0000
  C   C63       1.0  0.10196  0.23977  0.26536  1.0000
  C   C64       1.0  0.07638  0.22746  0.26441  1.0000
  C   C65       1.0  0.06267  0.22374  0.34492  1.0000
  C   C66       1.0  0.07605  0.23322  0.42638  1.0000
  C   C67       1.0  0.10162  0.24588  0.42720  1.0000
  C   C68       1.0  0.15283  0.30175  0.27758  1.0000
  C   C69       1.0  0.16565  0.32731  0.27971  1.0000
  C   C70       1.0  0.18003  0.34041  0.35541  1.0000
  C   C71       1.0  0.18094  0.32638  0.42861  1.0000
  C   C72       1.0  0.16801  0.30081  0.42688  1.0000
  H   H43       1.0  0.06784  0.22099  0.20355  1.0000
  H   H44       1.0  0.11111  0.24200  0.20590  1.0000
  H   H45       1.0  0.11053  0.25251  0.48731  1.0000
  H   H46       1.0  0.06727  0.23122  0.48662  1.0000
  H   H47       1.0  0.13868  0.22866  0.46475  1.0000
  H   H48       1.0  0.15998  0.20688  0.46067  1.0000
  H   H49       1.0  0.14279  0.29312  0.22144  1.0000
  H   H50       1.0  0.16407  0.33632  0.22512  1.0000
  H   H51       1.0  0.19163  0.33468  0.48365  1.0000
  H   H52       1.0  0.16932  0.29147  0.48089  1.0000
  H   H53       1.0  0.17412  0.26574  0.22685  1.0000
  H   H54       1.0  0.19710  0.24568  0.22632  1.0000
  N   N20       1.0  0.74895  0.87088  0.34798  1.0000
  C   C73       1.0  0.76177  0.85777  0.34672  1.0000
  C   C74       1.0  0.72303  0.85770  0.35128  1.0000
  C   C75       1.0  0.76190  0.89686  0.34547  1.0000
  C   C76       1.0  0.77891  0.91065  0.41335  1.0000
  C   C77       1.0  0.79158  0.93622  0.41112  1.0000
  C   C78       1.0  0.78757  0.94945  0.34226  1.0000
  C   C79       1.0  0.77003  0.93530  0.27561  1.0000
  C   C80       1.0  0.75779  0.90972  0.27631  1.0000
  C   C81       1.0  0.77127  0.85421  0.26530  1.0000
  C   C82       1.0  0.78359  0.84096  0.26435  1.0000
  C   C83       1.0  0.78733  0.83098  0.34486  1.0000
  C   C84       1.0  0.77785  0.83488  0.42633  1.0000
  C   C85       1.0  0.76519  0.84779  0.42715  1.0000
  C   C86       1.0  0.70929  0.84312  0.27757  1.0000
  C   C87       1.0  0.68374  0.83039  0.27973  1.0000
  C   C88       1.0  0.67065  0.83166  0.35547  1.0000
  C   C89       1.0  0.68468  0.84658  0.42867  1.0000
  C   C90       1.0  0.71025  0.85923  0.42690  1.0000
  H   H55       1.0  0.79005  0.83888  0.20348  1.0000
  H   H56       1.0  0.76903  0.86113  0.20583  1.0000
  H   H57       1.0  0.75856  0.85007  0.48727  1.0000
  H   H58       1.0  0.77986  0.82811  0.48657  1.0000
  H   H59       1.0  0.78240  0.90205  0.46471  1.0000
  H   H60       1.0  0.80418  0.94513  0.46062  1.0000
  H   H61       1.0  0.71792  0.84172  0.22141  1.0000
  H   H62       1.0  0.67472  0.81979  0.22513  1.0000
  H   H63       1.0  0.67638  0.84897  0.48373  1.0000
  H   H64       1.0  0.71959  0.86987  0.48092  1.0000
  H   H65       1.0  0.74531  0.90042  0.22683  1.0000
  H   H66       1.0  0.76538  0.94346  0.22628  1.0000
  N   N21       1.0  0.14021  0.87014  0.34803  1.0000
  C   C91       1.0  0.15332  0.89606  0.34678  1.0000
  C   C92       1.0  0.15338  0.85738  0.35131  1.0000
  C   C93       1.0  0.11423  0.85711  0.34551  1.0000
  C   C94       1.0  0.10044  0.86033  0.41335  1.0000
  C   C95       1.0  0.07487  0.84744  0.41110  1.0000
  C   C96       1.0  0.06165  0.83019  0.34227  1.0000
  C   C97       1.0  0.07580  0.82680  0.27562  1.0000
  C   C98       1.0  0.10137  0.84013  0.27634  1.0000
  C   C99       1.0  0.15689  0.90913  0.26538  1.0000
  C   C100      1.0  0.17016  0.93470  0.26444  1.0000
  C   C101      1.0  0.18014  0.94841  0.34496  1.0000
  C   C102      1.0  0.17623  0.93502  0.42642  1.0000
  C   C103      1.0  0.16331  0.90946  0.42723  1.0000
  C   C104      1.0  0.16798  0.85824  0.27761  1.0000
  C   C105      1.0  0.18071  0.84542  0.27975  1.0000
  C   C106      1.0  0.17943  0.83104  0.35548  1.0000
  C   C107      1.0  0.16450  0.83015  0.42868  1.0000
  C   C108      1.0  0.15186  0.84307  0.42691  1.0000
  H   H67       1.0  0.17224  0.94324  0.20357  1.0000
  H   H68       1.0  0.14998  0.89997  0.20591  1.0000
  H   H69       1.0  0.16102  0.90054  0.48734  1.0000
  H   H70       1.0  0.18300  0.94380  0.48667  1.0000
  H   H71       1.0  0.10903  0.87241  0.46472  1.0000
  H   H72       1.0  0.06596  0.85113  0.46061  1.0000
  H   H73       1.0  0.16939  0.86828  0.22147  1.0000
  H   H74       1.0  0.19131  0.84700  0.22518  1.0000
  H   H75       1.0  0.16210  0.81945  0.48371  1.0000
  H   H76       1.0  0.14121  0.84177  0.48093  1.0000
  H   H77       1.0  0.11067  0.83696  0.22688  1.0000
  H   H78       1.0  0.06764  0.81398  0.22631  1.0000
  N   N22       1.0  0.87913  0.73997  0.34799  1.0000
  C   C109      1.0  0.90505  0.75278  0.34673  1.0000
  C   C110      1.0  0.86637  0.71404  0.35131  1.0000
  C   C111      1.0  0.86610  0.75292  0.34547  1.0000
  C   C112      1.0  0.86933  0.76994  0.41332  1.0000
  C   C113      1.0  0.85644  0.78262  0.41106  1.0000
  C   C114      1.0  0.83919  0.77860  0.34223  1.0000
  C   C115      1.0  0.83580  0.76106  0.27556  1.0000
  C   C116      1.0  0.84913  0.74881  0.27630  1.0000
  C   C117      1.0  0.91811  0.76228  0.26532  1.0000
  C   C118      1.0  0.94369  0.77459  0.26437  1.0000
  C   C119      1.0  0.95740  0.77833  0.34488  1.0000
  C   C120      1.0  0.94402  0.76886  0.42636  1.0000
  C   C121      1.0  0.91845  0.75620  0.42717  1.0000
  C   C122      1.0  0.86722  0.70030  0.27761  1.0000
  C   C123      1.0  0.85439  0.67475  0.27979  1.0000
  C   C124      1.0  0.84003  0.66166  0.35556  1.0000
  C   C125      1.0  0.83914  0.67570  0.42875  1.0000
  C   C126      1.0  0.85207  0.70127  0.42695  1.0000
  H   H79       1.0  0.95223  0.78105  0.20350  1.0000
  H   H80       1.0  0.90896  0.76004  0.20585  1.0000
  H   H81       1.0  0.90954  0.74958  0.48729  1.0000
  H   H82       1.0  0.95280  0.77087  0.48660  1.0000
  H   H83       1.0  0.88141  0.77342  0.46468  1.0000
  H   H84       1.0  0.86012  0.79521  0.46058  1.0000
  H   H85       1.0  0.87725  0.70892  0.22145  1.0000
  H   H86       1.0  0.85596  0.66572  0.22522  1.0000
  H   H87       1.0  0.82845  0.66741  0.48380  1.0000
  H   H88       1.0  0.85077  0.71062  0.48095  1.0000
  H   H89       1.0  0.84595  0.73633  0.22684  1.0000
  H   H90       1.0  0.82298  0.75640  0.22628  1.0000
  N   N23       1.0  0.27114  0.13122  0.34808  1.0000
  C   C127      1.0  0.25832  0.14432  0.34682  1.0000
  C   C128      1.0  0.29706  0.14439  0.35136  1.0000
  C   C129      1.0  0.25819  0.10524  0.34557  1.0000
  C   C130      1.0  0.24118  0.09144  0.41342  1.0000
  C   C131      1.0  0.22851  0.06588  0.41118  1.0000
  C   C132      1.0  0.23254  0.05265  0.34236  1.0000
  C   C133      1.0  0.25008  0.06680  0.27570  1.0000
  C   C134      1.0  0.26231  0.09237  0.27640  1.0000
  C   C135      1.0  0.24881  0.14787  0.26542  1.0000
  C   C136      1.0  0.23650  0.16113  0.26446  1.0000
  C   C137      1.0  0.23277  0.17112  0.34497  1.0000
  C   C138      1.0  0.24226  0.16723  0.42643  1.0000
  C   C139      1.0  0.25492  0.15432  0.42725  1.0000
  C   C140      1.0  0.31079  0.15899  0.27765  1.0000
  C   C141      1.0  0.33635  0.17173  0.27979  1.0000
  C   C142      1.0  0.34944  0.17044  0.35549  1.0000
  C   C143      1.0  0.33542  0.15552  0.42871  1.0000
  C   C144      1.0  0.30985  0.14287  0.42695  1.0000
  H   H91       1.0  0.23003  0.16320  0.20361  1.0000
  H   H92       1.0  0.25104  0.14095  0.20596  1.0000
  H   H93       1.0  0.26155  0.15204  0.48736  1.0000
  H   H94       1.0  0.24026  0.17401  0.48667  1.0000
  H   H95       1.0  0.23769  0.10004  0.46478  1.0000
  H   H96       1.0  0.21591  0.05696  0.46070  1.0000
  H   H97       1.0  0.30216  0.16040  0.22151  1.0000
  H   H98       1.0  0.34536  0.18232  0.22520  1.0000
  H   H99       1.0  0.34372  0.15310  0.48369  1.0000
  H   H100      1.0  0.30051  0.13220  0.48094  1.0000
  H   H101      1.0  0.27480  0.10168  0.22695  1.0000
  H   H102      1.0  0.25474  0.05865  0.22640  1.0000
  N   N24       1.0  0.87986  0.13196  0.34797  1.0000
  C   C145      1.0  0.86676  0.10604  0.34672  1.0000
  C   C146      1.0  0.86668  0.14471  0.35122  1.0000
  C   C147      1.0  0.90584  0.14499  0.34549  1.0000
  C   C148      1.0  0.91963  0.14177  0.41337  1.0000
  C   C149      1.0  0.94520  0.15466  0.41112  1.0000
  C   C150      1.0  0.95843  0.17190  0.34228  1.0000
  C   C151      1.0  0.94428  0.17529  0.27562  1.0000
  C   C152      1.0  0.91871  0.16196  0.27629  1.0000
  C   C153      1.0  0.86320  0.09298  0.26532  1.0000
  C   C154      1.0  0.84994  0.06740  0.26437  1.0000
  C   C155      1.0  0.83996  0.05369  0.34488  1.0000
  C   C156      1.0  0.84385  0.06707  0.42634  1.0000
  C   C157      1.0  0.85676  0.09264  0.42715  1.0000
  C   C158      1.0  0.85209  0.14384  0.27752  1.0000
  C   C159      1.0  0.83934  0.15665  0.27965  1.0000
  C   C160      1.0  0.84062  0.17103  0.35535  1.0000
  C   C161      1.0  0.85555  0.17195  0.42854  1.0000
  C   C162      1.0  0.86820  0.15902  0.42682  1.0000
  H   H103      1.0  0.84787  0.05886  0.20351  1.0000
  H   H104      1.0  0.87012  0.10213  0.20585  1.0000
  H   H105      1.0  0.85904  0.10155  0.48727  1.0000
  H   H106      1.0  0.83708  0.05829  0.48659  1.0000
  H   H107      1.0  0.91103  0.12969  0.46473  1.0000
  H   H108      1.0  0.95410  0.15097  0.46065  1.0000
  H   H109      1.0  0.85068  0.13380  0.22138  1.0000
  H   H110      1.0  0.82875  0.15507  0.22505  1.0000
  H   H111      1.0  0.85795  0.18265  0.48356  1.0000
  H   H112      1.0  0.87886  0.16034  0.48082  1.0000
  H   H113      1.0  0.90941  0.16514  0.22683  1.0000
  H   H114      1.0  0.95244  0.18810  0.22628  1.0000
  N   N25       1.0  0.27089  0.52243  0.34918  1.0000
  C   C163      1.0  0.29655  0.53617  0.35778  1.0000
  C   C164      1.0  0.25784  0.49663  0.35007  1.0000
  C   C165      1.0  0.25961  0.53679  0.33975  1.0000
  C   C166      1.0  0.26448  0.55147  0.26191  1.0000
  C   C167      1.0  0.26077  0.57143  0.26252  1.0000
  C   C168      1.0  0.25112  0.57702  0.33947  1.0000
  C   C169      1.0  0.24476  0.56115  0.41500  1.0000
  C   C170      1.0  0.24922  0.54163  0.41571  1.0000
  C   C171      1.0  0.31115  0.54205  0.27935  1.0000
  C   C172      1.0  0.33494  0.56185  0.27920  1.0000
  C   C173      1.0  0.34497  0.57659  0.35727  1.0000
  C   C174      1.0  0.33064  0.56964  0.43718  1.0000
  C   C175      1.0  0.30687  0.54982  0.43744  1.0000
  C   C176      1.0  0.25660  0.48322  0.27198  1.0000
  C   C177      1.0  0.24387  0.45766  0.27303  1.0000
  C   C178      1.0  0.23182  0.44433  0.35213  1.0000
  C   C179      1.0  0.23326  0.45807  0.43021  1.0000
  C   C180      1.0  0.24599  0.48363  0.42928  1.0000
  H   H115      1.0  0.34426  0.56625  0.21921  1.0000
  H   H116      1.0  0.30381  0.53337  0.21947  1.0000
  H   H117      1.0  0.29634  0.54681  0.49369  1.0000
  H   H118      1.0  0.33675  0.57984  0.49496  1.0000
  H   H119      1.0  0.27309  0.54921  0.20749  1.0000
  H   H120      1.0  0.26708  0.58289  0.20816  1.0000
  H   H121      1.0  0.26491  0.49205  0.21342  1.0000
  H   H122      1.0  0.24353  0.44885  0.21457  1.0000
  H   H123      1.0  0.22507  0.44958  0.48949  1.0000
  H   H124      1.0  0.24677  0.49277  0.48731  1.0000
  H   H125      1.0  0.24659  0.53215  0.47456  1.0000
  H   H126      1.0  0.23780  0.56428  0.47258  1.0000
  N   N26       1.0  0.48861  0.74049  0.34967  1.0000
  C   C181      1.0  0.47488  0.75243  0.35772  1.0000
  C   C182      1.0  0.51442  0.75324  0.35040  1.0000
  C   C183      1.0  0.47424  0.71485  0.34024  1.0000
  C   C184      1.0  0.45964  0.70502  0.26223  1.0000
  C   C185      1.0  0.43964  0.68138  0.26289  1.0000
  C   C186      1.0  0.43397  0.66615  0.33990  1.0000
  C   C187      1.0  0.44979  0.67567  0.41558  1.0000
  C   C188      1.0  0.46929  0.69965  0.41638  1.0000
  C   C189      1.0  0.46896  0.76108  0.27920  1.0000
  C   C190      1.0  0.44914  0.76504  0.27892  1.0000
  C   C191      1.0  0.43444  0.76044  0.35705  1.0000
  C   C192      1.0  0.44145  0.75317  0.43712  1.0000
  C   C193      1.0  0.46121  0.74914  0.43732  1.0000
  C   C194      1.0  0.52782  0.76546  0.27237  1.0000
  C   C195      1.0  0.55338  0.77829  0.27335  1.0000
  C   C196      1.0  0.56672  0.77952  0.35235  1.0000
  C   C197      1.0  0.55299  0.76716  0.43038  1.0000
  C   C198      1.0  0.52743  0.75433  0.42949  1.0000
  H   H127      1.0  0.44472  0.76992  0.21886  1.0000
  H   H128      1.0  0.47762  0.76237  0.21932  1.0000
  H   H129      1.0  0.46430  0.74176  0.49382  1.0000
  H   H130      1.0  0.43126  0.74911  0.49492  1.0000
  H   H131      1.0  0.46191  0.71588  0.20777  1.0000
  H   H132      1.0  0.42821  0.67624  0.20842  1.0000
  H   H133      1.0  0.51897  0.76498  0.21388  1.0000
  H   H134      1.0  0.56217  0.78680  0.21494  1.0000
  H   H135      1.0  0.56149  0.76742  0.48957  1.0000
  H   H136      1.0  0.51831  0.74593  0.48750  1.0000
  H   H137      1.0  0.47876  0.70649  0.47524  1.0000
  H   H138      1.0  0.44660  0.66559  0.47324  1.0000
  N   N27       1.0  0.27051  0.74010  0.34968  1.0000
  C   C199      1.0  0.25854  0.71443  0.35782  1.0000
  C   C200      1.0  0.25778  0.75318  0.35036  1.0000
  C   C201      1.0  0.29613  0.75133  0.33992  1.0000
  C   C202      1.0  0.30593  0.74648  0.26203  1.0000
  C   C203      1.0  0.32956  0.75011  0.26264  1.0000
  C   C204      1.0  0.34484  0.75979  0.33952  1.0000
  C   C205      1.0  0.33536  0.76618  0.41505  1.0000
  C   C206      1.0  0.31138  0.76169  0.41589  1.0000
  C   C207      1.0  0.24981  0.69983  0.27940  1.0000
  C   C208      1.0  0.24580  0.67603  0.27916  1.0000
  C   C209      1.0  0.25049  0.66597  0.35719  1.0000
  C   C210      1.0  0.25787  0.68029  0.43713  1.0000
  C   C211      1.0  0.26189  0.70408  0.43738  1.0000
  C   C212      1.0  0.24562  0.75442  0.27225  1.0000
  C   C213      1.0  0.23280  0.76716  0.27324  1.0000
  C   C214      1.0  0.23153  0.77922  0.35230  1.0000
  C   C215      1.0  0.24382  0.77779  0.43041  1.0000
  C   C216      1.0  0.25664  0.76504  0.42952  1.0000
  H   H139      1.0  0.24090  0.66674  0.21912  1.0000
  H   H140      1.0  0.24849  0.70719  0.21954  1.0000
  H   H141      1.0  0.26932  0.71456  0.49380  1.0000
  H   H142      1.0  0.26192  0.67415  0.49494  1.0000
  H   H143      1.0  0.29504  0.73781  0.20772  1.0000
  H   H144      1.0  0.33468  0.74376  0.20835  1.0000
  H   H145      1.0  0.24614  0.74609  0.21371  1.0000
  H   H146      1.0  0.22433  0.76749  0.21476  1.0000
  H   H147      1.0  0.24353  0.78599  0.48966  1.0000
  H   H148      1.0  0.26499  0.76427  0.48759  1.0000
  H   H149      1.0  0.30457  0.76441  0.47468  1.0000
  H   H150      1.0  0.34548  0.77316  0.47257  1.0000
  N   N28       1.0  0.74907  0.47962  0.34992  1.0000
  C   C217      1.0  0.72340  0.46592  0.35785  1.0000
  C   C218      1.0  0.76215  0.50543  0.35061  1.0000
  C   C219      1.0  0.76032  0.46523  0.34053  1.0000
  C   C220      1.0  0.75553  0.45061  0.26257  1.0000
  C   C221      1.0  0.75921  0.43064  0.26306  1.0000
  C   C222      1.0  0.76873  0.42493  0.34014  1.0000
  C   C223      1.0  0.77497  0.44072  0.41591  1.0000
  C   C224      1.0  0.77054  0.46025  0.41669  1.0000
  C   C225      1.0  0.70886  0.45997  0.27924  1.0000
  C   C226      1.0  0.68508  0.44016  0.27889  1.0000
  C   C227      1.0  0.67495  0.42548  0.35704  1.0000
  C   C228      1.0  0.68921  0.43249  0.43715  1.0000
  C   C229      1.0  0.71299  0.45227  0.43747  1.0000
  C   C230      1.0  0.76331  0.51883  0.27259  1.0000
  C   C231      1.0  0.77606  0.54439  0.27356  1.0000
  C   C232      1.0  0.78820  0.55773  0.35252  1.0000
  C   C233      1.0  0.78684  0.54400  0.43053  1.0000
  C   C234      1.0  0.77410  0.51845  0.42966  1.0000
  H   H151      1.0  0.67581  0.43574  0.21879  1.0000
  H   H152      1.0  0.71625  0.46862  0.21935  1.0000
  H   H153      1.0  0.72344  0.45538  0.49405  1.0000
  H   H154      1.0  0.68303  0.42235  0.49505  1.0000
  H   H155      1.0  0.74706  0.45297  0.20791  1.0000
  H   H156      1.0  0.75296  0.41924  0.20853  1.0000
  H   H157      1.0  0.75494  0.50998  0.21413  1.0000
  H   H158      1.0  0.77633  0.55318  0.21515  1.0000
  H   H159      1.0  0.79509  0.55250  0.48971  1.0000
  H   H160      1.0  0.77338  0.50932  0.48766  1.0000
  H   H161      1.0  0.77313  0.46968  0.47564  1.0000
  H   H162      1.0  0.78183  0.43750  0.47360  1.0000
  N   N29       1.0  0.53147  0.26147  0.34951  1.0000
  C   C235      1.0  0.54514  0.24947  0.35786  1.0000
  C   C236      1.0  0.50566  0.24876  0.35024  1.0000
  C   C237      1.0  0.54588  0.28710  0.33979  1.0000
  C   C238      1.0  0.56063  0.29682  0.26210  1.0000
  C   C239      1.0  0.58059  0.32048  0.26268  1.0000
  C   C240      1.0  0.58607  0.33582  0.33928  1.0000
  C   C241      1.0  0.57010  0.32638  0.41460  1.0000
  C   C242      1.0  0.55062  0.30239  0.41549  1.0000
  C   C243      1.0  0.55090  0.24063  0.27952  1.0000
  C   C244      1.0  0.57068  0.23661  0.27932  1.0000
  C   C245      1.0  0.58547  0.24135  0.35728  1.0000
  C   C246      1.0  0.57860  0.24882  0.43716  1.0000
  C   C247      1.0  0.55885  0.25288  0.43740  1.0000
  C   C248      1.0  0.49225  0.23669  0.27203  1.0000
  C   C249      1.0  0.46669  0.22387  0.27305  1.0000
  C   C250      1.0  0.45337  0.22253  0.35223  1.0000
  C   C251      1.0  0.46710  0.23474  0.43043  1.0000
  C   C252      1.0  0.49266  0.24754  0.42954  1.0000
  H   H163      1.0  0.57501  0.23158  0.21939  1.0000
  H   H164      1.0  0.54218  0.23925  0.21971  1.0000
  H   H165      1.0  0.55584  0.26039  0.49370  1.0000
  H   H166      1.0  0.58882  0.25291  0.49490  1.0000
  H   H167      1.0  0.55841  0.28593  0.20780  1.0000
  H   H168      1.0  0.59209  0.32560  0.20844  1.0000
  H   H169      1.0  0.50109  0.23726  0.21341  1.0000
  H   H170      1.0  0.45789  0.21547  0.21450  1.0000
  H   H171      1.0  0.45861  0.23438  0.48977  1.0000
  H   H172      1.0  0.50180  0.25583  0.48766  1.0000
  H   H173      1.0  0.54105  0.29561  0.47421  1.0000
  H   H174      1.0  0.57316  0.33653  0.47196  1.0000
  N   N30       1.0  0.74942  0.26187  0.34922  1.0000
  C   C253      1.0  0.76134  0.28753  0.35786  1.0000
  C   C254      1.0  0.76219  0.24883  0.35006  1.0000
  C   C255      1.0  0.72379  0.25060  0.33961  1.0000
  C   C256      1.0  0.71399  0.25549  0.26183  1.0000
  C   C257      1.0  0.69032  0.25175  0.26250  1.0000
  C   C258      1.0  0.67504  0.24198  0.33934  1.0000
  C   C259      1.0  0.68457  0.23560  0.41479  1.0000
  C   C260      1.0  0.70857  0.24015  0.41556  1.0000
  C   C261      1.0  0.77008  0.30215  0.27948  1.0000
  C   C262      1.0  0.77403  0.32592  0.27935  1.0000
  C   C263      1.0  0.76931  0.33594  0.35740  1.0000
  C   C264      1.0  0.76193  0.32160  0.43729  1.0000
  C   C265      1.0  0.75797  0.29783  0.43749  1.0000
  C   C266      1.0  0.77431  0.24755  0.27191  1.0000
  C   C267      1.0  0.78715  0.23483  0.27294  1.0000
  C   C268      1.0  0.78847  0.22281  0.35208  1.0000
  C   C269      1.0  0.77621  0.22429  0.43022  1.0000
  C   C270      1.0  0.76338  0.23701  0.42930  1.0000
  H   H175      1.0  0.77894  0.33524  0.21933  1.0000
  H   H176      1.0  0.77140  0.29479  0.21958  1.0000
  H   H177      1.0  0.75050  0.28730  0.49376  1.0000
  H   H178      1.0  0.75785  0.32771  0.49512  1.0000
  H   H179      1.0  0.72484  0.26410  0.20738  1.0000
  H   H180      1.0  0.68512  0.25801  0.20813  1.0000
  H   H181      1.0  0.77376  0.25583  0.21332  1.0000
  H   H182      1.0  0.79559  0.23446  0.21444  1.0000
  H   H183      1.0  0.77655  0.21613  0.48953  1.0000
  H   H184      1.0  0.75505  0.23782  0.48739  1.0000
  H   H185      1.0  0.71541  0.23747  0.47435  1.0000
  H   H186      1.0  0.67447  0.22862  0.47236  1.0000
  C   C271      1.0  0.19501  0.38073  0.43398  1.0000
  C   C272      1.0  0.19328  0.36662  0.35659  1.0000
  C   C273      1.0  0.21892  0.41824  0.35322  1.0000
  N   N31       1.0  0.20713  0.40540  0.42863  1.0000
  O   O13       1.0  0.18255  0.37009  0.51217  1.0000
  C   C274      1.0  0.19725  0.37646  0.59277  1.0000
  H   H187      1.0  0.21195  0.37247  0.58556  1.0000
  H   H188      1.0  0.18582  0.36578  0.64902  1.0000
  H   H189      1.0  0.20479  0.39556  0.60955  1.0000
  C   C275      1.0  0.63032  0.80630  0.43407  1.0000
  C   C276      1.0  0.64443  0.81869  0.35668  1.0000
  C   C277      1.0  0.59281  0.79271  0.35339  1.0000
  N   N32       1.0  0.60566  0.79375  0.42876  1.0000
  O   O14       1.0  0.64097  0.80447  0.51223  1.0000
  C   C278      1.0  0.63462  0.81281  0.59286  1.0000
  H   H190      1.0  0.63862  0.83151  0.58569  1.0000
  H   H191      1.0  0.64530  0.81205  0.64910  1.0000
  H   H192      1.0  0.61551  0.80125  0.60968  1.0000
  C   C279      1.0  0.20478  0.81607  0.43407  1.0000
  C   C280      1.0  0.19239  0.81780  0.35667  1.0000
  C   C281      1.0  0.21835  0.79213  0.35335  1.0000
  N   N33       1.0  0.21731  0.80394  0.42873  1.0000
  O   O15       1.0  0.20660  0.82854  0.51223  1.0000
  C   C282      1.0  0.19828  0.81385  0.59286  1.0000
  H   H193      1.0  0.17959  0.79915  0.58570  1.0000
  H   H194      1.0  0.19903  0.82529  0.64910  1.0000
  H   H195      1.0  0.20985  0.80632  0.60966  1.0000
  C   C283      1.0  0.82505  0.62134  0.43419  1.0000
  C   C284      1.0  0.82677  0.63544  0.35678  1.0000
  C   C285      1.0  0.80110  0.58382  0.35354  1.0000
  N   N34       1.0  0.81292  0.59667  0.42890  1.0000
  O   O16       1.0  0.83753  0.63198  0.51234  1.0000
  C   C286      1.0  0.82284  0.62565  0.59298  1.0000
  H   H196      1.0  0.80816  0.62966  0.58580  1.0000
  H   H197      1.0  0.83429  0.63633  0.64920  1.0000
  H   H198      1.0  0.81529  0.60654  0.60981  1.0000
  C   C287      1.0  0.38977  0.19578  0.43407  1.0000
  C   C288      1.0  0.37566  0.18340  0.35666  1.0000
  C   C289      1.0  0.42728  0.20935  0.35331  1.0000
  N   N35       1.0  0.41444  0.20831  0.42872  1.0000
  O   O17       1.0  0.37913  0.19759  0.51225  1.0000
  C   C290      1.0  0.38550  0.18927  0.59286  1.0000
  H   H199      1.0  0.38151  0.17058  0.58569  1.0000
  H   H200      1.0  0.37482  0.19003  0.64912  1.0000
  H   H201      1.0  0.40461  0.20085  0.60964  1.0000
  C   C291      1.0  0.81528  0.18603  0.43392  1.0000
  C   C292      1.0  0.82765  0.18428  0.35651  1.0000
  C   C293      1.0  0.80166  0.20992  0.35316  1.0000
  N   N36       1.0  0.80273  0.19814  0.42858  1.0000
  O   O18       1.0  0.81347  0.17358  0.51214  1.0000
  C   C294      1.0  0.82182  0.18829  0.59271  1.0000
  H   H202      1.0  0.84051  0.20298  0.58547  1.0000
  H   H203      1.0  0.82107  0.17686  0.64899  1.0000
  H   H204      1.0  0.81025  0.19584  0.60949  1.0000
  C   C295      1.0  0.20134  0.20382  0.42276  1.0000
  N   N37       1.0  0.21361  0.19145  0.42180  1.0000
  H   H205      1.0  0.19784  0.20861  0.48460  1.0000
  C   C296      1.0  0.80726  0.98956  0.42269  1.0000
  N   N38       1.0  0.81963  0.01419  0.42173  1.0000
  H   H206      1.0  0.80246  0.98126  0.48454  1.0000
  C   C297      1.0  0.02153  0.80977  0.42269  1.0000
  N   N39       1.0  0.99690  0.79751  0.42173  1.0000
  H   H207      1.0  0.02983  0.81328  0.48454  1.0000
  C   C298      1.0  0.81878  0.79830  0.42265  1.0000
  N   N40       1.0  0.80651  0.81066  0.42170  1.0000
  H   H208      1.0  0.82227  0.79349  0.48451  1.0000
  C   C299      1.0  0.21285  0.01254  0.42278  1.0000
  N   N41       1.0  0.20047  0.98790  0.42181  1.0000
  H   H209      1.0  0.21763  0.02083  0.48463  1.0000
  C   C300      1.0  0.99854  0.19231  0.42271  1.0000
  N   N42       1.0  0.02318  0.20458  0.42176  1.0000
  H   H210      1.0  0.99024  0.18883  0.48456  1.0000
  C   C301      1.0  0.25512  0.61259  0.42434  1.0000
  N   N43       1.0  0.25498  0.63376  0.42689  1.0000
  H   H211      1.0  0.26030  0.60748  0.48191  1.0000
  C   C302      1.0  0.39834  0.63461  0.42460  1.0000
  N   N44       1.0  0.37715  0.61331  0.42705  1.0000
  H   H212      1.0  0.40339  0.64491  0.48211  1.0000
  C   C303      1.0  0.37645  0.75584  0.42437  1.0000
  N   N45       1.0  0.39777  0.75599  0.42688  1.0000
  H   H213      1.0  0.36620  0.75071  0.48202  1.0000
  C   C304      1.0  0.76460  0.38927  0.42477  1.0000
  N   N46       1.0  0.76473  0.36809  0.42721  1.0000
  H   H214      1.0  0.75932  0.39431  0.48227  1.0000
  C   C305      1.0  0.62150  0.36754  0.42437  1.0000
  N   N47       1.0  0.64265  0.38887  0.42694  1.0000
  H   H215      1.0  0.61631  0.35734  0.48215  1.0000
  C   C306      1.0  0.64345  0.24591  0.42437  1.0000
  N   N48       1.0  0.62215  0.24578  0.42697  1.0000
  H   H216      1.0  0.65375  0.25111  0.48191  1.0000
