data_image0
_chemical_formula_structural       C2NO2C2HC6H4C6H4CHCHC6H4C5H6CNOCHC12H5C13H5CHCH2C2HC2H2C2HC2H2C2H2C2H2C3HOC4HNO2C2HC4HNO2C3NO2C2NO2C4HNO2C4HNO2C4HNO2C4HNO2C4HNO2C4HNO2H2C24H17C24H15C24H15C24H15C24H15C24H15C24H15C24H15C24H15C24H15C3NO2C4HNO2C3HNO2C4HNO2C4HNO2C4HNO2C2HC2H2CHC2H2C2HCHC2H2C2H2C2H2C2H2C2H2C2H2
_chemical_formula_sum              "C396 N18 O36 H234"
_cell_length_a       75.8262
_cell_length_b       75.8262
_cell_length_c       14.9274
_cell_angle_alpha    90
_cell_angle_beta     90
_cell_angle_gamma    120

_space_group_name_H-M_alt    "P 1"
_space_group_IT_number       1

loop_
  _space_group_symop_operation_xyz
  'x, y, z'

loop_
  _atom_site_type_symbol
  _atom_site_label
  _atom_site_symmetry_multiplicity
  _atom_site_fract_x
  _atom_site_fract_y
  _atom_site_fract_z
  _atom_site_occupancy
  C   C1        1.0  0.01005  0.80323  0.25224  1.0000
  C   C2        1.0  0.02130  0.80742  0.33332  1.0000
  N   N1        1.0  0.02047  0.81050  0.16978  1.0000
  O   O1        1.0  0.01627  0.79617  0.11600  1.0000
  O   O2        1.0  0.01629  0.82290  0.13328  1.0000
  C   C3        1.0  0.02083  0.20141  0.33785  1.0000
  C   C4        1.0  0.00987  0.19437  0.25655  1.0000
  H   H1        1.0  0.01764  0.19726  0.19736  1.0000
  C   C5        1.0  0.08661  0.23406  0.34040  1.0000
  C   C6        1.0  0.07544  0.21675  0.28526  1.0000
  C   C7        1.0  0.05399  0.20608  0.28462  1.0000
  C   C8        1.0  0.04270  0.21219  0.33919  1.0000
  C   C9        1.0  0.05388  0.22945  0.39467  1.0000
  C   C10       1.0  0.07534  0.24016  0.39511  1.0000
  H   H2        1.0  0.08284  0.21189  0.24347  1.0000
  H   H3        1.0  0.04667  0.19355  0.24427  1.0000
  H   H4        1.0  0.08269  0.25241  0.43698  1.0000
  H   H5        1.0  0.04649  0.23468  0.43442  1.0000
  C   C11       1.0  0.08692  0.84021  0.33804  1.0000
  C   C12       1.0  0.07589  0.82258  0.28442  1.0000
  C   C13       1.0  0.05444  0.81180  0.28313  1.0000
  C   C14       1.0  0.04311  0.81826  0.33506  1.0000
  C   C15       1.0  0.05404  0.83573  0.38945  1.0000
  C   C16       1.0  0.07550  0.84650  0.39067  1.0000
  H   H6        1.0  0.04715  0.79904  0.24410  1.0000
  H   H7        1.0  0.08340  0.81754  0.24428  1.0000
  H   H8        1.0  0.04644  0.84093  0.42800  1.0000
  H   H9        1.0  0.08272  0.85891  0.43180  1.0000
  C   C17       1.0  0.01037  0.80066  0.41479  1.0000
  H   H10       1.0  0.01797  0.80334  0.47440  1.0000
  C   C18       1.0  0.00935  0.19726  0.41762  1.0000
  H   H11       1.0  0.01650  0.20170  0.47836  1.0000
  C   C19       1.0  0.14129  0.24514  0.33716  1.0000
  C   C20       1.0  0.14113  0.27780  0.33791  1.0000
  C   C21       1.0  0.11957  0.26661  0.33948  1.0000
  C   C22       1.0  0.10848  0.24505  0.34005  1.0000
  C   C23       1.0  0.11971  0.23471  0.33947  1.0000
  C   C24       1.0  0.14531  0.21617  0.28457  1.0000
  H   H12       1.0  0.13242  0.21075  0.24643  1.0000
  H   H13       1.0  0.13440  0.30310  0.44074  1.0000
  H   H14       1.0  0.11194  0.21915  0.34352  1.0000
  H   H15       1.0  0.11175  0.27437  0.33715  1.0000
  C   C25       1.0  0.10880  0.85122  0.33902  1.0000
  C   C26       1.0  0.12000  0.84085  0.34070  1.0000
  C   C27       1.0  0.14157  0.85130  0.34087  1.0000
  C   C28       1.0  0.14149  0.88396  0.33823  1.0000
  C   C29       1.0  0.11993  0.87279  0.33798  1.0000
  H   H16       1.0  0.13472  0.90986  0.43669  1.0000
  H   H17       1.0  0.13443  0.81809  0.24548  1.0000
  H   H18       1.0  0.11226  0.82529  0.34488  1.0000
  H   H19       1.0  0.11215  0.88057  0.33375  1.0000
  H   H20       1.0  0.18694  0.36990  0.20208  1.0000
  H   H21       1.0  0.18532  0.80285  0.20808  1.0000
  C   C30       1.0  0.18527  0.20148  0.33013  1.0000
  N   N2        1.0  0.18674  0.20200  0.16562  1.0000
  O   O3        1.0  0.17577  0.18690  0.11685  1.0000
  C   C31       1.0  0.18531  0.97150  0.33388  1.0000
  H   H22       1.0  0.18696  0.97461  0.19288  1.0000
  C   C32       1.0  0.15161  0.26672  0.33619  1.0000
  C   C33       1.0  0.15194  0.29965  0.33835  1.0000
  C   C34       1.0  0.16874  0.31107  0.28089  1.0000
  C   C35       1.0  0.17936  0.33252  0.28189  1.0000
  C   C36       1.0  0.17375  0.34351  0.34091  1.0000
  C   C37       1.0  0.15696  0.33209  0.39844  1.0000
  C   C38       1.0  0.14625  0.31065  0.39699  1.0000
  C   C39       1.0  0.15226  0.23420  0.33577  1.0000
  C   C40       1.0  0.17045  0.24093  0.38549  1.0000
  C   C41       1.0  0.18123  0.23025  0.38367  1.0000
  C   C42       1.0  0.17430  0.21234  0.33190  1.0000
  C   C43       1.0  0.15601  0.20541  0.28311  1.0000
  H   H23       1.0  0.17595  0.25360  0.42511  1.0000
  H   H24       1.0  0.15016  0.19230  0.24631  1.0000
  H   H25       1.0  0.15215  0.33931  0.44154  1.0000
  H   H26       1.0  0.17329  0.30383  0.23657  1.0000
  H   H27       1.0  0.16719  0.27461  0.33437  1.0000
  C   C44       1.0  0.15196  0.87286  0.33955  1.0000
  C   C45       1.0  0.15250  0.84038  0.34259  1.0000
  C   C46       1.0  0.14655  0.82300  0.28815  1.0000
  C   C47       1.0  0.15727  0.81226  0.28982  1.0000
  C   C48       1.0  0.17437  0.81837  0.34628  1.0000
  C   C49       1.0  0.18032  0.83576  0.40067  1.0000
  C   C50       1.0  0.16965  0.84653  0.39878  1.0000
  C   C51       1.0  0.15239  0.90580  0.33697  1.0000
  C   C52       1.0  0.14668  0.91715  0.39329  1.0000
  C   C53       1.0  0.15751  0.93861  0.39274  1.0000
  C   C54       1.0  0.17439  0.94966  0.33518  1.0000
  C   C55       1.0  0.18003  0.93831  0.27858  1.0000
  C   C56       1.0  0.16932  0.91686  0.27972  1.0000
  H   H28       1.0  0.15267  0.94611  0.43401  1.0000
  H   H29       1.0  0.17388  0.90936  0.23697  1.0000
  H   H30       1.0  0.17441  0.85883  0.44027  1.0000
  H   H31       1.0  0.15216  0.79964  0.25014  1.0000
  H   H32       1.0  0.16754  0.88069  0.33959  1.0000
  C   C57       1.0  0.18471  0.36535  0.34295  1.0000
  H   H33       1.0  0.18644  0.36821  0.48408  1.0000
  C   C58       1.0  0.18520  0.80734  0.34855  1.0000
  H   H34       1.0  0.18664  0.19951  0.47176  1.0000
  H   H35       1.0  0.18714  0.97580  0.47488  1.0000
  C   C59       1.0  0.20145  0.39838  0.26551  1.0000
  C   C60       1.0  0.19071  0.37696  0.26318  1.0000
  H   H36       1.0  0.20515  0.40610  0.20591  1.0000
  C   C61       1.0  0.59413  0.79088  0.26939  1.0000
  C   C62       1.0  0.61554  0.80157  0.26701  1.0000
  H   H37       1.0  0.58641  0.78694  0.20979  1.0000
  H   H38       1.0  0.62260  0.80497  0.20589  1.0000
  C   C63       1.0  0.20029  0.78938  0.27146  1.0000
  C   C64       1.0  0.18959  0.80009  0.26913  1.0000
  H   H39       1.0  0.20299  0.78435  0.21217  1.0000
  C   C65       1.0  0.79691  0.58861  0.26561  1.0000
  C   C66       1.0  0.80764  0.61003  0.26314  1.0000
  H   H40       1.0  0.79324  0.58088  0.20605  1.0000
  H   H41       1.0  0.81141  0.61707  0.20199  1.0000
  C   C67       1.0  0.40415  0.19617  0.27021  1.0000
  C   C68       1.0  0.38273  0.18545  0.26806  1.0000
  H   H42       1.0  0.41183  0.20009  0.21052  1.0000
  H   H43       1.0  0.37564  0.18203  0.20702  1.0000
  C   C69       1.0  0.79651  0.19590  0.26893  1.0000
  C   C70       1.0  0.80717  0.18514  0.26659  1.0000
  H   H44       1.0  0.79258  0.19968  0.20932  1.0000
  H   H45       1.0  0.81057  0.18147  0.20549  1.0000
  C   C71       1.0  0.20713  0.17951  0.33326  1.0000
  C   C72       1.0  0.20175  0.18506  0.25155  1.0000
  C   C73       1.0  0.19104  0.19595  0.24879  1.0000
  H   H46       1.0  0.20612  0.18162  0.19228  1.0000
  O   O4        1.0  0.20275  0.21371  0.12357  1.0000
  C   C74       1.0  0.81300  0.01528  0.33455  1.0000
  C   C75       1.0  0.80889  0.00433  0.25313  1.0000
  C   C76       1.0  0.79810  0.98273  0.25032  1.0000
  C   C77       1.0  0.79100  0.97145  0.33131  1.0000
  H   H47       1.0  0.81363  0.01211  0.19391  1.0000
  N   N3        1.0  0.79498  0.97234  0.16781  1.0000
  O   O5        1.0  0.78487  0.97655  0.11397  1.0000
  O   O6        1.0  0.81157  0.97652  0.13145  1.0000
  C   C78       1.0  0.97748  0.78558  0.33628  1.0000
  C   C79       1.0  0.98845  0.79243  0.25492  1.0000
  H   H48       1.0  0.98069  0.78938  0.19565  1.0000
  C   C80       1.0  0.79124  0.80753  0.33390  1.0000
  C   C81       1.0  0.79662  0.80202  0.25210  1.0000
  C   C82       1.0  0.80733  0.79113  0.24913  1.0000
  C   C83       1.0  0.81311  0.78557  0.33037  1.0000
  H   H49       1.0  0.79227  0.80551  0.19288  1.0000
  N   N4        1.0  0.81165  0.78514  0.16585  1.0000
  O   O7        1.0  0.82262  0.80026  0.11723  1.0000
  O   O8        1.0  0.79564  0.77344  0.12374  1.0000
  C   C84       1.0  0.19109  0.98243  0.25218  1.0000
  C   C85       1.0  0.20185  0.00403  0.24938  1.0000
  C   C86       1.0  0.20730  0.01533  0.33070  1.0000
  N   N5        1.0  0.20653  0.01437  0.16609  1.0000
  O   O9        1.0  0.21768  0.01020  0.11880  1.0000
  O   O10       1.0  0.19070  0.01009  0.12253  1.0000
  C   C87       1.0  0.98827  0.18359  0.25379  1.0000
  C   C88       1.0  0.97701  0.17963  0.33471  1.0000
  N   N6        1.0  0.97787  0.17611  0.17144  1.0000
  O   O11       1.0  0.98209  0.19029  0.11678  1.0000
  O   O12       1.0  0.98202  0.16359  0.13605  1.0000
  C   C89       1.0  0.22372  0.62425  0.33078  1.0000
  C   C90       1.0  0.21615  0.61111  0.25586  1.0000
  C   C91       1.0  0.21635  0.59254  0.25228  1.0000
  C   C92       1.0  0.22407  0.58667  0.32624  1.0000
  H   H50       1.0  0.21108  0.61541  0.20107  1.0000
  N   N7        1.0  0.20917  0.57990  0.17546  1.0000
  O   O13       1.0  0.21905  0.58901  0.10648  1.0000
  O   O14       1.0  0.19065  0.57377  0.16171  1.0000
  C   C93       1.0  0.36818  0.58728  0.33601  1.0000
  C   C94       1.0  0.38150  0.59268  0.26180  1.0000
  C   C95       1.0  0.40010  0.61142  0.25827  1.0000
  C   C96       1.0  0.40582  0.62516  0.33160  1.0000
  H   H51       1.0  0.37733  0.58319  0.20746  1.0000
  N   N8        1.0  0.41289  0.61674  0.18203  1.0000
  O   O15       1.0  0.40394  0.61740  0.11233  1.0000
  O   O16       1.0  0.41903  0.60430  0.16962  1.0000
  C   C97       1.0  0.40523  0.76855  0.34168  1.0000
  C   C98       1.0  0.39998  0.77682  0.26832  1.0000
  C   C99       1.0  0.38122  0.77665  0.26497  1.0000
  C   C100      1.0  0.36733  0.76824  0.33763  1.0000
  H   H52       1.0  0.40955  0.78237  0.21435  1.0000
  N   N9        1.0  0.37605  0.78449  0.18958  1.0000
  O   O17       1.0  0.37556  0.77524  0.11888  1.0000
  O   O18       1.0  0.38847  0.80313  0.17900  1.0000
  C   C101      1.0  0.77436  0.36257  0.33644  1.0000
  C   C102      1.0  0.78233  0.37584  0.26212  1.0000
  C   C103      1.0  0.78224  0.39447  0.25828  1.0000
  C   C104      1.0  0.77423  0.40026  0.33140  1.0000
  H   H53       1.0  0.78763  0.37162  0.20791  1.0000
  N   N10       1.0  0.78978  0.40723  0.18194  1.0000
  O   O19       1.0  0.78017  0.39826  0.11222  1.0000
  O   O20       1.0  0.80834  0.41331  0.16974  1.0000
  C   C105      1.0  0.63026  0.39973  0.33607  1.0000
  C   C106      1.0  0.61694  0.39439  0.26185  1.0000
  C   C107      1.0  0.59833  0.37567  0.25820  1.0000
  C   C108      1.0  0.59258  0.36190  0.33143  1.0000
  H   H54       1.0  0.62115  0.40389  0.20753  1.0000
  N   N11       1.0  0.58553  0.37042  0.18198  1.0000
  O   O21       1.0  0.59448  0.36977  0.11219  1.0000
  O   O22       1.0  0.57944  0.38288  0.16978  1.0000
  C   C109      1.0  0.59297  0.21830  0.33639  1.0000
  C   C110      1.0  0.59830  0.21035  0.26209  1.0000
  C   C111      1.0  0.61701  0.21043  0.25837  1.0000
  C   C112      1.0  0.63079  0.21843  0.33157  1.0000
  H   H55       1.0  0.58879  0.20504  0.20784  1.0000
  N   N12       1.0  0.62225  0.20290  0.18208  1.0000
  O   O23       1.0  0.62291  0.21251  0.11235  1.0000
  O   O24       1.0  0.60977  0.18434  0.16983  1.0000
  H   H56       1.0  0.19438  0.23582  0.42006  1.0000
  H   H57       1.0  0.19156  0.34007  0.23987  1.0000
  C   C113      1.0  0.74730  0.88394  0.33701  1.0000
  C   C114      1.0  0.72573  0.87268  0.33880  1.0000
  C   C115      1.0  0.71468  0.85112  0.34004  1.0000
  C   C116      1.0  0.72589  0.84078  0.33974  1.0000
  C   C117      1.0  0.74745  0.85128  0.33782  1.0000
  C   C118      1.0  0.75779  0.87285  0.33631  1.0000
  C   C119      1.0  0.69283  0.84010  0.34153  1.0000
  C   C120      1.0  0.68137  0.84563  0.28510  1.0000
  C   C121      1.0  0.65991  0.83476  0.28633  1.0000
  C   C122      1.0  0.64899  0.81800  0.34462  1.0000
  C   C123      1.0  0.66046  0.81251  0.40120  1.0000
  C   C124      1.0  0.68191  0.82327  0.39942  1.0000
  C   C125      1.0  0.75814  0.90581  0.33606  1.0000
  C   C126      1.0  0.75159  0.91684  0.28213  1.0000
  C   C127      1.0  0.76227  0.93829  0.28077  1.0000
  C   C128      1.0  0.78002  0.94964  0.33296  1.0000
  C   C129      1.0  0.78649  0.93870  0.38767  1.0000
  C   C130      1.0  0.77580  0.91725  0.38901  1.0000
  C   C131      1.0  0.75843  0.84041  0.33707  1.0000
  C   C132      1.0  0.77509  0.84601  0.27850  1.0000
  C   C133      1.0  0.78578  0.83525  0.27742  1.0000
  C   C134      1.0  0.78039  0.81851  0.33536  1.0000
  C   C135      1.0  0.76381  0.81300  0.39434  1.0000
  C   C136      1.0  0.75301  0.82366  0.39490  1.0000
  H   H58       1.0  0.75683  0.94558  0.24154  1.0000
  H   H59       1.0  0.73908  0.90933  0.24181  1.0000
  H   H60       1.0  0.79927  0.94630  0.42645  1.0000
  H   H61       1.0  0.78095  0.91004  0.43042  1.0000
  H   H62       1.0  0.77942  0.85783  0.23456  1.0000
  H   H63       1.0  0.79781  0.83999  0.23434  1.0000
  H   H64       1.0  0.74124  0.81918  0.43925  1.0000
  H   H65       1.0  0.75914  0.80084  0.43662  1.0000
  H   H66       1.0  0.68951  0.81885  0.44230  1.0000
  H   H67       1.0  0.65328  0.80035  0.44371  1.0000
  H   H68       1.0  0.65232  0.83950  0.24505  1.0000
  H   H69       1.0  0.68856  0.85753  0.24127  1.0000
  H   H70       1.0  0.71786  0.88038  0.34229  1.0000
  H   H71       1.0  0.77337  0.88067  0.33471  1.0000
  H   H72       1.0  0.71815  0.82519  0.33778  1.0000
  H   H73       1.0  0.19228  0.94559  0.23663  1.0000
  H   H74       1.0  0.19275  0.84099  0.44165  1.0000
  C   C137      1.0  0.85706  0.74188  0.33640  1.0000
  C   C138      1.0  0.84673  0.72030  0.33557  1.0000
  C   C139      1.0  0.85720  0.70920  0.33718  1.0000
  C   C140      1.0  0.87876  0.72038  0.33849  1.0000
  C   C141      1.0  0.88985  0.74194  0.33886  1.0000
  C   C142      1.0  0.87864  0.75230  0.33837  1.0000
  C   C143      1.0  0.84638  0.68736  0.33781  1.0000
  C   C144      1.0  0.82955  0.67593  0.28049  1.0000
  C   C145      1.0  0.81894  0.65447  0.28158  1.0000
  C   C146      1.0  0.82457  0.64350  0.34066  1.0000
  C   C147      1.0  0.84138  0.65494  0.39808  1.0000
  C   C148      1.0  0.85208  0.67639  0.39651  1.0000
  C   C149      1.0  0.84610  0.75283  0.33528  1.0000
  C   C150      1.0  0.82794  0.74611  0.38522  1.0000
  C   C151      1.0  0.81716  0.75679  0.38360  1.0000
  C   C152      1.0  0.82408  0.77470  0.33194  1.0000
  C   C153      1.0  0.84235  0.78164  0.28300  1.0000
  C   C154      1.0  0.85304  0.77087  0.28420  1.0000
  C   C155      1.0  0.91171  0.75292  0.33900  1.0000
  C   C156      1.0  0.92287  0.77013  0.28334  1.0000
  C   C157      1.0  0.94432  0.78080  0.28258  1.0000
  C   C158      1.0  0.95561  0.77477  0.33756  1.0000
  C   C159      1.0  0.94445  0.75760  0.39351  1.0000
  C   C160      1.0  0.92299  0.74689  0.39404  1.0000
  H   H75       1.0  0.80402  0.75121  0.42011  1.0000
  H   H76       1.0  0.82245  0.73342  0.42473  1.0000
  H   H77       1.0  0.84819  0.79476  0.24628  1.0000
  H   H78       1.0  0.86590  0.77629  0.24591  1.0000
  H   H79       1.0  0.91546  0.77494  0.24134  1.0000
  H   H80       1.0  0.95163  0.79327  0.24187  1.0000
  H   H81       1.0  0.91565  0.73470  0.43626  1.0000
  H   H82       1.0  0.95186  0.75244  0.43359  1.0000
  H   H83       1.0  0.86396  0.68395  0.44012  1.0000
  H   H84       1.0  0.84620  0.64773  0.44119  1.0000
  H   H85       1.0  0.80673  0.64690  0.23968  1.0000
  H   H86       1.0  0.82500  0.68315  0.23612  1.0000
  H   H87       1.0  0.83115  0.71241  0.33396  1.0000
  H   H88       1.0  0.88643  0.76785  0.34233  1.0000
  H   H89       1.0  0.88657  0.71262  0.33614  1.0000
  C   C161      1.0  0.25100  0.10300  0.33711  1.0000
  C   C162      1.0  0.27257  0.11427  0.34009  1.0000
  C   C163      1.0  0.28364  0.13584  0.34122  1.0000
  C   C164      1.0  0.27245  0.14620  0.34014  1.0000
  C   C165      1.0  0.25090  0.13571  0.33727  1.0000
  C   C166      1.0  0.24056  0.11415  0.33533  1.0000
  C   C167      1.0  0.30548  0.14683  0.34303  1.0000
  C   C168      1.0  0.31696  0.14128  0.28677  1.0000
  C   C169      1.0  0.33841  0.15217  0.28794  1.0000
  C   C170      1.0  0.34932  0.16898  0.34600  1.0000
  C   C171      1.0  0.33785  0.17448  0.40250  1.0000
  C   C172      1.0  0.31639  0.16370  0.40075  1.0000
  C   C173      1.0  0.24013  0.08108  0.33594  1.0000
  C   C174      1.0  0.24729  0.07003  0.28586  1.0000
  C   C175      1.0  0.23667  0.04858  0.28462  1.0000
  C   C176      1.0  0.21825  0.03718  0.33246  1.0000
  C   C177      1.0  0.21112  0.04812  0.38316  1.0000
  C   C178      1.0  0.22182  0.06958  0.38486  1.0000
  C   C179      1.0  0.23995  0.14662  0.33625  1.0000
  C   C180      1.0  0.22336  0.14110  0.27733  1.0000
  C   C181      1.0  0.21267  0.15187  0.27628  1.0000
  C   C182      1.0  0.21800  0.16853  0.33455  1.0000
  C   C183      1.0  0.23452  0.17398  0.39382  1.0000
  C   C184      1.0  0.24531  0.16331  0.39440  1.0000
  H   H90       1.0  0.24267  0.04134  0.24863  1.0000
  H   H91       1.0  0.26027  0.07752  0.24836  1.0000
  H   H92       1.0  0.19786  0.04052  0.41886  1.0000
  H   H93       1.0  0.21617  0.07672  0.42373  1.0000
  H   H94       1.0  0.21906  0.12932  0.23321  1.0000
  H   H95       1.0  0.20069  0.14717  0.23300  1.0000
  H   H96       1.0  0.25702  0.16772  0.43904  1.0000
  H   H97       1.0  0.23915  0.18608  0.43637  1.0000
  H   H98       1.0  0.30879  0.16815  0.44345  1.0000
  H   H99       1.0  0.34503  0.18667  0.44483  1.0000
  H   H100      1.0  0.34601  0.14744  0.24668  1.0000
  H   H101      1.0  0.30977  0.12937  0.24298  1.0000
  H   H102      1.0  0.28044  0.10660  0.34459  1.0000
  H   H103      1.0  0.22499  0.10637  0.33273  1.0000
  H   H104      1.0  0.28021  0.16179  0.33822  1.0000
  C   C185      1.0  0.88950  0.13577  0.33906  1.0000
  C   C186      1.0  0.87823  0.14607  0.34000  1.0000
  C   C187      1.0  0.85667  0.13553  0.34044  1.0000
  C   C188      1.0  0.84635  0.11398  0.33990  1.0000
  C   C189      1.0  0.85686  0.10293  0.33891  1.0000
  C   C190      1.0  0.87843  0.11419  0.33845  1.0000
  C   C191      1.0  0.84564  0.14634  0.34154  1.0000
  C   C192      1.0  0.85123  0.16336  0.28521  1.0000
  C   C193      1.0  0.84036  0.17395  0.28628  1.0000
  C   C194      1.0  0.82355  0.16809  0.34428  1.0000
  C   C195      1.0  0.81800  0.15109  0.40074  1.0000
  C   C196      1.0  0.82875  0.14040  0.39913  1.0000
  C   C197      1.0  0.91138  0.14683  0.33866  1.0000
  C   C198      1.0  0.92243  0.16434  0.28438  1.0000
  C   C199      1.0  0.94388  0.17514  0.28343  1.0000
  C   C200      1.0  0.95520  0.16881  0.33631  1.0000
  C   C201      1.0  0.94424  0.15148  0.39138  1.0000
  C   C202      1.0  0.92278  0.14070  0.39235  1.0000
  C   C203      1.0  0.84598  0.08106  0.33806  1.0000
  C   C204      1.0  0.85202  0.06997  0.28181  1.0000
  C   C205      1.0  0.84127  0.04852  0.28073  1.0000
  C   C206      1.0  0.82402  0.03715  0.33601  1.0000
  C   C207      1.0  0.81804  0.04825  0.39251  1.0000
  C   C208      1.0  0.82875  0.06970  0.39343  1.0000
  H   H105      1.0  0.95119  0.18781  0.24385  1.0000
  H   H106      1.0  0.91494  0.16928  0.24356  1.0000
  H   H107      1.0  0.95182  0.14637  0.43064  1.0000
  H   H108      1.0  0.91555  0.12838  0.43396  1.0000
  H   H109      1.0  0.86419  0.07744  0.23961  1.0000
  H   H110      1.0  0.84642  0.04127  0.23964  1.0000
  H   H111      1.0  0.82393  0.07697  0.43619  1.0000
  H   H112      1.0  0.80552  0.04079  0.43284  1.0000
  H   H113      1.0  0.82429  0.12836  0.44192  1.0000
  H   H114      1.0  0.80580  0.14611  0.44303  1.0000
  H   H115      1.0  0.84513  0.18630  0.24508  1.0000
  H   H116      1.0  0.86317  0.16809  0.24164  1.0000
  H   H117      1.0  0.88592  0.16164  0.34363  1.0000
  H   H118      1.0  0.88629  0.10646  0.33762  1.0000
  H   H119      1.0  0.83077  0.10615  0.33709  1.0000
  C   C209      1.0  0.25160  0.52950  0.32923  1.0000
  C   C210      1.0  0.24090  0.50803  0.33642  1.0000
  C   C211      1.0  0.25122  0.49674  0.34224  1.0000
  C   C212      1.0  0.27286  0.50776  0.34256  1.0000
  C   C213      1.0  0.28392  0.52919  0.33479  1.0000
  C   C214      1.0  0.27308  0.53976  0.32935  1.0000
  C   C215      1.0  0.24013  0.47485  0.34439  1.0000
  C   C216      1.0  0.22189  0.46391  0.39424  1.0000
  C   C217      1.0  0.21090  0.44245  0.39507  1.0000
  C   C218      1.0  0.21778  0.43099  0.34675  1.0000
  C   C219      1.0  0.23590  0.44184  0.29629  1.0000
  C   C220      1.0  0.24681  0.46329  0.29512  1.0000
  C   C221      1.0  0.24167  0.54116  0.32093  1.0000
  C   C222      1.0  0.22820  0.54063  0.38781  1.0000
  C   C223      1.0  0.22163  0.55505  0.38803  1.0000
  C   C224      1.0  0.22807  0.57019  0.32075  1.0000
  C   C225      1.0  0.24100  0.57023  0.25240  1.0000
  C   C226      1.0  0.24756  0.55589  0.25212  1.0000
  C   C227      1.0  0.30552  0.54054  0.32978  1.0000
  C   C228      1.0  0.31491  0.55305  0.25439  1.0000
  C   C229      1.0  0.33574  0.56764  0.25532  1.0000
  C   C230      1.0  0.34790  0.57032  0.33175  1.0000
  C   C231      1.0  0.33857  0.55722  0.40586  1.0000
  C   C232      1.0  0.31768  0.54246  0.40487  1.0000
  H   H120      1.0  0.21268  0.55489  0.43970  1.0000
  H   H121      1.0  0.22422  0.53066  0.44029  1.0000
  H   H122      1.0  0.24678  0.58146  0.20486  1.0000
  H   H123      1.0  0.25762  0.55701  0.20359  1.0000
  H   H124      1.0  0.30639  0.55249  0.20008  1.0000
  H   H125      1.0  0.34156  0.57730  0.20172  1.0000
  H   H126      1.0  0.31117  0.53413  0.46160  1.0000
  H   H127      1.0  0.34677  0.55885  0.46278  1.0000
  H   H128      1.0  0.25960  0.47037  0.25615  1.0000
  H   H129      1.0  0.24144  0.43418  0.26027  1.0000
  H   H130      1.0  0.19764  0.43525  0.43091  1.0000
  H   H131      1.0  0.21645  0.47148  0.43159  1.0000
  H   H132      1.0  0.22533  0.50052  0.33323  1.0000
  H   H133      1.0  0.28106  0.55536  0.32584  1.0000
  H   H134      1.0  0.28079  0.50014  0.34714  1.0000
  C   C233      1.0  0.46301  0.70983  0.33275  1.0000
  C   C234      1.0  0.48448  0.72058  0.33996  1.0000
  C   C235      1.0  0.49578  0.74219  0.34582  1.0000
  C   C236      1.0  0.48476  0.75282  0.34623  1.0000
  C   C237      1.0  0.46334  0.74246  0.33838  1.0000
  C   C238      1.0  0.45276  0.72104  0.33274  1.0000
  C   C239      1.0  0.51767  0.75299  0.34809  1.0000
  C   C240      1.0  0.52860  0.74564  0.39774  1.0000
  C   C241      1.0  0.55005  0.75611  0.39864  1.0000
  C   C242      1.0  0.56153  0.77450  0.35064  1.0000
  C   C243      1.0  0.55069  0.78181  0.30041  1.0000
  C   C244      1.0  0.52924  0.77127  0.29912  1.0000
  C   C245      1.0  0.45135  0.68823  0.32487  1.0000
  C   C246      1.0  0.45183  0.67539  0.39239  1.0000
  C   C247      1.0  0.43739  0.65440  0.39312  1.0000
  C   C248      1.0  0.42229  0.64563  0.32577  1.0000
  C   C249      1.0  0.42230  0.65841  0.25675  1.0000
  C   C250      1.0  0.43665  0.67931  0.25601  1.0000
  C   C251      1.0  0.45200  0.75272  0.33389  1.0000
  C   C252      1.0  0.43952  0.74974  0.25857  1.0000
  C   C253      1.0  0.42494  0.75600  0.25994  1.0000
  C   C254      1.0  0.42222  0.76530  0.33691  1.0000
  C   C255      1.0  0.43528  0.76891  0.41103  1.0000
  C   C256      1.0  0.45006  0.76282  0.40950  1.0000
  H   H135      1.0  0.43750  0.64569  0.44525  1.0000
  H   H136      1.0  0.46176  0.68145  0.44493  1.0000
  H   H137      1.0  0.41110  0.65288  0.20907  1.0000
  H   H138      1.0  0.43556  0.68818  0.20708  1.0000
  H   H139      1.0  0.44011  0.74189  0.20387  1.0000
  H   H140      1.0  0.41530  0.75227  0.20635  1.0000
  H   H141      1.0  0.45833  0.76448  0.46623  1.0000
  H   H142      1.0  0.43359  0.77532  0.46835  1.0000
  H   H143      1.0  0.52217  0.77701  0.26028  1.0000
  H   H144      1.0  0.55835  0.79505  0.26460  1.0000
  H   H145      1.0  0.55724  0.75001  0.43429  1.0000
  H   H146      1.0  0.52102  0.73261  0.43489  1.0000
  H   H147      1.0  0.49198  0.71251  0.33687  1.0000
  H   H148      1.0  0.43715  0.71342  0.32922  1.0000
  H   H149      1.0  0.49239  0.76836  0.35102  1.0000
  C   C257      1.0  0.28260  0.74064  0.33542  1.0000
  C   C258      1.0  0.27193  0.75140  0.34390  1.0000
  C   C259      1.0  0.25030  0.74118  0.34638  1.0000
  C   C260      1.0  0.23951  0.71956  0.34243  1.0000
  C   C261      1.0  0.24980  0.70843  0.33435  1.0000
  C   C262      1.0  0.27126  0.71918  0.33179  1.0000
  C   C263      1.0  0.23963  0.75236  0.34937  1.0000
  C   C264      1.0  0.24592  0.77002  0.29636  1.0000
  C   C265      1.0  0.23526  0.78081  0.29776  1.0000
  C   C266      1.0  0.21788  0.77440  0.35245  1.0000
  C   C267      1.0  0.21143  0.75668  0.40492  1.0000
  C   C268      1.0  0.22212  0.74592  0.40356  1.0000
  C   C269      1.0  0.30423  0.75052  0.32938  1.0000
  C   C270      1.0  0.31685  0.76348  0.39829  1.0000
  C   C271      1.0  0.33785  0.77007  0.39968  1.0000
  C   C272      1.0  0.34685  0.76419  0.33152  1.0000
  C   C273      1.0  0.33427  0.75180  0.26117  1.0000
  C   C274      1.0  0.31337  0.74520  0.25979  1.0000
  C   C275      1.0  0.23948  0.68687  0.32710  1.0000
  C   C276      1.0  0.24312  0.67778  0.25201  1.0000
  C   C277      1.0  0.23689  0.65694  0.25183  1.0000
  C   C278      1.0  0.22695  0.64450  0.32698  1.0000
  C   C279      1.0  0.22267  0.65352  0.40073  1.0000
  C   C280      1.0  0.22872  0.67439  0.40069  1.0000
  H   H150      1.0  0.34641  0.77861  0.45273  1.0000
  H   H151      1.0  0.31064  0.76702  0.45131  1.0000
  H   H152      1.0  0.33996  0.74645  0.21276  1.0000
  H   H153      1.0  0.30467  0.73555  0.20963  1.0000
  H   H154      1.0  0.25143  0.68651  0.19880  1.0000
  H   H155      1.0  0.24107  0.65133  0.19863  1.0000
  H   H156      1.0  0.22662  0.68068  0.45750  1.0000
  H   H157      1.0  0.21579  0.64512  0.45683  1.0000
  H   H158      1.0  0.21702  0.73334  0.44356  1.0000
  H   H159      1.0  0.19869  0.75128  0.44405  1.0000
  H   H160      1.0  0.24044  0.79354  0.25865  1.0000
  H   H161      1.0  0.25818  0.77504  0.25443  1.0000
  H   H162      1.0  0.28011  0.76697  0.34699  1.0000
  H   H163      1.0  0.27882  0.71114  0.32779  1.0000
  H   H164      1.0  0.22393  0.71177  0.34142  1.0000
  C   C281      1.0  0.74683  0.45751  0.33110  1.0000
  C   C282      1.0  0.75753  0.47898  0.33803  1.0000
  C   C283      1.0  0.74720  0.49027  0.34314  1.0000
  C   C284      1.0  0.72556  0.47925  0.34304  1.0000
  C   C285      1.0  0.71451  0.45782  0.33553  1.0000
  C   C286      1.0  0.72536  0.44724  0.33068  1.0000
  C   C287      1.0  0.75828  0.51216  0.34508  1.0000
  C   C288      1.0  0.77650  0.52314  0.39505  1.0000
  C   C289      1.0  0.78748  0.54460  0.39568  1.0000
  C   C290      1.0  0.78061  0.55603  0.34705  1.0000
  C   C291      1.0  0.76251  0.54515  0.29648  1.0000
  C   C292      1.0  0.75161  0.52370  0.29547  1.0000
  C   C293      1.0  0.75678  0.44585  0.32359  1.0000
  C   C294      1.0  0.77004  0.44633  0.39140  1.0000
  C   C295      1.0  0.77656  0.43187  0.39250  1.0000
  C   C296      1.0  0.77026  0.41675  0.32520  1.0000
  C   C297      1.0  0.75759  0.41679  0.25582  1.0000
  C   C298      1.0  0.75106  0.43116  0.25475  1.0000
  C   C299      1.0  0.69292  0.44646  0.33018  1.0000
  C   C300      1.0  0.68356  0.43393  0.25481  1.0000
  C   C301      1.0  0.66273  0.41932  0.25565  1.0000
  C   C302      1.0  0.65054  0.41668  0.33187  1.0000
  C   C303      1.0  0.65982  0.42981  0.40593  1.0000
  C   C304      1.0  0.68071  0.44457  0.40508  1.0000
  H   H165      1.0  0.78529  0.43194  0.44492  1.0000
  H   H166      1.0  0.77384  0.45623  0.44404  1.0000
  H   H167      1.0  0.75194  0.40558  0.20820  1.0000
  H   H168      1.0  0.74115  0.43008  0.20560  1.0000
  H   H169      1.0  0.69211  0.43447  0.20065  1.0000
  H   H170      1.0  0.65693  0.40967  0.20201  1.0000
  H   H171      1.0  0.68719  0.45288  0.46188  1.0000
  H   H172      1.0  0.65160  0.42817  0.46280  1.0000
  H   H173      1.0  0.73885  0.51659  0.25638  1.0000
  H   H174      1.0  0.75698  0.55278  0.26020  1.0000
  H   H175      1.0  0.80073  0.55182  0.43160  1.0000
  H   H176      1.0  0.78192  0.51560  0.43265  1.0000
  H   H177      1.0  0.77310  0.48649  0.33520  1.0000
  H   H178      1.0  0.71739  0.43164  0.32728  1.0000
  H   H179      1.0  0.71761  0.48686  0.34724  1.0000
  C   C305      1.0  0.53531  0.27725  0.33216  1.0000
  C   C306      1.0  0.51385  0.26649  0.33981  1.0000
  C   C307      1.0  0.50256  0.24488  0.34526  1.0000
  C   C308      1.0  0.51358  0.23425  0.34486  1.0000
  C   C309      1.0  0.53499  0.24462  0.33664  1.0000
  C   C310      1.0  0.54557  0.26604  0.33143  1.0000
  C   C311      1.0  0.48067  0.23407  0.34789  1.0000
  C   C312      1.0  0.46977  0.24140  0.39794  1.0000
  C   C313      1.0  0.44832  0.23094  0.39917  1.0000
  C   C314      1.0  0.43680  0.21256  0.35108  1.0000
  C   C315      1.0  0.44761  0.20527  0.30046  1.0000
  C   C316      1.0  0.46905  0.21581  0.29881  1.0000
  C   C317      1.0  0.54697  0.29886  0.32445  1.0000
  C   C318      1.0  0.54653  0.31167  0.39219  1.0000
  C   C319      1.0  0.56101  0.33265  0.39305  1.0000
  C   C320      1.0  0.57606  0.34145  0.32546  1.0000
  C   C321      1.0  0.57596  0.32869  0.25617  1.0000
  C   C322      1.0  0.56159  0.30780  0.25530  1.0000
  C   C323      1.0  0.54634  0.23437  0.33112  1.0000
  C   C324      1.0  0.55886  0.23755  0.25571  1.0000
  C   C325      1.0  0.57339  0.23123  0.25618  1.0000
  C   C326      1.0  0.57604  0.22167  0.33237  1.0000
  C   C327      1.0  0.56295  0.21785  0.40656  1.0000
  C   C328      1.0  0.54822  0.22402  0.40591  1.0000
  H   H180      1.0  0.56095  0.34135  0.44536  1.0000
  H   H181      1.0  0.53667  0.30560  0.44498  1.0000
  H   H182      1.0  0.58715  0.33422  0.20840  1.0000
  H   H183      1.0  0.56266  0.29894  0.20625  1.0000
  H   H184      1.0  0.55828  0.24554  0.20152  1.0000
  H   H185      1.0  0.58304  0.23509  0.20257  1.0000
  H   H186      1.0  0.53991  0.22217  0.46271  1.0000
  H   H187      1.0  0.56457  0.21123  0.46332  1.0000
  H   H188      1.0  0.47609  0.21008  0.25970  1.0000
  H   H189      1.0  0.43992  0.19205  0.26456  1.0000
  H   H190      1.0  0.44115  0.23703  0.43507  1.0000
  H   H191      1.0  0.47737  0.25441  0.43519  1.0000
  H   H192      1.0  0.50635  0.27456  0.33712  1.0000
  H   H193      1.0  0.56117  0.27366  0.32761  1.0000
  H   H194      1.0  0.50596  0.21870  0.34936  1.0000
  C   C329      1.0  0.71546  0.24594  0.33203  1.0000
  C   C330      1.0  0.72624  0.23526  0.33952  1.0000
  C   C331      1.0  0.74785  0.24560  0.34496  1.0000
  C   C332      1.0  0.75846  0.26724  0.34470  1.0000
  C   C333      1.0  0.74808  0.27828  0.33664  1.0000
  C   C334      1.0  0.72665  0.26742  0.33144  1.0000
  C   C335      1.0  0.75866  0.23452  0.34742  1.0000
  C   C336      1.0  0.75133  0.21627  0.39728  1.0000
  C   C337      1.0  0.76178  0.20527  0.39827  1.0000
  C   C338      1.0  0.78015  0.21214  0.35013  1.0000
  C   C339      1.0  0.78745  0.23027  0.29973  1.0000
  C   C340      1.0  0.77692  0.24118  0.29832  1.0000
  C   C341      1.0  0.69385  0.23597  0.32439  1.0000
  C   C342      1.0  0.68106  0.22272  0.39218  1.0000
  C   C343      1.0  0.66007  0.21615  0.39302  1.0000
  C   C344      1.0  0.65125  0.22240  0.32552  1.0000
  C   C345      1.0  0.66399  0.23508  0.25622  1.0000
  C   C346      1.0  0.68489  0.24165  0.25536  1.0000
  C   C347      1.0  0.75830  0.29987  0.33118  1.0000
  C   C348      1.0  0.75512  0.30921  0.25577  1.0000
  C   C349      1.0  0.76140  0.33005  0.25634  1.0000
  C   C350      1.0  0.77098  0.34227  0.33248  1.0000
  C   C351      1.0  0.77479  0.33299  0.40668  1.0000
  C   C352      1.0  0.76865  0.31211  0.40598  1.0000
  H   H195      1.0  0.65138  0.20737  0.44530  1.0000
  H   H196      1.0  0.68714  0.21889  0.44477  1.0000
  H   H197      1.0  0.65844  0.24076  0.20859  1.0000
  H   H198      1.0  0.69373  0.25160  0.20633  1.0000
  H   H199      1.0  0.74715  0.30065  0.20154  1.0000
  H   H200      1.0  0.75760  0.33585  0.20260  1.0000
  H   H201      1.0  0.77048  0.30564  0.46282  1.0000
  H   H202      1.0  0.78141  0.34124  0.46344  1.0000
  H   H203      1.0  0.78265  0.25397  0.25933  1.0000
  H   H204      1.0  0.80067  0.23581  0.26381  1.0000
  H   H205      1.0  0.75568  0.19199  0.43401  1.0000
  H   H206      1.0  0.73832  0.21084  0.43455  1.0000
  H   H207      1.0  0.71818  0.21969  0.33672  1.0000
  H   H208      1.0  0.71901  0.27538  0.32773  1.0000
  H   H209      1.0  0.77401  0.27519  0.34917  1.0000
  C   C353      1.0  0.19004  0.37613  0.42506  1.0000
  C   C354      1.0  0.20095  0.39772  0.42862  1.0000
  C   C355      1.0  0.20672  0.40916  0.34768  1.0000
  N   N13       1.0  0.20679  0.40793  0.51217  1.0000
  O   O25       1.0  0.19157  0.40375  0.56013  1.0000
  O   O26       1.0  0.21836  0.40352  0.55474  1.0000
  C   C356      1.0  0.62716  0.80708  0.34675  1.0000
  C   C357      1.0  0.61640  0.80151  0.42889  1.0000
  C   C358      1.0  0.59481  0.79081  0.43250  1.0000
  C   C359      1.0  0.58336  0.78526  0.35158  1.0000
  H   H210      1.0  0.62433  0.80573  0.48789  1.0000
  N   N14       1.0  0.58461  0.78632  0.51608  1.0000
  O   O27       1.0  0.58879  0.77521  0.56355  1.0000
  O   O28       1.0  0.58902  0.80225  0.55915  1.0000
  C   C360      1.0  0.19203  0.80337  0.43034  1.0000
  C   C361      1.0  0.20282  0.79257  0.43393  1.0000
  C   C362      1.0  0.20702  0.78535  0.35336  1.0000
  H   H211      1.0  0.18896  0.80819  0.48927  1.0000
  N   N15       1.0  0.21007  0.78957  0.51675  1.0000
  O   O29       1.0  0.19573  0.77954  0.57062  1.0000
  O   O30       1.0  0.22247  0.80621  0.55275  1.0000
  C   C363      1.0  0.81362  0.62167  0.34283  1.0000
  C   C364      1.0  0.80828  0.61092  0.42501  1.0000
  C   C365      1.0  0.79740  0.58933  0.42871  1.0000
  C   C366      1.0  0.79165  0.57786  0.34785  1.0000
  H   H212      1.0  0.81189  0.61886  0.48398  1.0000
  N   N16       1.0  0.79156  0.57915  0.51232  1.0000
  O   O31       1.0  0.80679  0.58336  0.56034  1.0000
  O   O32       1.0  0.77997  0.58355  0.55478  1.0000
  C   C367      1.0  0.37116  0.17995  0.34792  1.0000
  C   C368      1.0  0.38196  0.18556  0.42994  1.0000
  C   C369      1.0  0.40356  0.19626  0.43331  1.0000
  C   C370      1.0  0.41496  0.20181  0.35227  1.0000
  H   H213      1.0  0.37406  0.18133  0.48902  1.0000
  N   N17       1.0  0.41380  0.20075  0.51680  1.0000
  O   O33       1.0  0.40964  0.21186  0.56438  1.0000
  O   O34       1.0  0.40942  0.18483  0.55983  1.0000
  C   C371      1.0  0.81265  0.17902  0.34635  1.0000
  C   C372      1.0  0.80709  0.18422  0.42847  1.0000
  C   C373      1.0  0.79642  0.19514  0.43204  1.0000
  C   C374      1.0  0.79089  0.20105  0.35110  1.0000
  H   H214      1.0  0.81129  0.18049  0.48748  1.0000
  N   N18       1.0  0.79195  0.20087  0.51562  1.0000
  O   O35       1.0  0.78082  0.18558  0.56309  1.0000
  O   O36       1.0  0.80787  0.21236  0.55871  1.0000
  C   C375      1.0  0.19074  0.19601  0.41189  1.0000
  C   C376      1.0  0.20144  0.18529  0.41344  1.0000
  H   H215      1.0  0.20468  0.18136  0.47427  1.0000
  C   C377      1.0  0.79517  0.98235  0.41284  1.0000
  C   C378      1.0  0.80589  0.00378  0.41439  1.0000
  H   H216      1.0  0.79023  0.97474  0.47242  1.0000
  H   H217      1.0  0.80874  0.01092  0.47521  1.0000
  C   C379      1.0  0.98894  0.78993  0.41620  1.0000
  H   H218      1.0  0.98178  0.78563  0.47695  1.0000
  C   C380      1.0  0.80762  0.79098  0.41224  1.0000
  C   C381      1.0  0.79692  0.80170  0.41398  1.0000
  H   H219      1.0  0.81173  0.78746  0.47205  1.0000
  H   H220      1.0  0.79368  0.80561  0.47487  1.0000
  C   C382      1.0  0.20145  0.00440  0.41245  1.0000
  C   C383      1.0  0.19068  0.98297  0.41403  1.0000
  H   H221      1.0  0.20530  0.01200  0.47234  1.0000
  C   C384      1.0  0.98792  0.18657  0.41613  1.0000
  H   H222      1.0  0.98031  0.18404  0.47564  1.0000
  C   C385      1.0  0.23059  0.59925  0.40319  1.0000
  C   C386      1.0  0.23044  0.61771  0.40538  1.0000
  H   H223      1.0  0.23691  0.59583  0.45623  1.0000
  H   H224      1.0  0.23671  0.62703  0.45975  1.0000
  C   C387      1.0  0.39308  0.61927  0.40799  1.0000
  C   C388      1.0  0.37456  0.60070  0.41003  1.0000
  H   H225      1.0  0.39636  0.62916  0.46035  1.0000
  H   H226      1.0  0.36511  0.59782  0.46375  1.0000
  C   C389      1.0  0.37308  0.76103  0.41325  1.0000
  C   C390      1.0  0.39168  0.76115  0.41520  1.0000
  H   H227      1.0  0.36312  0.75421  0.46518  1.0000
  H   H228      1.0  0.39451  0.75438  0.46829  1.0000
  C   C391      1.0  0.76732  0.38756  0.40794  1.0000
  C   C392      1.0  0.76733  0.36902  0.41029  1.0000
  H   H229      1.0  0.76072  0.39089  0.46015  1.0000
  H   H230      1.0  0.76075  0.35961  0.46409  1.0000
  C   C393      1.0  0.60532  0.36773  0.40781  1.0000
  C   C394      1.0  0.62384  0.38629  0.41003  1.0000
  H   H231      1.0  0.60198  0.35784  0.46024  1.0000
  H   H232      1.0  0.63327  0.38917  0.46381  1.0000
  C   C395      1.0  0.62497  0.22534  0.40804  1.0000
  C   C396      1.0  0.60643  0.22533  0.41029  1.0000
  H   H233      1.0  0.63490  0.23194  0.46030  1.0000
  H   H234      1.0  0.60359  0.23191  0.46407  1.0000
