data_image0
_chemical_formula_structural       C3NCH3CNHCNHCNHC3NCH3C3NCH3C3NCH3C3NCH3CNHCNHC3NCH3C3NCH3CNHCNHC3NCH3C3NCH3CNHCNHC3NCH3C3NCH3CNHCNHCNHC3NCH3C6H3C6H3C6H3C6H3C6H3C6H3C6H3C6H3C6H3C6H3C6H3C6H3C6H3C6H3C6H3C6H3CNHC3NCH3C3NCH3C3NCH3CNHCNHCNHCNHC3NCH3C3NCH3CNHCNHC3NCH3C3NCH3CNHCNHC3NCH3C3NCH3CNHCNHC3NCH3C3NCH3C3NCH3CNH
_chemical_formula_sum              "C216 N48 H144"
_cell_length_a       54.5375
_cell_length_b       28.1184
_cell_length_c       14.8445
_cell_angle_alpha    90
_cell_angle_beta     90
_cell_angle_gamma    90

_space_group_name_H-M_alt    "P 1"
_space_group_IT_number       1

loop_
  _space_group_symop_operation_xyz
  'x, y, z'

loop_
  _atom_site_type_symbol
  _atom_site_label
  _atom_site_symmetry_multiplicity
  _atom_site_fract_x
  _atom_site_fract_y
  _atom_site_fract_z
  _atom_site_occupancy
  C   C1        1.0  0.48660  0.49682  0.26700  1.0000
  C   C2        1.0  0.49352  0.46028  0.32837  1.0000
  C   C3        1.0  0.51758  0.54875  0.32674  1.0000
  N   N1        1.0  0.49863  0.53920  0.27008  1.0000
  C   C4        1.0  0.46812  0.49269  0.19435  1.0000
  H   H1        1.0  0.46184  0.45640  0.18378  1.0000
  H   H2        1.0  0.47600  0.50488  0.13081  1.0000
  H   H3        1.0  0.45234  0.51499  0.21050  1.0000
  C   C5        1.0  0.99723  0.97132  0.30026  1.0000
  N   N2        1.0  0.98592  0.01425  0.30246  1.0000
  H   H4        1.0  0.99126  0.94730  0.25348  1.0000
  C   C6        1.0  0.38086  0.35924  0.29473  1.0000
  N   N3        1.0  0.40506  0.37110  0.29377  1.0000
  H   H5        1.0  0.36961  0.37554  0.24917  1.0000
  C   C7        1.0  0.62964  0.65013  0.29632  1.0000
  N   N4        1.0  0.60547  0.63810  0.29523  1.0000
  H   H6        1.0  0.64094  0.63381  0.25093  1.0000
  C   C8        1.0  0.12128  0.80288  0.27475  1.0000
  C   C9        1.0  0.13881  0.82343  0.33451  1.0000
  C   C10       1.0  0.08882  0.84982  0.33870  1.0000
  N   N5        1.0  0.09736  0.81629  0.28080  1.0000
  C   C11       1.0  0.12666  0.76877  0.20130  1.0000
  H   H7        1.0  0.14620  0.76531  0.18762  1.0000
  H   H8        1.0  0.11800  0.78078  0.13901  1.0000
  H   H9        1.0  0.11928  0.73391  0.21879  1.0000
  C   C12       1.0  0.88938  0.20681  0.27408  1.0000
  C   C13       1.0  0.87174  0.18615  0.33327  1.0000
  C   C14       1.0  0.92168  0.15938  0.33781  1.0000
  N   N6        1.0  0.91326  0.19318  0.28022  1.0000
  C   C15       1.0  0.88412  0.24113  0.20084  1.0000
  H   H10       1.0  0.86461  0.24467  0.18684  1.0000
  H   H11       1.0  0.89286  0.22927  0.13860  1.0000
  H   H12       1.0  0.89150  0.27593  0.21881  1.0000
  C   C16       1.0  0.52352  0.27747  0.27100  1.0000
  C   C17       1.0  0.50590  0.28778  0.33919  1.0000
  C   C18       1.0  0.53699  0.20925  0.35304  1.0000
  N   N7        1.0  0.53794  0.23823  0.28014  1.0000
  C   C19       1.0  0.52628  0.30334  0.18466  1.0000
  H   H13       1.0  0.51246  0.33079  0.17479  1.0000
  H   H14       1.0  0.52470  0.27838  0.12864  1.0000
  H   H15       1.0  0.54435  0.31993  0.18220  1.0000
  C   C20       1.0  0.48686  0.73055  0.27027  1.0000
  C   C21       1.0  0.50422  0.72011  0.33925  1.0000
  C   C22       1.0  0.47284  0.79821  0.35273  1.0000
  N   N8        1.0  0.47232  0.76963  0.27921  1.0000
  C   C23       1.0  0.48451  0.70505  0.18337  1.0000
  H   H16       1.0  0.49835  0.67761  0.17397  1.0000
  H   H17       1.0  0.48635  0.73025  0.12784  1.0000
  H   H18       1.0  0.46644  0.68849  0.17950  1.0000
  C   C24       1.0  0.00534  0.75670  0.27325  1.0000
  N   N9        1.0  0.99050  0.71824  0.26961  1.0000
  H   H19       1.0  0.01757  0.76173  0.22195  1.0000
  C   C25       1.0  0.00591  0.25078  0.27323  1.0000
  N   N10       1.0  0.02088  0.28907  0.27006  1.0000
  H   H20       1.0  0.99381  0.24583  0.22148  1.0000
  C   C26       1.0  0.32310  0.16195  0.26531  1.0000
  C   C27       1.0  0.31092  0.19246  0.32765  1.0000
  C   C28       1.0  0.30503  0.09230  0.33236  1.0000
  N   N11       1.0  0.32000  0.11406  0.27189  1.0000
  C   C29       1.0  0.33899  0.17747  0.18984  1.0000
  H   H21       1.0  0.33806  0.21562  0.17768  1.0000
  H   H22       1.0  0.33325  0.15983  0.12782  1.0000
  H   H23       1.0  0.35796  0.16769  0.20403  1.0000
  C   C30       1.0  0.68738  0.84766  0.26635  1.0000
  C   C31       1.0  0.69955  0.81712  0.32869  1.0000
  C   C32       1.0  0.70556  0.91725  0.33327  1.0000
  N   N12       1.0  0.69055  0.89554  0.27285  1.0000
  C   C33       1.0  0.67146  0.83217  0.19098  1.0000
  H   H24       1.0  0.67233  0.79401  0.17891  1.0000
  H   H25       1.0  0.67721  0.84975  0.12890  1.0000
  H   H26       1.0  0.65251  0.84207  0.20522  1.0000
  C   C34       1.0  0.21568  0.66930  0.29901  1.0000
  N   N13       1.0  0.21790  0.62095  0.29731  1.0000
  H   H27       1.0  0.22486  0.68842  0.25119  1.0000
  C   C35       1.0  0.79480  0.34024  0.29785  1.0000
  N   N14       1.0  0.79250  0.38858  0.29631  1.0000
  H   H28       1.0  0.78564  0.32112  0.24999  1.0000
  C   C36       1.0  0.26597  0.43424  0.28298  1.0000
  C   C37       1.0  0.24491  0.42999  0.33948  1.0000
  C   C38       1.0  0.28302  0.36146  0.34140  1.0000
  N   N15       1.0  0.28393  0.40044  0.28723  1.0000
  C   C39       1.0  0.26966  0.47078  0.21243  1.0000
  H   H29       1.0  0.25329  0.49167  0.19892  1.0000
  H   H30       1.0  0.27486  0.45367  0.14922  1.0000
  H   H31       1.0  0.28440  0.49471  0.23288  1.0000
  C   C40       1.0  0.74430  0.57539  0.28305  1.0000
  C   C41       1.0  0.76543  0.57959  0.33918  1.0000
  C   C42       1.0  0.72734  0.64811  0.34204  1.0000
  N   N16       1.0  0.72635  0.60920  0.28773  1.0000
  C   C43       1.0  0.74051  0.53892  0.21244  1.0000
  H   H32       1.0  0.75685  0.51796  0.19871  1.0000
  H   H33       1.0  0.73529  0.55610  0.14933  1.0000
  H   H34       1.0  0.72576  0.51503  0.23298  1.0000
  C   C44       1.0  0.26580  0.88921  0.29150  1.0000
  N   N17       1.0  0.24743  0.85664  0.29267  1.0000
  H   H35       1.0  0.28002  0.88316  0.24817  1.0000
  C   C45       1.0  0.74475  0.12021  0.29144  1.0000
  N   N18       1.0  0.76310  0.15282  0.29221  1.0000
  H   H36       1.0  0.73049  0.12616  0.24823  1.0000
  C   C46       1.0  0.14581  0.41451  0.27702  1.0000
  C   C47       1.0  0.15483  0.44841  0.34039  1.0000
  C   C48       1.0  0.10701  0.41237  0.35207  1.0000
  N   N19       1.0  0.12235  0.39831  0.28523  1.0000
  C   C49       1.0  0.15893  0.39786  0.19556  1.0000
  H   H37       1.0  0.17605  0.41672  0.18361  1.0000
  H   H38       1.0  0.14740  0.40317  0.13630  1.0000
  H   H39       1.0  0.16290  0.35999  0.20217  1.0000
  C   C50       1.0  0.86459  0.59454  0.27510  1.0000
  C   C51       1.0  0.85546  0.56110  0.33911  1.0000
  C   C52       1.0  0.90333  0.59679  0.35059  1.0000
  N   N20       1.0  0.88809  0.61053  0.28318  1.0000
  C   C53       1.0  0.85154  0.61084  0.19323  1.0000
  H   H40       1.0  0.83429  0.59232  0.18195  1.0000
  H   H41       1.0  0.86302  0.60475  0.13410  1.0000
  H   H42       1.0  0.84782  0.64885  0.19877  1.0000
  C   C54       1.0  0.37200  0.96188  0.27771  1.0000
  N   N21       1.0  0.39511  0.94461  0.27496  1.0000
  H   H43       1.0  0.36695  0.98574  0.22919  1.0000
  C   C55       1.0  0.63877  0.04795  0.27843  1.0000
  N   N22       1.0  0.61562  0.06503  0.27583  1.0000
  H   H44       1.0  0.64389  0.02432  0.22958  1.0000
  C   C56       1.0  0.00313  0.46912  0.29413  1.0000
  N   N23       1.0  0.98660  0.50489  0.29374  1.0000
  H   H45       1.0  0.00186  0.44405  0.24447  1.0000
  C   C57       1.0  0.48813  0.00438  0.26238  1.0000
  C   C58       1.0  0.48856  0.96735  0.32776  1.0000
  C   C59       1.0  0.52288  0.04022  0.33203  1.0000
  N   N24       1.0  0.50513  0.03950  0.26816  1.0000
  C   C60       1.0  0.47153  0.00751  0.18360  1.0000
  H   H46       1.0  0.46077  0.97537  0.17324  1.0000
  H   H47       1.0  0.48229  0.01326  0.12254  1.0000
  H   H48       1.0  0.45905  0.03749  0.19243  1.0000
  C   C61       1.0  0.48943  0.32696  0.33681  1.0000
  C   C62       1.0  0.46384  0.32020  0.34409  1.0000
  C   C63       1.0  0.44730  0.35898  0.34310  1.0000
  C   C64       1.0  0.45713  0.40557  0.33662  1.0000
  C   C65       1.0  0.48282  0.41371  0.33123  1.0000
  C   C66       1.0  0.49855  0.37373  0.33145  1.0000
  H   H49       1.0  0.44545  0.43403  0.33888  1.0000
  H   H50       1.0  0.51714  0.37861  0.32742  1.0000
  H   H51       1.0  0.45715  0.28619  0.34747  1.0000
  C   C67       1.0  0.52088  0.68124  0.33684  1.0000
  C   C68       1.0  0.54644  0.68839  0.34493  1.0000
  C   C69       1.0  0.56317  0.64988  0.34400  1.0000
  C   C70       1.0  0.55358  0.60313  0.33676  1.0000
  C   C71       1.0  0.52797  0.59491  0.33032  1.0000
  C   C72       1.0  0.51195  0.63436  0.33056  1.0000
  H   H52       1.0  0.56535  0.57476  0.33688  1.0000
  H   H53       1.0  0.49336  0.62898  0.32861  1.0000
  H   H54       1.0  0.55297  0.72250  0.34884  1.0000
  C   C73       1.0  0.02104  0.82691  0.35059  1.0000
  C   C74       1.0  0.04663  0.82016  0.34327  1.0000
  C   C75       1.0  0.06317  0.85894  0.34444  1.0000
  C   C76       1.0  0.05334  0.90553  0.35104  1.0000
  C   C77       1.0  0.02765  0.91366  0.35632  1.0000
  C   C78       1.0  0.01192  0.87367  0.35603  1.0000
  H   H55       1.0  0.06501  0.93399  0.34877  1.0000
  H   H56       1.0  0.99333  0.87855  0.36005  1.0000
  H   H57       1.0  0.05332  0.78616  0.33992  1.0000
  C   C79       1.0  0.98959  0.18116  0.35080  1.0000
  C   C80       1.0  0.96403  0.18834  0.34268  1.0000
  C   C81       1.0  0.94729  0.14984  0.34365  1.0000
  C   C82       1.0  0.95687  0.10308  0.35088  1.0000
  C   C83       1.0  0.98249  0.09484  0.35729  1.0000
  C   C84       1.0  0.99851  0.13427  0.35704  1.0000
  H   H58       1.0  0.94510  0.07472  0.35082  1.0000
  H   H59       1.0  0.01710  0.12887  0.35904  1.0000
  H   H60       1.0  0.95751  0.22246  0.33892  1.0000
  C   C85       1.0  0.34649  0.30828  0.34694  1.0000
  C   C86       1.0  0.34040  0.25936  0.34074  1.0000
  C   C87       1.0  0.31587  0.24277  0.33519  1.0000
  C   C88       1.0  0.29694  0.27734  0.33896  1.0000
  C   C89       1.0  0.30212  0.32683  0.34148  1.0000
  C   C90       1.0  0.32696  0.34147  0.34417  1.0000
  H   H61       1.0  0.27908  0.26635  0.33493  1.0000
  H   H62       1.0  0.33089  0.37701  0.34861  1.0000
  H   H63       1.0  0.35432  0.23497  0.34005  1.0000
  C   C91       1.0  0.66390  0.70138  0.34830  1.0000
  C   C92       1.0  0.67001  0.75029  0.34204  1.0000
  C   C93       1.0  0.69454  0.76684  0.33637  1.0000
  C   C94       1.0  0.71346  0.73225  0.33990  1.0000
  C   C95       1.0  0.70826  0.68277  0.34251  1.0000
  C   C96       1.0  0.68342  0.66818  0.34547  1.0000
  H   H64       1.0  0.73133  0.74319  0.33574  1.0000
  H   H65       1.0  0.67950  0.63264  0.34994  1.0000
  H   H66       1.0  0.65610  0.77471  0.34131  1.0000
  C   C97       1.0  0.16399  0.80827  0.34071  1.0000
  C   C98       1.0  0.17008  0.75935  0.34691  1.0000
  C   C99       1.0  0.19461  0.74277  0.35247  1.0000
  C   C100      1.0  0.21354  0.77735  0.34877  1.0000
  C   C101      1.0  0.20835  0.82683  0.34615  1.0000
  C   C102      1.0  0.18351  0.84146  0.34345  1.0000
  H   H67       1.0  0.23140  0.76638  0.35274  1.0000
  H   H68       1.0  0.17958  0.87700  0.33897  1.0000
  H   H69       1.0  0.15616  0.73495  0.34760  1.0000
  C   C103      1.0  0.84656  0.20137  0.33934  1.0000
  C   C104      1.0  0.84046  0.25028  0.34559  1.0000
  C   C105      1.0  0.81593  0.26684  0.35124  1.0000
  C   C106      1.0  0.79700  0.23225  0.34772  1.0000
  C   C107      1.0  0.80220  0.18278  0.34512  1.0000
  C   C108      1.0  0.82704  0.16818  0.34212  1.0000
  H   H70       1.0  0.77914  0.24321  0.35189  1.0000
  H   H71       1.0  0.83096  0.13263  0.33772  1.0000
  H   H72       1.0  0.85437  0.27470  0.34632  1.0000
  C   C109      1.0  0.03917  0.42958  0.35633  1.0000
  C   C110      1.0  0.03100  0.38223  0.34918  1.0000
  C   C111      1.0  0.04766  0.34414  0.34088  1.0000
  C   C112      1.0  0.07314  0.35355  0.34250  1.0000
  C   C113      1.0  0.08180  0.40086  0.35047  1.0000
  C   C114      1.0  0.06461  0.43841  0.35532  1.0000
  H   H73       1.0  0.08534  0.32598  0.33831  1.0000
  H   H74       1.0  0.07065  0.47292  0.35695  1.0000
  H   H75       1.0  0.01252  0.37541  0.35110  1.0000
  C   C115      1.0  0.97090  0.57785  0.35182  1.0000
  C   C116      1.0  0.97963  0.62477  0.34624  1.0000
  C   C117      1.0  0.96322  0.66337  0.33926  1.0000
  C   C118      1.0  0.93765  0.65468  0.34107  1.0000
  C   C119      1.0  0.92861  0.60759  0.34834  1.0000
  C   C120      1.0  0.94548  0.56944  0.35204  1.0000
  H   H76       1.0  0.92566  0.68263  0.33772  1.0000
  H   H77       1.0  0.93925  0.53509  0.35579  1.0000
  H   H78       1.0  0.99820  0.63073  0.34605  1.0000
  C   C121      1.0  0.47132  0.92963  0.33138  1.0000
  C   C122      1.0  0.47950  0.88229  0.33865  1.0000
  C   C123      1.0  0.46283  0.84420  0.34692  1.0000
  C   C124      1.0  0.43736  0.85359  0.34530  1.0000
  C   C125      1.0  0.42869  0.90089  0.33724  1.0000
  C   C126      1.0  0.44587  0.93845  0.33233  1.0000
  H   H79       1.0  0.42516  0.82601  0.34954  1.0000
  H   H80       1.0  0.43983  0.97296  0.33063  1.0000
  H   H81       1.0  0.49797  0.87548  0.33678  1.0000
  C   C127      1.0  0.53957  0.07793  0.33580  1.0000
  C   C128      1.0  0.53085  0.12486  0.34119  1.0000
  C   C129      1.0  0.54726  0.16346  0.34817  1.0000
  C   C130      1.0  0.57283  0.15476  0.34637  1.0000
  C   C131      1.0  0.58186  0.10765  0.33927  1.0000
  C   C132      1.0  0.56500  0.06951  0.33564  1.0000
  H   H82       1.0  0.58482  0.18270  0.34965  1.0000
  H   H83       1.0  0.57122  0.03515  0.33200  1.0000
  H   H84       1.0  0.51228  0.13083  0.34136  1.0000
  C   C133      1.0  0.17867  0.46959  0.33822  1.0000
  C   C134      1.0  0.18140  0.51945  0.34402  1.0000
  C   C135      1.0  0.20466  0.54166  0.34691  1.0000
  C   C136      1.0  0.22577  0.51207  0.34393  1.0000
  C   C137      1.0  0.22397  0.46154  0.33888  1.0000
  C   C138      1.0  0.20010  0.44149  0.33650  1.0000
  H   H85       1.0  0.24268  0.52752  0.34918  1.0000
  H   H86       1.0  0.19814  0.40531  0.33369  1.0000
  H   H87       1.0  0.16593  0.54016  0.34475  1.0000
  C   C139      1.0  0.83163  0.53994  0.33694  1.0000
  C   C140      1.0  0.82892  0.49008  0.34281  1.0000
  C   C141      1.0  0.80566  0.46788  0.34598  1.0000
  C   C142      1.0  0.78455  0.49748  0.34331  1.0000
  C   C143      1.0  0.78635  0.54800  0.33816  1.0000
  C   C144      1.0  0.81021  0.56806  0.33535  1.0000
  H   H88       1.0  0.76763  0.48204  0.34877  1.0000
  H   H89       1.0  0.81218  0.60424  0.33243  1.0000
  H   H90       1.0  0.84439  0.46939  0.34351  1.0000
  C   C145      1.0  0.33181  0.96960  0.34937  1.0000
  C   C146      1.0  0.32908  0.01947  0.34357  1.0000
  C   C147      1.0  0.30581  0.04166  0.34062  1.0000
  C   C148      1.0  0.28471  0.01206  0.34361  1.0000
  C   C149      1.0  0.28651  0.96153  0.34873  1.0000
  C   C150      1.0  0.31038  0.94149  0.35114  1.0000
  H   H91       1.0  0.26779  0.02749  0.33840  1.0000
  H   H92       1.0  0.31235  0.90531  0.35400  1.0000
  H   H93       1.0  0.34454  0.04018  0.34281  1.0000
  C   C151      1.0  0.67884  0.03995  0.35059  1.0000
  C   C152      1.0  0.68154  0.99008  0.34475  1.0000
  C   C153      1.0  0.70480  0.96788  0.34157  1.0000
  C   C154      1.0  0.72592  0.99747  0.34427  1.0000
  C   C155      1.0  0.72412  0.04800  0.34942  1.0000
  C   C156      1.0  0.70026  0.06806  0.35221  1.0000
  H   H94       1.0  0.74283  0.98203  0.33882  1.0000
  H   H95       1.0  0.69829  0.10425  0.35513  1.0000
  H   H96       1.0  0.66607  0.96939  0.34404  1.0000
  C   C157      1.0  0.51324  0.47137  0.38731  1.0000
  N   N25       1.0  0.52455  0.51430  0.38512  1.0000
  H   H97       1.0  0.51923  0.44732  0.43398  1.0000
  C   C158      1.0  0.02382  0.99672  0.42073  1.0000
  C   C159      1.0  0.01693  0.96022  0.35924  1.0000
  C   C160      1.0  0.99285  0.04868  0.36095  1.0000
  N   N26       1.0  0.01179  0.03910  0.41765  1.0000
  C   C161      1.0  0.04232  0.99260  0.49335  1.0000
  H   H98       1.0  0.04860  0.95630  0.50389  1.0000
  H   H99       1.0  0.03445  0.00479  0.55690  1.0000
  H   H100      1.0  0.05809  0.01489  0.47715  1.0000
  C   C162      1.0  0.38920  0.30288  0.41280  1.0000
  C   C163      1.0  0.37167  0.32345  0.35311  1.0000
  C   C164      1.0  0.42165  0.34986  0.34887  1.0000
  N   N27       1.0  0.41312  0.31631  0.40675  1.0000
  C   C165      1.0  0.38383  0.26880  0.48633  1.0000
  H   H101      1.0  0.36430  0.26535  0.50001  1.0000
  H   H102      1.0  0.39249  0.28086  0.54858  1.0000
  H   H103      1.0  0.39121  0.23393  0.46890  1.0000
  C   C166      1.0  0.62110  0.70681  0.41362  1.0000
  C   C167      1.0  0.63872  0.68618  0.35436  1.0000
  C   C168      1.0  0.58879  0.65938  0.34991  1.0000
  N   N28       1.0  0.59721  0.69317  0.40750  1.0000
  C   C169      1.0  0.62636  0.74114  0.48683  1.0000
  H   H104      1.0  0.64587  0.74469  0.50081  1.0000
  H   H105      1.0  0.61763  0.72928  0.54910  1.0000
  H   H106      1.0  0.61897  0.77593  0.46887  1.0000
  C   C170      1.0  0.12961  0.85923  0.39286  1.0000
  N   N29       1.0  0.10541  0.87108  0.39381  1.0000
  H   H107      1.0  0.14086  0.87550  0.43848  1.0000
  C   C171      1.0  0.88082  0.15014  0.39138  1.0000
  N   N30       1.0  0.90499  0.13808  0.39245  1.0000
  H   H108      1.0  0.86952  0.13375  0.43664  1.0000
  C   C172      1.0  0.50516  0.25674  0.41405  1.0000
  N   N31       1.0  0.52000  0.21828  0.41761  1.0000
  H   H109      1.0  0.49290  0.26171  0.46532  1.0000
  C   C173      1.0  0.50457  0.75079  0.41466  1.0000
  N   N32       1.0  0.48961  0.78909  0.41801  1.0000
  H   H110      1.0  0.51665  0.74573  0.46645  1.0000
  C   C174      1.0  0.98694  0.77738  0.41624  1.0000
  C   C175      1.0  0.00458  0.78772  0.34813  1.0000
  C   C176      1.0  0.97351  0.70913  0.33412  1.0000
  N   N33       1.0  0.97256  0.73811  0.40705  1.0000
  C   C177      1.0  0.98420  0.80315  0.50270  1.0000
  H   H111      1.0  0.99800  0.83062  0.51262  1.0000
  H   H112      1.0  0.98581  0.77814  0.55862  1.0000
  H   H113      1.0  0.96612  0.81970  0.50530  1.0000
  C   C178      1.0  0.02364  0.23036  0.41750  1.0000
  C   C179      1.0  0.00626  0.22002  0.34853  1.0000
  C   C180      1.0  0.03767  0.29814  0.33533  1.0000
  N   N34       1.0  0.03818  0.26944  0.40867  1.0000
  C   C181      1.0  0.02600  0.20478  0.50431  1.0000
  H   H114      1.0  0.01213  0.17738  0.51368  1.0000
  H   H115      1.0  0.02418  0.22993  0.55993  1.0000
  H   H116      1.0  0.04405  0.18816  0.50807  1.0000
  C   C182      1.0  0.29481  0.16929  0.38867  1.0000
  N   N35       1.0  0.29257  0.12094  0.39027  1.0000
  H   H117      1.0  0.28562  0.18839  0.43649  1.0000
  C   C183      1.0  0.71569  0.84024  0.38968  1.0000
  N   N36       1.0  0.71797  0.88858  0.39127  1.0000
  H   H118      1.0  0.72481  0.82113  0.43768  1.0000
  C   C184      1.0  0.18738  0.66194  0.42234  1.0000
  C   C185      1.0  0.19958  0.69246  0.36008  1.0000
  C   C186      1.0  0.20543  0.59230  0.35516  1.0000
  N   N37       1.0  0.19046  0.61404  0.41569  1.0000
  C   C187      1.0  0.17148  0.67744  0.49777  1.0000
  H   H119      1.0  0.17241  0.71559  0.50998  1.0000
  H   H120      1.0  0.17720  0.65977  0.55979  1.0000
  H   H121      1.0  0.15251  0.66769  0.48350  1.0000
  C   C188      1.0  0.82309  0.34766  0.42122  1.0000
  C   C189      1.0  0.81092  0.31712  0.35889  1.0000
  C   C190      1.0  0.80490  0.41725  0.35431  1.0000
  N   N38       1.0  0.81991  0.39555  0.41472  1.0000
  C   C191      1.0  0.83901  0.33219  0.49661  1.0000
  H   H122      1.0  0.83814  0.29402  0.50870  1.0000
  H   H123      1.0  0.83325  0.34976  0.55869  1.0000
  H   H124      1.0  0.85796  0.34208  0.48240  1.0000
  C   C192      1.0  0.24469  0.38926  0.39621  1.0000
  N   N39       1.0  0.26306  0.35668  0.39503  1.0000
  H   H125      1.0  0.23048  0.38323  0.43961  1.0000
  C   C193      1.0  0.76572  0.62023  0.39613  1.0000
  N   N40       1.0  0.74737  0.65283  0.39539  1.0000
  H   H126      1.0  0.77998  0.62618  0.43932  1.0000
  C   C194      1.0  0.24449  0.93430  0.40450  1.0000
  C   C195      1.0  0.26558  0.92996  0.34819  1.0000
  C   C196      1.0  0.22745  0.86147  0.34621  1.0000
  N   N41       1.0  0.22653  0.90049  0.40028  1.0000
  C   C197      1.0  0.24079  0.97083  0.47508  1.0000
  H   H127      1.0  0.25718  0.99168  0.48866  1.0000
  H   H128      1.0  0.23557  0.95372  0.53826  1.0000
  H   H129      1.0  0.22608  0.99478  0.45459  1.0000
  C   C198      1.0  0.76616  0.07540  0.40460  1.0000
  C   C199      1.0  0.74504  0.07957  0.34838  1.0000
  C   C200      1.0  0.78312  0.14812  0.34559  1.0000
  N   N42       1.0  0.78410  0.10922  0.39994  1.0000
  C   C201      1.0  0.76994  0.03894  0.47524  1.0000
  H   H130      1.0  0.75360  0.01795  0.48890  1.0000
  H   H131      1.0  0.77513  0.05615  0.53837  1.0000
  H   H132      1.0  0.78470  0.01509  0.45481  1.0000
  C   C202      1.0  0.13848  0.46189  0.40990  1.0000
  N   N43       1.0  0.11537  0.44462  0.41268  1.0000
  H   H133      1.0  0.14352  0.48579  0.45838  1.0000
  C   C203      1.0  0.87169  0.54794  0.40919  1.0000
  N   N44       1.0  0.89485  0.56498  0.41179  1.0000
  H   H134      1.0  0.86657  0.52429  0.45798  1.0000
  C   C204      1.0  0.36468  0.91461  0.41076  1.0000
  C   C205      1.0  0.35565  0.94844  0.34727  1.0000
  C   C206      1.0  0.40347  0.91240  0.33563  1.0000
  N   N45       1.0  0.38814  0.89839  0.40252  1.0000
  C   C207      1.0  0.35154  0.89793  0.49215  1.0000
  H   H135      1.0  0.33442  0.91679  0.50408  1.0000
  H   H136      1.0  0.36306  0.90322  0.55145  1.0000
  H   H137      1.0  0.34757  0.86007  0.48547  1.0000
  C   C208      1.0  0.64589  0.09455  0.41247  1.0000
  C   C209      1.0  0.65501  0.06112  0.34845  1.0000
  C   C210      1.0  0.60714  0.09685  0.33702  1.0000
  N   N46       1.0  0.62239  0.11056  0.40442  1.0000
  C   C211      1.0  0.65894  0.11081  0.49436  1.0000
  H   H138      1.0  0.67619  0.09228  0.50563  1.0000
  H   H139      1.0  0.64746  0.10474  0.55350  1.0000
  H   H140      1.0  0.66267  0.14882  0.48886  1.0000
  C   C212      1.0  0.02235  0.50434  0.42527  1.0000
  C   C213      1.0  0.02191  0.46728  0.35996  1.0000
  C   C214      1.0  0.98759  0.54014  0.35563  1.0000
  N   N47       1.0  0.00535  0.53946  0.41947  1.0000
  C   C215      1.0  0.03897  0.50752  0.50400  1.0000
  H   H141      1.0  0.04973  0.47538  0.51440  1.0000
  H   H142      1.0  0.02822  0.51329  0.56508  1.0000
  H   H143      1.0  0.05144  0.53749  0.49510  1.0000
  C   C216      1.0  0.50733  0.96923  0.39363  1.0000
  N   N48       1.0  0.52386  0.00500  0.39399  1.0000
  H   H144      1.0  0.50860  0.94417  0.44331  1.0000
