data_image0
_chemical_formula_structural       HCH3CH2CNC2O2HNCNC2O2HN2CHNCHCNC2O2HNCNC2O2HN2CHNCHNC2O2HNC2O2HC6HOC6OH5C4H4C6HOC6OH5C4H4C6HOC6OH5C4H4C6HOC6OH4C3H2C6HOC6OH4C3H2NC2HN2C2HNC2NC2O2HN2C2NC2O2HN3C2HN2C2HNC2NC2O2HN2C2NC2O2HN2CNC2HN2CNC2HN2
_chemical_formula_sum              "H70 C130 N40 O30"
_cell_length_a       33.1371
_cell_length_b       41.5276
_cell_length_c       14.7691
_cell_angle_alpha    88.2058
_cell_angle_beta     91.4063
_cell_angle_gamma    90.3233

_space_group_name_H-M_alt    "P 1"
_space_group_IT_number       1

loop_
  _space_group_symop_operation_xyz
  'x, y, z'

loop_
  _atom_site_type_symbol
  _atom_site_label
  _atom_site_symmetry_multiplicity
  _atom_site_fract_x
  _atom_site_fract_y
  _atom_site_fract_z
  _atom_site_occupancy
  H   H1        1.0  0.77707  0.37957  0.37014  1.0000
  C   C1        1.0  0.84931  0.35528  0.37562  1.0000
  H   H2        1.0  0.84955  0.37991  0.37562  1.0000
  H   H3        1.0  0.58304  0.32546  0.32365  1.0000
  H   H4        1.0  0.18388  0.66830  0.36989  1.0000
  C   C2        1.0  0.11176  0.69247  0.37544  1.0000
  H   H5        1.0  0.11153  0.66784  0.37551  1.0000
  H   H6        1.0  0.37699  0.72340  0.32346  1.0000
  C   C3        1.0  0.11099  0.12862  0.37167  1.0000
  N   N1        1.0  0.10999  0.18568  0.36258  1.0000
  C   C4        1.0  0.08886  0.15758  0.36180  1.0000
  C   C5        1.0  0.04713  0.15875  0.35043  1.0000
  O   O1        1.0  0.02895  0.18025  0.38646  1.0000
  O   O2        1.0  0.02992  0.14850  0.28176  1.0000
  H   H7        1.0  0.04071  0.13529  0.24322  1.0000
  N   N2        1.0  0.09054  0.10008  0.37194  1.0000
  C   C6        1.0  0.85008  0.91924  0.37168  1.0000
  N   N3        1.0  0.85083  0.86239  0.36223  1.0000
  C   C7        1.0  0.87195  0.89050  0.36140  1.0000
  C   C8        1.0  0.91342  0.88960  0.34942  1.0000
  O   O3        1.0  0.93240  0.86749  0.38637  1.0000
  O   O4        1.0  0.92878  0.90128  0.28025  1.0000
  H   H8        1.0  0.91695  0.91525  0.24170  1.0000
  N   N4        1.0  0.87055  0.94776  0.37194  1.0000
  N   N5        1.0  0.86288  0.16285  0.38757  1.0000
  C   C9        1.0  0.85242  0.19429  0.38629  1.0000
  H   H9        1.0  0.87452  0.21158  0.38549  1.0000
  N   N6        1.0  0.09854  0.88465  0.38733  1.0000
  C   C10       1.0  0.10894  0.85323  0.38607  1.0000
  H   H10       1.0  0.08682  0.83597  0.38531  1.0000
  C   C11       1.0  0.25321  0.48491  0.37118  1.0000
  N   N7        1.0  0.22660  0.53776  0.38787  1.0000
  C   C12       1.0  0.21941  0.50553  0.37780  1.0000
  C   C13       1.0  0.18002  0.49424  0.37448  1.0000
  O   O5        1.0  0.15419  0.50917  0.41359  1.0000
  O   O6        1.0  0.16979  0.47847  0.30797  1.0000
  H   H11       1.0  0.14477  0.47189  0.29628  1.0000
  N   N8        1.0  0.25010  0.45226  0.36418  1.0000
  C   C14       1.0  0.70772  0.56294  0.37189  1.0000
  N   N9        1.0  0.73475  0.50972  0.38887  1.0000
  C   C15       1.0  0.74160  0.54217  0.37894  1.0000
  C   C16       1.0  0.78099  0.55363  0.37582  1.0000
  O   O7        1.0  0.80686  0.53980  0.42266  1.0000
  O   O8        1.0  0.79408  0.56800  0.30793  1.0000
  H   H12       1.0  0.77904  0.57649  0.26297  1.0000
  N   N10       1.0  0.71075  0.59575  0.36491  1.0000
  N   N11       1.0  0.99029  0.37031  0.38407  1.0000
  C   C17       1.0  0.94910  0.37226  0.38288  1.0000
  H   H13       1.0  0.93541  0.39423  0.38150  1.0000
  N   N12       1.0  0.97096  0.67728  0.38408  1.0000
  C   C18       1.0  0.01213  0.67535  0.38284  1.0000
  H   H14       1.0  0.02579  0.65340  0.38156  1.0000
  N   N13       1.0  0.49489  0.34096  0.31681  1.0000
  C   C19       1.0  0.45441  0.33847  0.29769  1.0000
  C   C20       1.0  0.44121  0.33905  0.20773  1.0000
  O   O9        1.0  0.45882  0.35652  0.15330  1.0000
  O   O10       1.0  0.42333  0.31592  0.17403  1.0000
  H   H15       1.0  0.41236  0.29966  0.20508  1.0000
  N   N14       1.0  0.46494  0.70800  0.31686  1.0000
  C   C21       1.0  0.50502  0.71090  0.29782  1.0000
  C   C22       1.0  0.51629  0.71228  0.20781  1.0000
  O   O11       1.0  0.49785  0.69554  0.15396  1.0000
  O   O12       1.0  0.53328  0.73621  0.17414  1.0000
  H   H16       1.0  0.54468  0.75191  0.20515  1.0000
  C   C23       1.0  0.95894  0.02624  0.37959  1.0000
  C   C24       1.0  0.92955  0.00084  0.37534  1.0000
  C   C25       1.0  0.88706  0.00532  0.37852  1.0000
  C   C26       1.0  0.87270  0.03742  0.38244  1.0000
  C   C27       1.0  0.89988  0.06391  0.38571  1.0000
  C   C28       1.0  0.94186  0.05744  0.38528  1.0000
  H   H17       1.0  0.93876  0.97780  0.36876  1.0000
  O   O13       1.0  0.83216  0.04285  0.38524  1.0000
  C   C29       1.0  0.00233  0.02143  0.37954  1.0000
  C   C30       1.0  0.01954  0.99010  0.38514  1.0000
  C   C31       1.0  0.06153  0.98363  0.38541  1.0000
  C   C32       1.0  0.08863  0.01019  0.38209  1.0000
  C   C33       1.0  0.07419  0.04238  0.37830  1.0000
  C   C34       1.0  0.03162  0.04693  0.37528  1.0000
  O   O14       1.0  0.12923  0.00470  0.38474  1.0000
  H   H18       1.0  0.02227  0.07013  0.36876  1.0000
  H   H19       1.0  0.82243  0.04473  0.32183  1.0000
  H   H20       1.0  0.13754  0.00423  0.32130  1.0000
  H   H21       1.0  0.96048  0.07682  0.39139  1.0000
  H   H22       1.0  0.00107  0.97061  0.39123  1.0000
  C   C35       1.0  0.88769  0.09655  0.38877  1.0000
  C   C36       1.0  0.85937  0.97891  0.37814  1.0000
  C   C37       1.0  0.07378  0.95093  0.38844  1.0000
  C   C38       1.0  0.10186  0.06880  0.37787  1.0000
  H   H23       1.0  0.13222  0.06446  0.38213  1.0000
  H   H24       1.0  0.90986  0.11384  0.39016  1.0000
  H   H25       1.0  0.82912  0.98315  0.38259  1.0000
  H   H26       1.0  0.05164  0.93361  0.38991  1.0000
  C   C39       1.0  0.19988  0.32987  0.38587  1.0000
  C   C40       1.0  0.19426  0.29563  0.37937  1.0000
  C   C41       1.0  0.15575  0.28101  0.36379  1.0000
  C   C42       1.0  0.12223  0.30215  0.35135  1.0000
  C   C43       1.0  0.12412  0.33481  0.37515  1.0000
  C   C44       1.0  0.16315  0.34773  0.39106  1.0000
  H   H27       1.0  0.21867  0.28076  0.38053  1.0000
  O   O15       1.0  0.08720  0.29119  0.31182  1.0000
  C   C45       1.0  0.23887  0.34611  0.38549  1.0000
  C   C46       1.0  0.27687  0.33003  0.39732  1.0000
  C   C47       1.0  0.31502  0.34539  0.38398  1.0000
  C   C48       1.0  0.31526  0.37901  0.36301  1.0000
  C   C49       1.0  0.27908  0.39717  0.36073  1.0000
  C   C50       1.0  0.24215  0.38021  0.36923  1.0000
  O   O16       1.0  0.35132  0.39505  0.35535  1.0000
  H   H28       1.0  0.21692  0.39377  0.35863  1.0000
  H   H29       1.0  0.09036  0.29399  0.24598  1.0000
  H   H30       1.0  0.36027  0.40041  0.41719  1.0000
  H   H31       1.0  0.16407  0.37118  0.40942  1.0000
  H   H32       1.0  0.27720  0.30599  0.41388  1.0000
  C   C51       1.0  0.08857  0.35368  0.38218  1.0000
  C   C52       1.0  0.14654  0.24737  0.36122  1.0000
  C   C53       1.0  0.35244  0.32944  0.40181  1.0000
  C   C54       1.0  0.28109  0.43136  0.35495  1.0000
  H   H33       1.0  0.30908  0.44162  0.34975  1.0000
  H   H34       1.0  0.09063  0.37783  0.39316  1.0000
  H   H35       1.0  0.11645  0.24277  0.35326  1.0000
  H   H36       1.0  0.35365  0.31030  0.44707  1.0000
  C   C55       1.0  0.76144  0.71768  0.38614  1.0000
  C   C56       1.0  0.76692  0.75207  0.37948  1.0000
  C   C57       1.0  0.80508  0.76703  0.36376  1.0000
  C   C58       1.0  0.83832  0.74616  0.35123  1.0000
  C   C59       1.0  0.83697  0.71298  0.37515  1.0000
  C   C60       1.0  0.79829  0.69971  0.39123  1.0000
  H   H37       1.0  0.74255  0.76691  0.38089  1.0000
  O   O17       1.0  0.87247  0.75799  0.31161  1.0000
  C   C61       1.0  0.72244  0.70144  0.38586  1.0000
  C   C62       1.0  0.68470  0.71727  0.39750  1.0000
  C   C63       1.0  0.64627  0.70220  0.38411  1.0000
  C   C64       1.0  0.64558  0.66904  0.36321  1.0000
  C   C65       1.0  0.68171  0.65092  0.36111  1.0000
  C   C66       1.0  0.71882  0.66769  0.36977  1.0000
  O   O18       1.0  0.60936  0.65316  0.35553  1.0000
  H   H38       1.0  0.74382  0.65435  0.35918  1.0000
  H   H39       1.0  0.86785  0.75663  0.24578  1.0000
  H   H40       1.0  0.60173  0.64645  0.41736  1.0000
  H   H41       1.0  0.79778  0.67587  0.40971  1.0000
  H   H42       1.0  0.68472  0.74095  0.41402  1.0000
  C   C67       1.0  0.87267  0.69395  0.38209  1.0000
  C   C68       1.0  0.81424  0.80072  0.36119  1.0000
  C   C69       1.0  0.60921  0.71775  0.40185  1.0000
  C   C70       1.0  0.67956  0.61685  0.35539  1.0000
  H   H43       1.0  0.65146  0.60672  0.34997  1.0000
  H   H44       1.0  0.87085  0.66958  0.39339  1.0000
  H   H45       1.0  0.84414  0.80551  0.35291  1.0000
  H   H46       1.0  0.60896  0.73585  0.44722  1.0000
  C   C71       1.0  0.73573  0.34026  0.37613  1.0000
  C   C72       1.0  0.73643  0.30589  0.37889  1.0000
  C   C73       1.0  0.77213  0.28720  0.37788  1.0000
  C   C74       1.0  0.80970  0.30388  0.37395  1.0000
  C   C75       1.0  0.81189  0.33808  0.37436  1.0000
  C   C76       1.0  0.77480  0.35512  0.37400  1.0000
  H   H47       1.0  0.71008  0.29341  0.38596  1.0000
  O   O19       1.0  0.84454  0.28664  0.37102  1.0000
  C   C77       1.0  0.69832  0.35812  0.37978  1.0000
  C   C78       1.0  0.65924  0.34381  0.36683  1.0000
  C   C79       1.0  0.62227  0.35954  0.38354  1.0000
  C   C80       1.0  0.62420  0.39243  0.40662  1.0000
  C   C81       1.0  0.66157  0.40950  0.40696  1.0000
  C   C82       1.0  0.69747  0.39176  0.39654  1.0000
  O   O20       1.0  0.58905  0.40885  0.41728  1.0000
  H   H48       1.0  0.72374  0.40427  0.40395  1.0000
  H   H49       1.0  0.84992  0.28399  0.30642  1.0000
  H   H50       1.0  0.57955  0.41599  0.35626  1.0000
  H   H51       1.0  0.65697  0.32065  0.34630  1.0000
  C   C83       1.0  0.76913  0.25298  0.38142  1.0000
  C   C84       1.0  0.58441  0.34413  0.36728  1.0000
  C   C85       1.0  0.66210  0.44359  0.41216  1.0000
  H   H52       1.0  0.63506  0.45485  0.41789  1.0000
  H   H53       1.0  0.74145  0.24195  0.38318  1.0000
  C   C86       1.0  0.22536  0.70747  0.37577  1.0000
  C   C87       1.0  0.22472  0.74178  0.37854  1.0000
  C   C88       1.0  0.18901  0.76049  0.37751  1.0000
  C   C89       1.0  0.15135  0.74390  0.37364  1.0000
  C   C90       1.0  0.14916  0.70969  0.37411  1.0000
  C   C91       1.0  0.18625  0.69266  0.37374  1.0000
  H   H54       1.0  0.25123  0.75411  0.38547  1.0000
  O   O21       1.0  0.11645  0.76121  0.37068  1.0000
  C   C92       1.0  0.26285  0.68953  0.37942  1.0000
  C   C93       1.0  0.30165  0.70413  0.36653  1.0000
  C   C94       1.0  0.33898  0.68802  0.38329  1.0000
  C   C95       1.0  0.33754  0.65462  0.40640  1.0000
  C   C96       1.0  0.30019  0.63753  0.40666  1.0000
  C   C97       1.0  0.26406  0.65551  0.39612  1.0000
  O   O22       1.0  0.37291  0.63795  0.41717  1.0000
  H   H55       1.0  0.23795  0.64283  0.40352  1.0000
  H   H56       1.0  0.10967  0.76528  0.30608  1.0000
  H   H57       1.0  0.38113  0.63219  0.35617  1.0000
  H   H58       1.0  0.30349  0.72774  0.34598  1.0000
  C   C98       1.0  0.19209  0.79463  0.38101  1.0000
  C   C99       1.0  0.37649  0.70378  0.36716  1.0000
  C   C100      1.0  0.29977  0.60334  0.41186  1.0000
  H   H59       1.0  0.32693  0.59194  0.41763  1.0000
  H   H60       1.0  0.21981  0.80562  0.38271  1.0000
  N   N15       1.0  0.15201  0.13137  0.38138  1.0000
  C   C101      1.0  0.17239  0.16015  0.38213  1.0000
  C   C102      1.0  0.15080  0.18932  0.37218  1.0000
  H   H61       1.0  0.20310  0.16032  0.38986  1.0000
  N   N16       1.0  0.16821  0.21956  0.37244  1.0000
  N   N17       1.0  0.80929  0.91627  0.38180  1.0000
  C   C103      1.0  0.78891  0.88747  0.38260  1.0000
  C   C104      1.0  0.81026  0.85853  0.37227  1.0000
  H   H62       1.0  0.75840  0.88713  0.39067  1.0000
  N   N18       1.0  0.79285  0.82829  0.37263  1.0000
  C   C105      1.0  0.83581  0.13808  0.38840  1.0000
  C   C106      1.0  0.81128  0.20240  0.38540  1.0000
  N   N19       1.0  0.78382  0.17794  0.38625  1.0000
  C   C107      1.0  0.79419  0.14607  0.38785  1.0000
  C   C108      1.0  0.76406  0.12271  0.38881  1.0000
  O   O23       1.0  0.73307  0.12829  0.34459  1.0000
  O   O24       1.0  0.75988  0.10367  0.45397  1.0000
  H   H63       1.0  0.77840  0.09960  0.49704  1.0000
  N   N20       1.0  0.84903  0.10714  0.38814  1.0000
  N   N21       1.0  0.80214  0.23402  0.38301  1.0000
  C   C109      1.0  0.12563  0.90939  0.38806  1.0000
  C   C110      1.0  0.15005  0.84513  0.38507  1.0000
  N   N22       1.0  0.17755  0.86957  0.38581  1.0000
  C   C111      1.0  0.16724  0.90140  0.38747  1.0000
  C   C112      1.0  0.19745  0.92468  0.38818  1.0000
  O   O25       1.0  0.22762  0.92021  0.34437  1.0000
  O   O26       1.0  0.20280  0.94255  0.45290  1.0000
  H   H64       1.0  0.18519  0.94569  0.49589  1.0000
  N   N23       1.0  0.11242  0.94034  0.38776  1.0000
  N   N24       1.0  0.15913  0.81356  0.38266  1.0000
  N   N25       1.0  0.29033  0.49906  0.37600  1.0000
  C   C113      1.0  0.29705  0.53089  0.38667  1.0000
  C   C114      1.0  0.26383  0.55174  0.39316  1.0000
  H   H65       1.0  0.32616  0.53893  0.38844  1.0000
  N   N26       1.0  0.26654  0.58428  0.40145  1.0000
  N   N27       1.0  0.67071  0.54867  0.37636  1.0000
  C   C115      1.0  0.66424  0.51659  0.38701  1.0000
  C   C116      1.0  0.69763  0.49561  0.39380  1.0000
  H   H66       1.0  0.63518  0.50849  0.38844  1.0000
  N   N28       1.0  0.69510  0.46288  0.40201  1.0000
  C   C117      1.0  0.01066  0.34183  0.38514  1.0000
  C   C118      1.0  0.92604  0.34360  0.38201  1.0000
  N   N29       1.0  0.94660  0.31548  0.38373  1.0000
  C   C119      1.0  0.98748  0.31298  0.38534  1.0000
  C   C120      1.0  0.00412  0.28233  0.38831  1.0000
  O   O27       1.0  0.98858  0.26170  0.34137  1.0000
  O   O28       1.0  0.02288  0.27165  0.45608  1.0000
  H   H67       1.0  0.03304  0.28348  0.50009  1.0000
  N   N30       1.0  0.05144  0.33978  0.38236  1.0000
  N   N31       1.0  0.88543  0.34014  0.37899  1.0000
  C   C121      1.0  0.95063  0.70574  0.38511  1.0000
  C   C122      1.0  0.03518  0.70403  0.38189  1.0000
  N   N32       1.0  0.01466  0.73211  0.38353  1.0000
  C   C123      1.0  0.97382  0.73458  0.38516  1.0000
  C   C124      1.0  0.95725  0.76518  0.38802  1.0000
  O   O29       1.0  0.97150  0.78663  0.33988  1.0000
  O   O30       1.0  0.94009  0.77437  0.45595  1.0000
  H   H68       1.0  0.93109  0.76158  0.50024  1.0000
  N   N33       1.0  0.90979  0.70787  0.38226  1.0000
  N   N34       1.0  0.07572  0.70755  0.37881  1.0000
  C   C125      1.0  0.42734  0.33542  0.37072  1.0000
  N   N35       1.0  0.44372  0.33657  0.45608  1.0000
  C   C126      1.0  0.48400  0.34054  0.47392  1.0000
  C   C127      1.0  0.51129  0.34229  0.40197  1.0000
  H   H69       1.0  0.49411  0.34197  0.53959  1.0000
  N   N36       1.0  0.38662  0.33745  0.35665  1.0000
  N   N37       1.0  0.55111  0.34906  0.41719  1.0000
  C   C128      1.0  0.53364  0.71237  0.37089  1.0000
  N   N38       1.0  0.51909  0.70942  0.45623  1.0000
  C   C129      1.0  0.47919  0.70505  0.47402  1.0000
  C   C130      1.0  0.45037  0.70483  0.40202  1.0000
  H   H70       1.0  0.47047  0.70224  0.53969  1.0000
  N   N39       1.0  0.57406  0.71070  0.35676  1.0000
  N   N40       1.0  0.41086  0.69775  0.41713  1.0000
