data_image0
_chemical_formula_structural       C4NC4NH4N2C3NC2NHOHCHC3NC2NHOHCHC2HC2H3N2C3H2CHC3H2CHC4NC4NH4N2C3NC2NHOHCHC3NC2NHOHCHC2HC2H3N2C3H2CHC3H2CHC4NC4NH4N2C3NC2NHOHCHC3NC2NHOHCHC2HC2H3N2C3H2CHC3H2CHC4NC4NH4N2C3NC2NHOHCHC3NC2NHOHCHC2HC2H3N2C3H2CHC3H2CH
_chemical_formula_sum              "C128 N40 H80 O8"
_cell_length_a       31.5292
_cell_length_b       31.5292
_cell_length_c       14.9711
_cell_angle_alpha    90
_cell_angle_beta     90
_cell_angle_gamma    90

_space_group_name_H-M_alt    "P 1"
_space_group_IT_number       1

loop_
  _space_group_symop_operation_xyz
  'x, y, z'

loop_
  _atom_site_type_symbol
  _atom_site_label
  _atom_site_symmetry_multiplicity
  _atom_site_fract_x
  _atom_site_fract_y
  _atom_site_fract_z
  _atom_site_occupancy
  C   C1        1.0  0.00657  0.49536  0.31103  1.0000
  C   C2        1.0  0.07194  0.43013  0.31709  1.0000
  C   C3        1.0  0.08299  0.47359  0.31118  1.0000
  C   C4        1.0  0.05088  0.50487  0.30919  1.0000
  N   N1        1.0  0.10240  0.39979  0.32972  1.0000
  C   C5        1.0  0.47407  0.02783  0.31207  1.0000
  C   C6        1.0  0.42980  0.01847  0.31139  1.0000
  C   C7        1.0  0.39759  0.04965  0.31671  1.0000
  C   C8        1.0  0.40868  0.09312  0.32354  1.0000
  N   N2        1.0  0.37808  0.12368  0.33139  1.0000
  H   H1        1.0  0.34818  0.11674  0.33601  1.0000
  H   H2        1.0  0.13163  0.40734  0.34182  1.0000
  H   H3        1.0  0.06127  0.03527  0.30483  1.0000
  H   H4        1.0  0.41970  0.48804  0.30711  1.0000
  N   N3        1.0  0.35570  0.03989  0.31184  1.0000
  N   N4        1.0  0.12482  0.48313  0.30557  1.0000
  C   C9        1.0  0.99620  0.21478  0.30000  1.0000
  C   C10       1.0  0.03184  0.24012  0.27449  1.0000
  C   C11       1.0  0.02811  0.28540  0.27540  1.0000
  N   N5        1.0  0.06186  0.30844  0.24643  1.0000
  C   C12       1.0  0.09897  0.29182  0.21839  1.0000
  C   C13       1.0  0.10318  0.24769  0.21825  1.0000
  N   N6        1.0  0.06992  0.22355  0.24577  1.0000
  H   H5        1.0  0.12299  0.31117  0.19747  1.0000
  O   O1        1.0  0.13967  0.22973  0.18931  1.0000
  H   H6        1.0  0.07431  0.19322  0.24211  1.0000
  C   C14       1.0  0.99733  0.16982  0.30383  1.0000
  H   H7        1.0  0.02488  0.15384  0.29345  1.0000
  C   C15       1.0  0.28705  0.00586  0.29535  1.0000
  C   C16       1.0  0.26169  0.97018  0.27009  1.0000
  C   C17       1.0  0.21641  0.97394  0.27103  1.0000
  N   N7        1.0  0.19334  0.94012  0.24248  1.0000
  C   C18       1.0  0.20994  0.90292  0.21489  1.0000
  C   C19       1.0  0.25408  0.89870  0.21474  1.0000
  N   N8        1.0  0.27824  0.93202  0.24183  1.0000
  H   H8        1.0  0.19058  0.87886  0.19425  1.0000
  O   O2        1.0  0.27201  0.86212  0.18623  1.0000
  H   H9        1.0  0.30857  0.92761  0.23817  1.0000
  C   C20       1.0  0.33201  0.00467  0.29945  1.0000
  H   H10       1.0  0.34796  0.97708  0.28946  1.0000
  C   C21       1.0  0.99710  0.45103  0.31163  1.0000
  C   C22       1.0  0.02845  0.41899  0.31322  1.0000
  H   H11       1.0  0.46667  0.44056  0.31043  1.0000
  C   C23       1.0  0.45220  0.10426  0.31871  1.0000
  C   C24       1.0  0.48344  0.07208  0.31387  1.0000
  H   H12       1.0  0.01392  0.08222  0.31298  1.0000
  H   H13       1.0  0.38501  0.15354  0.33743  1.0000
  H   H14       1.0  0.09500  0.37068  0.34339  1.0000
  N   N9        1.0  0.46199  0.14617  0.31506  1.0000
  N   N10       1.0  0.01894  0.37711  0.30883  1.0000
  C   C25       1.0  0.99002  0.30629  0.30150  1.0000
  C   C26       1.0  0.95481  0.28045  0.32185  1.0000
  C   C27       1.0  0.95790  0.23607  0.32151  1.0000
  H   H15       1.0  0.93143  0.21949  0.34002  1.0000
  H   H16       1.0  0.92650  0.29376  0.34047  1.0000
  C   C28       1.0  0.98516  0.35089  0.30851  1.0000
  H   H17       1.0  0.95594  0.36372  0.32110  1.0000
  C   C29       1.0  0.19555  0.01210  0.29667  1.0000
  C   C30       1.0  0.22140  0.04736  0.31654  1.0000
  C   C31       1.0  0.26578  0.04422  0.31641  1.0000
  H   H18       1.0  0.28236  0.07072  0.33467  1.0000
  H   H19       1.0  0.20811  0.07571  0.33494  1.0000
  C   C32       1.0  0.15095  0.01698  0.30376  1.0000
  H   H20       1.0  0.13812  0.04621  0.31623  1.0000
  C   C33       1.0  0.00657  0.99536  0.31103  1.0000
  C   C34       1.0  0.07194  0.93013  0.31709  1.0000
  C   C35       1.0  0.08299  0.97359  0.31118  1.0000
  C   C36       1.0  0.05088  0.00487  0.30919  1.0000
  N   N11       1.0  0.10240  0.89979  0.32972  1.0000
  C   C37       1.0  0.47407  0.52783  0.31207  1.0000
  C   C38       1.0  0.42980  0.51846  0.31139  1.0000
  C   C39       1.0  0.39759  0.54965  0.31671  1.0000
  C   C40       1.0  0.40868  0.59313  0.32354  1.0000
  N   N12       1.0  0.37808  0.62368  0.33139  1.0000
  H   H21       1.0  0.34818  0.61674  0.33601  1.0000
  H   H22       1.0  0.13163  0.90734  0.34182  1.0000
  H   H23       1.0  0.06127  0.53527  0.30483  1.0000
  H   H24       1.0  0.41970  0.98804  0.30711  1.0000
  N   N13       1.0  0.35570  0.53989  0.31184  1.0000
  N   N14       1.0  0.12482  0.98313  0.30557  1.0000
  C   C41       1.0  0.99620  0.71479  0.30000  1.0000
  C   C42       1.0  0.03184  0.74012  0.27449  1.0000
  C   C43       1.0  0.02811  0.78540  0.27540  1.0000
  N   N15       1.0  0.06186  0.80844  0.24643  1.0000
  C   C44       1.0  0.09897  0.79182  0.21839  1.0000
  C   C45       1.0  0.10318  0.74769  0.21825  1.0000
  N   N16       1.0  0.06992  0.72355  0.24577  1.0000
  H   H25       1.0  0.12299  0.81116  0.19747  1.0000
  O   O3        1.0  0.13967  0.72973  0.18931  1.0000
  H   H26       1.0  0.07431  0.69322  0.24211  1.0000
  C   C46       1.0  0.99733  0.66982  0.30383  1.0000
  H   H27       1.0  0.02488  0.65384  0.29345  1.0000
  C   C47       1.0  0.28705  0.50586  0.29535  1.0000
  C   C48       1.0  0.26169  0.47018  0.27009  1.0000
  C   C49       1.0  0.21641  0.47394  0.27103  1.0000
  N   N17       1.0  0.19334  0.44012  0.24248  1.0000
  C   C50       1.0  0.20994  0.40292  0.21489  1.0000
  C   C51       1.0  0.25408  0.39870  0.21474  1.0000
  N   N18       1.0  0.27824  0.43202  0.24183  1.0000
  H   H28       1.0  0.19058  0.37886  0.19425  1.0000
  O   O4        1.0  0.27201  0.36212  0.18623  1.0000
  H   H29       1.0  0.30857  0.42761  0.23817  1.0000
  C   C52       1.0  0.33201  0.50467  0.29945  1.0000
  H   H30       1.0  0.34796  0.47708  0.28946  1.0000
  C   C53       1.0  0.99710  0.95103  0.31163  1.0000
  C   C54       1.0  0.02845  0.91899  0.31322  1.0000
  H   H31       1.0  0.46667  0.94056  0.31043  1.0000
  C   C55       1.0  0.45220  0.60426  0.31871  1.0000
  C   C56       1.0  0.48344  0.57209  0.31387  1.0000
  H   H32       1.0  0.01392  0.58222  0.31298  1.0000
  H   H33       1.0  0.38501  0.65354  0.33743  1.0000
  H   H34       1.0  0.09500  0.87069  0.34339  1.0000
  N   N19       1.0  0.46199  0.64617  0.31506  1.0000
  N   N20       1.0  0.01894  0.87711  0.30883  1.0000
  C   C57       1.0  0.99002  0.80629  0.30150  1.0000
  C   C58       1.0  0.95481  0.78045  0.32185  1.0000
  C   C59       1.0  0.95790  0.73607  0.32151  1.0000
  H   H35       1.0  0.93143  0.71949  0.34002  1.0000
  H   H36       1.0  0.92650  0.79376  0.34047  1.0000
  C   C60       1.0  0.98516  0.85089  0.30851  1.0000
  H   H37       1.0  0.95594  0.86372  0.32110  1.0000
  C   C61       1.0  0.19555  0.51210  0.29667  1.0000
  C   C62       1.0  0.22140  0.54736  0.31654  1.0000
  C   C63       1.0  0.26578  0.54422  0.31641  1.0000
  H   H38       1.0  0.28236  0.57072  0.33467  1.0000
  H   H39       1.0  0.20811  0.57571  0.33494  1.0000
  C   C64       1.0  0.15095  0.51698  0.30376  1.0000
  H   H40       1.0  0.13812  0.54621  0.31623  1.0000
  C   C65       1.0  0.50657  0.49536  0.31103  1.0000
  C   C66       1.0  0.57194  0.43013  0.31709  1.0000
  C   C67       1.0  0.58299  0.47359  0.31118  1.0000
  C   C68       1.0  0.55088  0.50487  0.30919  1.0000
  N   N21       1.0  0.60240  0.39979  0.32972  1.0000
  C   C69       1.0  0.97407  0.02783  0.31207  1.0000
  C   C70       1.0  0.92980  0.01847  0.31139  1.0000
  C   C71       1.0  0.89759  0.04965  0.31671  1.0000
  C   C72       1.0  0.90868  0.09312  0.32354  1.0000
  N   N22       1.0  0.87808  0.12368  0.33139  1.0000
  H   H41       1.0  0.84818  0.11674  0.33601  1.0000
  H   H42       1.0  0.63163  0.40734  0.34182  1.0000
  H   H43       1.0  0.56127  0.03527  0.30483  1.0000
  H   H44       1.0  0.91970  0.48804  0.30711  1.0000
  N   N23       1.0  0.85570  0.03989  0.31184  1.0000
  N   N24       1.0  0.62482  0.48313  0.30557  1.0000
  C   C73       1.0  0.49620  0.21478  0.30000  1.0000
  C   C74       1.0  0.53184  0.24012  0.27449  1.0000
  C   C75       1.0  0.52811  0.28540  0.27540  1.0000
  N   N25       1.0  0.56187  0.30844  0.24643  1.0000
  C   C76       1.0  0.59897  0.29182  0.21839  1.0000
  C   C77       1.0  0.60318  0.24769  0.21825  1.0000
  N   N26       1.0  0.56992  0.22355  0.24577  1.0000
  H   H45       1.0  0.62299  0.31117  0.19747  1.0000
  O   O5        1.0  0.63967  0.22973  0.18931  1.0000
  H   H46       1.0  0.57431  0.19322  0.24211  1.0000
  C   C78       1.0  0.49733  0.16982  0.30383  1.0000
  H   H47       1.0  0.52487  0.15384  0.29345  1.0000
  C   C79       1.0  0.78705  0.00586  0.29535  1.0000
  C   C80       1.0  0.76169  0.97018  0.27009  1.0000
  C   C81       1.0  0.71641  0.97394  0.27103  1.0000
  N   N27       1.0  0.69334  0.94012  0.24248  1.0000
  C   C82       1.0  0.70995  0.90292  0.21489  1.0000
  C   C83       1.0  0.75408  0.89870  0.21474  1.0000
  N   N28       1.0  0.77824  0.93202  0.24183  1.0000
  H   H48       1.0  0.69059  0.87886  0.19425  1.0000
  O   O6        1.0  0.77201  0.86212  0.18623  1.0000
  H   H49       1.0  0.80857  0.92761  0.23817  1.0000
  C   C84       1.0  0.83201  0.00467  0.29945  1.0000
  H   H50       1.0  0.84796  0.97708  0.28946  1.0000
  C   C85       1.0  0.49710  0.45103  0.31163  1.0000
  C   C86       1.0  0.52845  0.41899  0.31322  1.0000
  H   H51       1.0  0.96667  0.44056  0.31043  1.0000
  C   C87       1.0  0.95220  0.10426  0.31871  1.0000
  C   C88       1.0  0.98344  0.07208  0.31387  1.0000
  H   H52       1.0  0.51392  0.08222  0.31298  1.0000
  H   H53       1.0  0.88501  0.15354  0.33743  1.0000
  H   H54       1.0  0.59500  0.37068  0.34339  1.0000
  N   N29       1.0  0.96199  0.14617  0.31506  1.0000
  N   N30       1.0  0.51894  0.37711  0.30883  1.0000
  C   C89       1.0  0.49002  0.30629  0.30150  1.0000
  C   C90       1.0  0.45481  0.28045  0.32185  1.0000
  C   C91       1.0  0.45790  0.23607  0.32151  1.0000
  H   H55       1.0  0.43143  0.21949  0.34002  1.0000
  H   H56       1.0  0.42650  0.29376  0.34047  1.0000
  C   C92       1.0  0.48516  0.35089  0.30851  1.0000
  H   H57       1.0  0.45594  0.36372  0.32110  1.0000
  C   C93       1.0  0.69555  0.01210  0.29667  1.0000
  C   C94       1.0  0.72140  0.04736  0.31654  1.0000
  C   C95       1.0  0.76578  0.04422  0.31641  1.0000
  H   H58       1.0  0.78236  0.07072  0.33467  1.0000
  H   H59       1.0  0.70811  0.07571  0.33494  1.0000
  C   C96       1.0  0.65095  0.01698  0.30376  1.0000
  H   H60       1.0  0.63812  0.04621  0.31623  1.0000
  C   C97       1.0  0.50657  0.99536  0.31103  1.0000
  C   C98       1.0  0.57194  0.93013  0.31709  1.0000
  C   C99       1.0  0.58299  0.97359  0.31118  1.0000
  C   C100      1.0  0.55088  0.00487  0.30919  1.0000
  N   N31       1.0  0.60240  0.89979  0.32972  1.0000
  C   C101      1.0  0.97407  0.52783  0.31207  1.0000
  C   C102      1.0  0.92980  0.51846  0.31139  1.0000
  C   C103      1.0  0.89759  0.54965  0.31671  1.0000
  C   C104      1.0  0.90868  0.59313  0.32354  1.0000
  N   N32       1.0  0.87808  0.62368  0.33139  1.0000
  H   H61       1.0  0.84818  0.61674  0.33601  1.0000
  H   H62       1.0  0.63163  0.90734  0.34182  1.0000
  H   H63       1.0  0.56127  0.53527  0.30483  1.0000
  H   H64       1.0  0.91970  0.98804  0.30711  1.0000
  N   N33       1.0  0.85570  0.53989  0.31184  1.0000
  N   N34       1.0  0.62482  0.98313  0.30557  1.0000
  C   C105      1.0  0.49620  0.71479  0.30000  1.0000
  C   C106      1.0  0.53184  0.74012  0.27449  1.0000
  C   C107      1.0  0.52811  0.78540  0.27540  1.0000
  N   N35       1.0  0.56187  0.80844  0.24643  1.0000
  C   C108      1.0  0.59897  0.79182  0.21839  1.0000
  C   C109      1.0  0.60318  0.74769  0.21825  1.0000
  N   N36       1.0  0.56992  0.72355  0.24577  1.0000
  H   H65       1.0  0.62299  0.81116  0.19747  1.0000
  O   O7        1.0  0.63967  0.72973  0.18931  1.0000
  H   H66       1.0  0.57431  0.69322  0.24211  1.0000
  C   C110      1.0  0.49733  0.66982  0.30383  1.0000
  H   H67       1.0  0.52487  0.65384  0.29345  1.0000
  C   C111      1.0  0.78705  0.50586  0.29535  1.0000
  C   C112      1.0  0.76169  0.47018  0.27009  1.0000
  C   C113      1.0  0.71641  0.47394  0.27103  1.0000
  N   N37       1.0  0.69334  0.44012  0.24248  1.0000
  C   C114      1.0  0.70995  0.40292  0.21489  1.0000
  C   C115      1.0  0.75408  0.39870  0.21474  1.0000
  N   N38       1.0  0.77824  0.43202  0.24183  1.0000
  H   H68       1.0  0.69059  0.37886  0.19425  1.0000
  O   O8        1.0  0.77201  0.36212  0.18623  1.0000
  H   H69       1.0  0.80857  0.42761  0.23817  1.0000
  C   C116      1.0  0.83201  0.50467  0.29945  1.0000
  H   H70       1.0  0.84796  0.47708  0.28946  1.0000
  C   C117      1.0  0.49710  0.95103  0.31163  1.0000
  C   C118      1.0  0.52845  0.91899  0.31322  1.0000
  H   H71       1.0  0.96667  0.94056  0.31043  1.0000
  C   C119      1.0  0.95220  0.60426  0.31871  1.0000
  C   C120      1.0  0.98344  0.57209  0.31387  1.0000
  H   H72       1.0  0.51392  0.58222  0.31298  1.0000
  H   H73       1.0  0.88501  0.65354  0.33743  1.0000
  H   H74       1.0  0.59500  0.87069  0.34339  1.0000
  N   N39       1.0  0.96199  0.64617  0.31506  1.0000
  N   N40       1.0  0.51894  0.87711  0.30883  1.0000
  C   C121      1.0  0.49002  0.80629  0.30150  1.0000
  C   C122      1.0  0.45481  0.78045  0.32185  1.0000
  C   C123      1.0  0.45790  0.73607  0.32151  1.0000
  H   H75       1.0  0.43143  0.71949  0.34002  1.0000
  H   H76       1.0  0.42650  0.79376  0.34047  1.0000
  C   C124      1.0  0.48516  0.85089  0.30851  1.0000
  H   H77       1.0  0.45594  0.86372  0.32110  1.0000
  C   C125      1.0  0.69555  0.51210  0.29667  1.0000
  C   C126      1.0  0.72140  0.54736  0.31654  1.0000
  C   C127      1.0  0.76578  0.54422  0.31641  1.0000
  H   H78       1.0  0.78236  0.57072  0.33467  1.0000
  H   H79       1.0  0.70811  0.57571  0.33494  1.0000
  C   C128      1.0  0.65095  0.51698  0.30376  1.0000
  H   H80       1.0  0.63812  0.54621  0.31623  1.0000
