data_image0
_chemical_formula_structural       C3NHC2H2C3NHC2H4N4CHC3NHC3HN4CHC3NHC3HCNH2CHCHCNH2CNH2CHCHCNH2C3NH3C5NH3C6N2H4N8C3H2C3H2C3HC3H2C2HC4NH3C4NH3C4NH3C4NH3C3NH3C5NH3C6N2H4N8C3H2C3H2C3HC3H2C2HC4NH3C4NH3C4NH3C4NH3C6N2H3C6N2H4C6N2H4N12C3H2C3H2C3H2C3H2C3H2C3H2C4NH3C4NH3C4NH3C4NH3C4NH3C4NH3C6N2H3C6N2H4C6N2H4N12C3H2C3H2C3H2C3H2C3H2C3H2C4NH3C4NH3C4NH3C4NH3C4NH3C4NH3
_chemical_formula_sum              "C240 N96 H168"
_cell_length_a       45.923
_cell_length_b       45.923
_cell_length_c       14.8741
_cell_angle_alpha    90
_cell_angle_beta     90
_cell_angle_gamma    120

_space_group_name_H-M_alt    "P 1"
_space_group_IT_number       1

loop_
  _space_group_symop_operation_xyz
  'x, y, z'

loop_
  _atom_site_type_symbol
  _atom_site_label
  _atom_site_symmetry_multiplicity
  _atom_site_fract_x
  _atom_site_fract_y
  _atom_site_fract_z
  _atom_site_occupancy
  C   C1        1.0  0.02464  0.26330  0.30448  1.0000
  C   C2        1.0  0.04518  0.29953  0.29780  1.0000
  C   C3        1.0  0.07737  0.31684  0.34102  1.0000
  N   N1        1.0  0.03489  0.31764  0.24797  1.0000
  H   H1        1.0  0.04856  0.34184  0.24105  1.0000
  C   C4        1.0  0.07655  0.26281  0.35309  1.0000
  C   C5        1.0  0.04257  0.24613  0.32629  1.0000
  H   H2        1.0  0.03043  0.22070  0.33367  1.0000
  H   H3        1.0  0.08325  0.25575  0.53196  1.0000
  C   C6        1.0  0.02464  0.76330  0.30448  1.0000
  C   C7        1.0  0.04518  0.79952  0.29780  1.0000
  C   C8        1.0  0.07737  0.81684  0.34102  1.0000
  N   N2        1.0  0.03489  0.81763  0.24797  1.0000
  H   H4        1.0  0.04856  0.84183  0.24105  1.0000
  C   C9        1.0  0.07654  0.76281  0.35309  1.0000
  C   C10       1.0  0.04257  0.74613  0.32629  1.0000
  H   H5        1.0  0.03043  0.72070  0.33367  1.0000
  H   H6        1.0  0.08325  0.75575  0.53196  1.0000
  H   H7        1.0  0.01625  0.30637  0.20609  1.0000
  H   H8        1.0  0.01625  0.80637  0.20609  1.0000
  N   N3        1.0  0.10949  0.24313  0.28578  1.0000
  N   N4        1.0  0.13834  0.24372  0.28037  1.0000
  N   N5        1.0  0.14209  0.40046  0.28375  1.0000
  N   N6        1.0  0.11381  0.37161  0.27903  1.0000
  C   C11       1.0  0.09225  0.29766  0.36715  1.0000
  H   H9        1.0  0.11691  0.30990  0.38776  1.0000
  C   C12       1.0  0.14569  0.25166  0.43684  1.0000
  C   C13       1.0  0.11494  0.25154  0.44345  1.0000
  C   C14       1.0  0.09605  0.24695  0.36363  1.0000
  N   N7        1.0  0.10487  0.25696  0.52468  1.0000
  H   H10       1.0  0.11785  0.25977  0.57900  1.0000
  C   C15       1.0  0.09842  0.35218  0.35221  1.0000
  C   C16       1.0  0.11434  0.36520  0.43590  1.0000
  C   C17       1.0  0.14501  0.39595  0.44160  1.0000
  H   H11       1.0  0.10504  0.35059  0.49232  1.0000
  N   N8        1.0  0.10949  0.74313  0.28578  1.0000
  N   N9        1.0  0.13834  0.74372  0.28037  1.0000
  N   N10       1.0  0.14209  0.90046  0.28375  1.0000
  N   N11       1.0  0.11381  0.87161  0.27903  1.0000
  C   C18       1.0  0.09225  0.79766  0.36715  1.0000
  H   H12       1.0  0.11691  0.80990  0.38776  1.0000
  C   C19       1.0  0.14569  0.75166  0.43684  1.0000
  C   C20       1.0  0.11494  0.75154  0.44345  1.0000
  C   C21       1.0  0.09605  0.74695  0.36363  1.0000
  N   N12       1.0  0.10487  0.75696  0.52468  1.0000
  H   H13       1.0  0.11785  0.75977  0.57900  1.0000
  C   C22       1.0  0.09842  0.85217  0.35221  1.0000
  C   C23       1.0  0.11434  0.86520  0.43590  1.0000
  C   C24       1.0  0.14501  0.89595  0.44160  1.0000
  H   H14       1.0  0.10504  0.85059  0.49232  1.0000
  C   C25       1.0  0.19358  0.26259  0.34118  1.0000
  N   N13       1.0  0.19267  0.21908  0.24893  1.0000
  H   H15       1.0  0.16847  0.20858  0.24206  1.0000
  H   H16       1.0  0.20062  0.30928  0.38648  1.0000
  C   C26       1.0  0.19466  0.43380  0.35035  1.0000
  H   H17       1.0  0.19897  0.48019  0.33355  1.0000
  C   C27       1.0  0.15826  0.24832  0.35283  1.0000
  H   H18       1.0  0.16054  0.25717  0.49284  1.0000
  C   C28       1.0  0.15933  0.41448  0.36128  1.0000
  N   N14       1.0  0.16057  0.40639  0.52262  1.0000
  H   H19       1.0  0.15056  0.39357  0.57727  1.0000
  H   H20       1.0  0.18117  0.42789  0.52924  1.0000
  C   C29       1.0  0.19358  0.76259  0.34119  1.0000
  N   N15       1.0  0.19267  0.71908  0.24893  1.0000
  H   H21       1.0  0.16847  0.70858  0.24206  1.0000
  H   H22       1.0  0.20062  0.80928  0.38648  1.0000
  C   C30       1.0  0.19466  0.93380  0.35035  1.0000
  H   H23       1.0  0.19896  0.98019  0.33355  1.0000
  C   C31       1.0  0.15826  0.74832  0.35283  1.0000
  H   H24       1.0  0.16054  0.75717  0.49284  1.0000
  C   C32       1.0  0.15933  0.91448  0.36128  1.0000
  N   N16       1.0  0.16057  0.90639  0.52262  1.0000
  H   H25       1.0  0.15056  0.89357  0.57727  1.0000
  H   H26       1.0  0.18117  0.92789  0.52924  1.0000
  C   C33       1.0  0.48805  0.24495  0.30418  1.0000
  C   C34       1.0  0.43503  0.19146  0.33921  1.0000
  C   C35       1.0  0.46747  0.20873  0.29725  1.0000
  N   N17       1.0  0.47794  0.19057  0.24827  1.0000
  H   H27       1.0  0.99658  0.20188  0.20641  1.0000
  H   H28       1.0  0.46396  0.16644  0.24043  1.0000
  H   H29       1.0  0.51625  0.30637  0.20609  1.0000
  C   C36       1.0  0.26545  0.24504  0.30466  1.0000
  C   C37       1.0  0.31901  0.24567  0.33949  1.0000
  C   C38       1.0  0.30166  0.26070  0.29731  1.0000
  C   C39       1.0  0.24708  0.26327  0.30482  1.0000
  C   C40       1.0  0.21085  0.24759  0.29832  1.0000
  N   N18       1.0  0.31972  0.28921  0.24780  1.0000
  H   H30       1.0  0.30834  0.29643  0.20590  1.0000
  H   H31       1.0  0.34384  0.29934  0.23972  1.0000
  H   H32       1.0  0.20389  0.21162  0.20713  1.0000
  C   C41       1.0  0.26556  0.02253  0.30454  1.0000
  C   C42       1.0  0.26485  0.07534  0.34067  1.0000
  C   C43       1.0  0.24988  0.04308  0.29782  1.0000
  C   C44       1.0  0.24732  0.48594  0.30433  1.0000
  C   C45       1.0  0.26299  0.46538  0.29714  1.0000
  C   C46       1.0  0.24784  0.43292  0.33892  1.0000
  N   N19       1.0  0.22140  0.03274  0.24827  1.0000
  N   N20       1.0  0.29161  0.47587  0.24810  1.0000
  H   H33       1.0  0.21415  0.51416  0.20622  1.0000
  H   H34       1.0  0.21106  0.04655  0.24080  1.0000
  H   H35       1.0  0.30172  0.46188  0.23997  1.0000
  H   H36       1.0  0.29885  0.99449  0.20622  1.0000
  N   N21       1.0  0.26719  0.36827  0.28420  1.0000
  N   N22       1.0  0.26661  0.39653  0.27847  1.0000
  N   N23       1.0  0.40270  0.26453  0.28338  1.0000
  N   N24       1.0  0.37382  0.26389  0.27813  1.0000
  N   N25       1.0  0.24565  0.14006  0.28486  1.0000
  N   N26       1.0  0.24626  0.11182  0.27942  1.0000
  N   N27       1.0  0.37043  0.10728  0.28480  1.0000
  N   N28       1.0  0.39865  0.13616  0.27902  1.0000
  C   C47       1.0  0.47012  0.26216  0.32562  1.0000
  C   C48       1.0  0.43593  0.24553  0.35026  1.0000
  C   C49       1.0  0.42005  0.21067  0.36412  1.0000
  H   H37       1.0  0.48232  0.28758  0.33335  1.0000
  H   H38       1.0  0.39528  0.19846  0.38381  1.0000
  C   C50       1.0  0.24828  0.20994  0.32647  1.0000
  C   C51       1.0  0.26499  0.19250  0.35157  1.0000
  C   C52       1.0  0.29987  0.21154  0.36500  1.0000
  H   H39       1.0  0.22287  0.19670  0.33422  1.0000
  H   H40       1.0  0.31214  0.19909  0.38514  1.0000
  C   C53       1.0  0.21281  0.29676  0.36633  1.0000
  C   C54       1.0  0.24766  0.31582  0.35223  1.0000
  C   C55       1.0  0.26430  0.29840  0.32626  1.0000
  H   H41       1.0  0.28974  0.31169  0.33324  1.0000
  C   C56       1.0  0.30068  0.04045  0.32619  1.0000
  C   C57       1.0  0.31803  0.07447  0.35254  1.0000
  C   C58       1.0  0.29893  0.09023  0.36655  1.0000
  H   H42       1.0  0.31394  0.02829  0.33371  1.0000
  H   H43       1.0  0.31142  0.11494  0.38675  1.0000
  C   C59       1.0  0.21364  0.41789  0.36376  1.0000
  C   C60       1.0  0.21219  0.46800  0.32582  1.0000
  H   H44       1.0  0.20111  0.39312  0.38344  1.0000
  C   C61       1.0  0.26224  0.41201  0.35092  1.0000
  C   C62       1.0  0.25904  0.39629  0.43512  1.0000
  C   C63       1.0  0.25915  0.36567  0.44202  1.0000
  C   C64       1.0  0.26359  0.35120  0.36228  1.0000
  N   N29       1.0  0.25385  0.35032  0.52342  1.0000
  H   H45       1.0  0.25114  0.36060  0.57767  1.0000
  H   H46       1.0  0.25505  0.32991  0.53089  1.0000
  H   H47       1.0  0.25359  0.40573  0.49103  1.0000
  C   C65       1.0  0.35434  0.26006  0.35106  1.0000
  C   C66       1.0  0.36723  0.25724  0.43503  1.0000
  C   C67       1.0  0.39802  0.25741  0.44136  1.0000
  C   C68       1.0  0.41668  0.26161  0.36139  1.0000
  N   N30       1.0  0.40837  0.25234  0.52256  1.0000
  H   H48       1.0  0.39556  0.24974  0.57710  1.0000
  H   H49       1.0  0.42997  0.25349  0.52950  1.0000
  H   H50       1.0  0.35256  0.25199  0.49130  1.0000
  C   C69       1.0  0.25051  0.09634  0.35205  1.0000
  C   C70       1.0  0.25359  0.11215  0.43607  1.0000
  C   C71       1.0  0.25344  0.14277  0.44252  1.0000
  C   C72       1.0  0.24900  0.15719  0.36274  1.0000
  N   N31       1.0  0.25877  0.15826  0.52369  1.0000
  H   H51       1.0  0.26153  0.14810  0.57811  1.0000
  H   H52       1.0  0.25763  0.17872  0.53080  1.0000
  H   H53       1.0  0.25897  0.10277  0.49222  1.0000
  C   C73       1.0  0.41411  0.15615  0.35128  1.0000
  C   C74       1.0  0.39834  0.14369  0.43551  1.0000
  C   C75       1.0  0.36776  0.11291  0.44259  1.0000
  C   C76       1.0  0.35341  0.09392  0.36297  1.0000
  N   N32       1.0  0.35238  0.10292  0.52396  1.0000
  H   H54       1.0  0.36259  0.11598  0.57813  1.0000
  H   H55       1.0  0.33200  0.08129  0.53147  1.0000
  H   H56       1.0  0.40774  0.15862  0.49133  1.0000
  C   C77       1.0  0.48805  0.74495  0.30418  1.0000
  C   C78       1.0  0.43503  0.69146  0.33921  1.0000
  C   C79       1.0  0.46747  0.70873  0.29725  1.0000
  N   N33       1.0  0.47794  0.69057  0.24827  1.0000
  H   H57       1.0  0.99657  0.70188  0.20641  1.0000
  H   H58       1.0  0.46396  0.66644  0.24043  1.0000
  H   H59       1.0  0.51625  0.80637  0.20609  1.0000
  C   C80       1.0  0.26544  0.74504  0.30466  1.0000
  C   C81       1.0  0.31901  0.74567  0.33949  1.0000
  C   C82       1.0  0.30166  0.76070  0.29731  1.0000
  C   C83       1.0  0.24708  0.76327  0.30482  1.0000
  C   C84       1.0  0.21084  0.74759  0.29832  1.0000
  N   N34       1.0  0.31972  0.78921  0.24780  1.0000
  H   H60       1.0  0.30834  0.79643  0.20590  1.0000
  H   H61       1.0  0.34384  0.79934  0.23972  1.0000
  H   H62       1.0  0.20389  0.71162  0.20713  1.0000
  C   C85       1.0  0.26556  0.52253  0.30454  1.0000
  C   C86       1.0  0.26485  0.57534  0.34067  1.0000
  C   C87       1.0  0.24988  0.54308  0.29782  1.0000
  C   C88       1.0  0.24732  0.98594  0.30433  1.0000
  C   C89       1.0  0.26299  0.96538  0.29714  1.0000
  C   C90       1.0  0.24784  0.93292  0.33892  1.0000
  N   N35       1.0  0.22140  0.53274  0.24827  1.0000
  N   N36       1.0  0.29161  0.97587  0.24810  1.0000
  H   H63       1.0  0.21415  0.01416  0.20622  1.0000
  H   H64       1.0  0.21106  0.54654  0.24080  1.0000
  H   H65       1.0  0.30172  0.96188  0.23997  1.0000
  H   H66       1.0  0.29885  0.49449  0.20622  1.0000
  N   N37       1.0  0.26719  0.86827  0.28420  1.0000
  N   N38       1.0  0.26661  0.89653  0.27847  1.0000
  N   N39       1.0  0.40269  0.76453  0.28338  1.0000
  N   N40       1.0  0.37382  0.76389  0.27813  1.0000
  N   N41       1.0  0.24565  0.64006  0.28486  1.0000
  N   N42       1.0  0.24626  0.61182  0.27942  1.0000
  N   N43       1.0  0.37043  0.60728  0.28480  1.0000
  N   N44       1.0  0.39865  0.63616  0.27902  1.0000
  C   C91       1.0  0.47012  0.76216  0.32562  1.0000
  C   C92       1.0  0.43593  0.74552  0.35026  1.0000
  C   C93       1.0  0.42005  0.71067  0.36412  1.0000
  H   H67       1.0  0.48232  0.78758  0.33335  1.0000
  H   H68       1.0  0.39528  0.69845  0.38381  1.0000
  C   C94       1.0  0.24828  0.70994  0.32647  1.0000
  C   C95       1.0  0.26499  0.69250  0.35157  1.0000
  C   C96       1.0  0.29987  0.71154  0.36500  1.0000
  H   H69       1.0  0.22287  0.69670  0.33422  1.0000
  H   H70       1.0  0.31214  0.69908  0.38514  1.0000
  C   C97       1.0  0.21282  0.79676  0.36633  1.0000
  C   C98       1.0  0.24766  0.81582  0.35223  1.0000
  C   C99       1.0  0.26430  0.79840  0.32626  1.0000
  H   H71       1.0  0.28974  0.81169  0.33324  1.0000
  C   C100      1.0  0.30068  0.54045  0.32619  1.0000
  C   C101      1.0  0.31803  0.57447  0.35254  1.0000
  C   C102      1.0  0.29893  0.59023  0.36655  1.0000
  H   H72       1.0  0.31394  0.52829  0.33371  1.0000
  H   H73       1.0  0.31142  0.61494  0.38675  1.0000
  C   C103      1.0  0.21364  0.91789  0.36376  1.0000
  C   C104      1.0  0.21219  0.96800  0.32582  1.0000
  H   H74       1.0  0.20111  0.89312  0.38344  1.0000
  C   C105      1.0  0.26224  0.91201  0.35092  1.0000
  C   C106      1.0  0.25904  0.89629  0.43512  1.0000
  C   C107      1.0  0.25915  0.86567  0.44202  1.0000
  C   C108      1.0  0.26359  0.85120  0.36228  1.0000
  N   N45       1.0  0.25385  0.85032  0.52342  1.0000
  H   H75       1.0  0.25114  0.86060  0.57767  1.0000
  H   H76       1.0  0.25505  0.82991  0.53089  1.0000
  H   H77       1.0  0.25359  0.90573  0.49103  1.0000
  C   C109      1.0  0.35434  0.76006  0.35106  1.0000
  C   C110      1.0  0.36723  0.75723  0.43503  1.0000
  C   C111      1.0  0.39802  0.75741  0.44136  1.0000
  C   C112      1.0  0.41668  0.76161  0.36139  1.0000
  N   N46       1.0  0.40837  0.75234  0.52256  1.0000
  H   H78       1.0  0.39556  0.74974  0.57710  1.0000
  H   H79       1.0  0.42997  0.75349  0.52950  1.0000
  H   H80       1.0  0.35256  0.75199  0.49130  1.0000
  C   C113      1.0  0.25051  0.59634  0.35205  1.0000
  C   C114      1.0  0.25359  0.61215  0.43607  1.0000
  C   C115      1.0  0.25344  0.64277  0.44252  1.0000
  C   C116      1.0  0.24900  0.65719  0.36274  1.0000
  N   N47       1.0  0.25877  0.65826  0.52369  1.0000
  H   H81       1.0  0.26153  0.64810  0.57811  1.0000
  H   H82       1.0  0.25763  0.67872  0.53080  1.0000
  H   H83       1.0  0.25897  0.60277  0.49222  1.0000
  C   C117      1.0  0.41411  0.65615  0.35128  1.0000
  C   C118      1.0  0.39834  0.64368  0.43551  1.0000
  C   C119      1.0  0.36776  0.61291  0.44259  1.0000
  C   C120      1.0  0.35341  0.59393  0.36297  1.0000
  N   N48       1.0  0.35237  0.60292  0.52396  1.0000
  H   H84       1.0  0.36259  0.61598  0.57813  1.0000
  H   H85       1.0  0.33200  0.58129  0.53147  1.0000
  H   H86       1.0  0.40774  0.65863  0.49133  1.0000
  C   C121      1.0  0.98805  0.24495  0.30418  1.0000
  C   C122      1.0  0.93503  0.19146  0.33921  1.0000
  C   C123      1.0  0.96747  0.20873  0.29725  1.0000
  C   C124      1.0  0.52464  0.26330  0.30448  1.0000
  C   C125      1.0  0.54518  0.29953  0.29780  1.0000
  C   C126      1.0  0.57737  0.31684  0.34102  1.0000
  N   N49       1.0  0.97794  0.19057  0.24827  1.0000
  N   N50       1.0  0.53489  0.31764  0.24797  1.0000
  H   H87       1.0  0.49657  0.20188  0.20641  1.0000
  H   H88       1.0  0.96396  0.16644  0.24043  1.0000
  H   H89       1.0  0.54856  0.34184  0.24105  1.0000
  C   C127      1.0  0.76545  0.24504  0.30466  1.0000
  C   C128      1.0  0.81901  0.24567  0.33949  1.0000
  C   C129      1.0  0.80166  0.26070  0.29731  1.0000
  C   C130      1.0  0.74708  0.26327  0.30482  1.0000
  C   C131      1.0  0.71084  0.24759  0.29832  1.0000
  C   C132      1.0  0.69358  0.26259  0.34118  1.0000
  N   N51       1.0  0.81972  0.28921  0.24780  1.0000
  N   N52       1.0  0.69267  0.21908  0.24893  1.0000
  H   H90       1.0  0.80834  0.29643  0.20590  1.0000
  H   H91       1.0  0.84384  0.29934  0.23972  1.0000
  H   H92       1.0  0.66847  0.20858  0.24206  1.0000
  H   H93       1.0  0.70388  0.21162  0.20713  1.0000
  C   C133      1.0  0.76556  0.02253  0.30454  1.0000
  C   C134      1.0  0.76485  0.07534  0.34067  1.0000
  C   C135      1.0  0.74989  0.04308  0.29782  1.0000
  C   C136      1.0  0.74732  0.48594  0.30433  1.0000
  C   C137      1.0  0.76298  0.46538  0.29714  1.0000
  C   C138      1.0  0.74784  0.43292  0.33892  1.0000
  N   N53       1.0  0.72140  0.03274  0.24827  1.0000
  N   N54       1.0  0.79161  0.47587  0.24810  1.0000
  H   H94       1.0  0.71415  0.51416  0.20622  1.0000
  H   H95       1.0  0.71106  0.04655  0.24080  1.0000
  H   H96       1.0  0.80172  0.46188  0.23997  1.0000
  H   H97       1.0  0.79885  0.99449  0.20622  1.0000
  N   N55       1.0  0.60949  0.24313  0.28578  1.0000
  N   N56       1.0  0.63834  0.24372  0.28037  1.0000
  N   N57       1.0  0.76719  0.36827  0.28420  1.0000
  N   N58       1.0  0.76661  0.39653  0.27847  1.0000
  N   N59       1.0  0.64209  0.40046  0.28375  1.0000
  N   N60       1.0  0.61381  0.37161  0.27903  1.0000
  N   N61       1.0  0.90270  0.26453  0.28338  1.0000
  N   N62       1.0  0.87382  0.26389  0.27813  1.0000
  N   N63       1.0  0.74565  0.14006  0.28486  1.0000
  N   N64       1.0  0.74626  0.11182  0.27942  1.0000
  N   N65       1.0  0.87043  0.10728  0.28480  1.0000
  N   N66       1.0  0.89865  0.13616  0.27902  1.0000
  C   C139      1.0  0.97012  0.26216  0.32562  1.0000
  C   C140      1.0  0.93593  0.24553  0.35026  1.0000
  C   C141      1.0  0.92005  0.21067  0.36412  1.0000
  H   H98       1.0  0.98232  0.28758  0.33335  1.0000
  H   H99       1.0  0.89528  0.19846  0.38381  1.0000
  C   C142      1.0  0.59225  0.29766  0.36715  1.0000
  C   C143      1.0  0.57655  0.26281  0.35309  1.0000
  C   C144      1.0  0.54257  0.24613  0.32629  1.0000
  H   H100      1.0  0.61691  0.30990  0.38776  1.0000
  H   H101      1.0  0.53043  0.22070  0.33367  1.0000
  C   C145      1.0  0.74828  0.20994  0.32647  1.0000
  C   C146      1.0  0.76499  0.19250  0.35157  1.0000
  C   C147      1.0  0.79987  0.21154  0.36500  1.0000
  H   H102      1.0  0.72286  0.19670  0.33422  1.0000
  H   H103      1.0  0.81214  0.19909  0.38514  1.0000
  C   C148      1.0  0.71281  0.29676  0.36633  1.0000
  C   C149      1.0  0.74767  0.31582  0.35223  1.0000
  C   C150      1.0  0.76430  0.29840  0.32626  1.0000
  H   H104      1.0  0.70062  0.30928  0.38648  1.0000
  H   H105      1.0  0.78974  0.31169  0.33324  1.0000
  C   C151      1.0  0.80068  0.04045  0.32619  1.0000
  C   C152      1.0  0.81803  0.07447  0.35254  1.0000
  C   C153      1.0  0.79893  0.09023  0.36655  1.0000
  H   H106      1.0  0.81393  0.02829  0.33371  1.0000
  H   H107      1.0  0.81142  0.11494  0.38675  1.0000
  C   C154      1.0  0.71364  0.41789  0.36376  1.0000
  C   C155      1.0  0.69466  0.43380  0.35035  1.0000
  C   C156      1.0  0.71219  0.46800  0.32582  1.0000
  H   H108      1.0  0.70111  0.39312  0.38344  1.0000
  H   H109      1.0  0.69897  0.48019  0.33355  1.0000
  C   C157      1.0  0.65826  0.24832  0.35283  1.0000
  C   C158      1.0  0.64569  0.25166  0.43684  1.0000
  C   C159      1.0  0.61494  0.25154  0.44345  1.0000
  C   C160      1.0  0.59605  0.24695  0.36363  1.0000
  N   N67       1.0  0.60487  0.25696  0.52468  1.0000
  H   H110      1.0  0.61785  0.25977  0.57900  1.0000
  H   H111      1.0  0.58325  0.25575  0.53196  1.0000
  H   H112      1.0  0.66054  0.25717  0.49284  1.0000
  C   C161      1.0  0.76224  0.41201  0.35092  1.0000
  C   C162      1.0  0.75904  0.39629  0.43512  1.0000
  C   C163      1.0  0.75915  0.36567  0.44202  1.0000
  C   C164      1.0  0.76359  0.35120  0.36228  1.0000
  N   N68       1.0  0.75385  0.35032  0.52342  1.0000
  H   H113      1.0  0.75114  0.36060  0.57767  1.0000
  H   H114      1.0  0.75505  0.32991  0.53089  1.0000
  H   H115      1.0  0.75359  0.40573  0.49103  1.0000
  C   C165      1.0  0.59842  0.35218  0.35221  1.0000
  C   C166      1.0  0.61434  0.36520  0.43590  1.0000
  C   C167      1.0  0.64501  0.39595  0.44160  1.0000
  C   C168      1.0  0.65933  0.41448  0.36128  1.0000
  N   N69       1.0  0.66057  0.40639  0.52262  1.0000
  H   H116      1.0  0.65056  0.39357  0.57727  1.0000
  H   H117      1.0  0.68117  0.42789  0.52924  1.0000
  H   H118      1.0  0.60504  0.35059  0.49232  1.0000
  C   C169      1.0  0.85433  0.26006  0.35106  1.0000
  C   C170      1.0  0.86723  0.25724  0.43503  1.0000
  C   C171      1.0  0.89802  0.25741  0.44136  1.0000
  C   C172      1.0  0.91668  0.26161  0.36139  1.0000
  N   N70       1.0  0.90837  0.25234  0.52256  1.0000
  H   H119      1.0  0.89556  0.24974  0.57710  1.0000
  H   H120      1.0  0.92997  0.25349  0.52950  1.0000
  H   H121      1.0  0.85256  0.25199  0.49130  1.0000
  C   C173      1.0  0.75051  0.09634  0.35205  1.0000
  C   C174      1.0  0.75359  0.11215  0.43607  1.0000
  C   C175      1.0  0.75344  0.14277  0.44252  1.0000
  C   C176      1.0  0.74900  0.15719  0.36274  1.0000
  N   N71       1.0  0.75877  0.15826  0.52369  1.0000
  H   H122      1.0  0.76153  0.14810  0.57811  1.0000
  H   H123      1.0  0.75763  0.17872  0.53080  1.0000
  H   H124      1.0  0.75897  0.10277  0.49222  1.0000
  C   C177      1.0  0.91411  0.15615  0.35128  1.0000
  C   C178      1.0  0.89834  0.14369  0.43551  1.0000
  C   C179      1.0  0.86776  0.11291  0.44259  1.0000
  C   C180      1.0  0.85341  0.09392  0.36297  1.0000
  N   N72       1.0  0.85238  0.10292  0.52396  1.0000
  H   H125      1.0  0.86259  0.11598  0.57813  1.0000
  H   H126      1.0  0.83200  0.08129  0.53147  1.0000
  H   H127      1.0  0.90774  0.15862  0.49133  1.0000
  C   C181      1.0  0.98805  0.74495  0.30418  1.0000
  C   C182      1.0  0.93503  0.69146  0.33921  1.0000
  C   C183      1.0  0.96747  0.70873  0.29725  1.0000
  C   C184      1.0  0.52464  0.76330  0.30448  1.0000
  C   C185      1.0  0.54518  0.79952  0.29780  1.0000
  C   C186      1.0  0.57737  0.81684  0.34102  1.0000
  N   N73       1.0  0.97794  0.69057  0.24827  1.0000
  N   N74       1.0  0.53489  0.81763  0.24797  1.0000
  H   H128      1.0  0.49657  0.70188  0.20641  1.0000
  H   H129      1.0  0.96396  0.66644  0.24043  1.0000
  H   H130      1.0  0.54856  0.84183  0.24105  1.0000
  C   C187      1.0  0.76545  0.74504  0.30466  1.0000
  C   C188      1.0  0.81902  0.74567  0.33949  1.0000
  C   C189      1.0  0.80166  0.76070  0.29731  1.0000
  C   C190      1.0  0.74708  0.76327  0.30482  1.0000
  C   C191      1.0  0.71084  0.74759  0.29832  1.0000
  C   C192      1.0  0.69358  0.76259  0.34119  1.0000
  N   N75       1.0  0.81972  0.78921  0.24780  1.0000
  N   N76       1.0  0.69267  0.71908  0.24893  1.0000
  H   H131      1.0  0.80834  0.79643  0.20590  1.0000
  H   H132      1.0  0.84384  0.79934  0.23972  1.0000
  H   H133      1.0  0.66847  0.70858  0.24206  1.0000
  H   H134      1.0  0.70388  0.71162  0.20713  1.0000
  C   C193      1.0  0.76556  0.52253  0.30454  1.0000
  C   C194      1.0  0.76485  0.57534  0.34067  1.0000
  C   C195      1.0  0.74989  0.54308  0.29782  1.0000
  C   C196      1.0  0.74732  0.98594  0.30433  1.0000
  C   C197      1.0  0.76299  0.96538  0.29714  1.0000
  C   C198      1.0  0.74784  0.93292  0.33892  1.0000
  N   N77       1.0  0.72140  0.53274  0.24827  1.0000
  N   N78       1.0  0.79161  0.97587  0.24810  1.0000
  H   H135      1.0  0.71415  0.01416  0.20622  1.0000
  H   H136      1.0  0.71106  0.54654  0.24080  1.0000
  H   H137      1.0  0.80172  0.96188  0.23997  1.0000
  H   H138      1.0  0.79885  0.49449  0.20622  1.0000
  N   N79       1.0  0.60949  0.74313  0.28578  1.0000
  N   N80       1.0  0.63834  0.74372  0.28037  1.0000
  N   N81       1.0  0.76719  0.86827  0.28420  1.0000
  N   N82       1.0  0.76661  0.89653  0.27847  1.0000
  N   N83       1.0  0.64209  0.90046  0.28375  1.0000
  N   N84       1.0  0.61381  0.87161  0.27903  1.0000
  N   N85       1.0  0.90270  0.76453  0.28338  1.0000
  N   N86       1.0  0.87382  0.76389  0.27813  1.0000
  N   N87       1.0  0.74564  0.64006  0.28486  1.0000
  N   N88       1.0  0.74626  0.61182  0.27942  1.0000
  N   N89       1.0  0.87043  0.60728  0.28480  1.0000
  N   N90       1.0  0.89865  0.63616  0.27902  1.0000
  C   C199      1.0  0.97012  0.76216  0.32562  1.0000
  C   C200      1.0  0.93593  0.74552  0.35026  1.0000
  C   C201      1.0  0.92005  0.71067  0.36412  1.0000
  H   H139      1.0  0.98232  0.78758  0.33335  1.0000
  H   H140      1.0  0.89528  0.69845  0.38381  1.0000
  C   C202      1.0  0.59225  0.79766  0.36715  1.0000
  C   C203      1.0  0.57654  0.76281  0.35309  1.0000
  C   C204      1.0  0.54257  0.74613  0.32629  1.0000
  H   H141      1.0  0.61691  0.80990  0.38776  1.0000
  H   H142      1.0  0.53043  0.72070  0.33367  1.0000
  C   C205      1.0  0.74828  0.70994  0.32647  1.0000
  C   C206      1.0  0.76499  0.69250  0.35157  1.0000
  C   C207      1.0  0.79987  0.71154  0.36500  1.0000
  H   H143      1.0  0.72287  0.69670  0.33422  1.0000
  H   H144      1.0  0.81214  0.69908  0.38514  1.0000
  C   C208      1.0  0.71282  0.79676  0.36633  1.0000
  C   C209      1.0  0.74766  0.81582  0.35223  1.0000
  C   C210      1.0  0.76430  0.79840  0.32626  1.0000
  H   H145      1.0  0.70062  0.80928  0.38648  1.0000
  H   H146      1.0  0.78974  0.81169  0.33324  1.0000
  C   C211      1.0  0.80068  0.54045  0.32619  1.0000
  C   C212      1.0  0.81803  0.57447  0.35254  1.0000
  C   C213      1.0  0.79893  0.59023  0.36655  1.0000
  H   H147      1.0  0.81393  0.52829  0.33371  1.0000
  H   H148      1.0  0.81142  0.61494  0.38675  1.0000
  C   C214      1.0  0.71364  0.91789  0.36376  1.0000
  C   C215      1.0  0.69466  0.93380  0.35035  1.0000
  C   C216      1.0  0.71219  0.96800  0.32582  1.0000
  H   H149      1.0  0.70111  0.89312  0.38344  1.0000
  H   H150      1.0  0.69897  0.98019  0.33355  1.0000
  C   C217      1.0  0.65826  0.74832  0.35283  1.0000
  C   C218      1.0  0.64569  0.75166  0.43684  1.0000
  C   C219      1.0  0.61494  0.75154  0.44345  1.0000
  C   C220      1.0  0.59605  0.74695  0.36363  1.0000
  N   N91       1.0  0.60487  0.75696  0.52468  1.0000
  H   H151      1.0  0.61785  0.75977  0.57900  1.0000
  H   H152      1.0  0.58325  0.75575  0.53196  1.0000
  H   H153      1.0  0.66054  0.75717  0.49284  1.0000
  C   C221      1.0  0.76224  0.91201  0.35092  1.0000
  C   C222      1.0  0.75904  0.89629  0.43512  1.0000
  C   C223      1.0  0.75916  0.86567  0.44202  1.0000
  C   C224      1.0  0.76359  0.85120  0.36228  1.0000
  N   N92       1.0  0.75385  0.85032  0.52342  1.0000
  H   H154      1.0  0.75114  0.86060  0.57767  1.0000
  H   H155      1.0  0.75505  0.82991  0.53089  1.0000
  H   H156      1.0  0.75359  0.90573  0.49103  1.0000
  C   C225      1.0  0.59842  0.85217  0.35221  1.0000
  C   C226      1.0  0.61434  0.86520  0.43590  1.0000
  C   C227      1.0  0.64501  0.89595  0.44160  1.0000
  C   C228      1.0  0.65933  0.91448  0.36128  1.0000
  N   N93       1.0  0.66057  0.90639  0.52262  1.0000
  H   H157      1.0  0.65056  0.89357  0.57727  1.0000
  H   H158      1.0  0.68117  0.92789  0.52924  1.0000
  H   H159      1.0  0.60504  0.85059  0.49232  1.0000
  C   C229      1.0  0.85434  0.76006  0.35106  1.0000
  C   C230      1.0  0.86723  0.75723  0.43503  1.0000
  C   C231      1.0  0.89802  0.75741  0.44136  1.0000
  C   C232      1.0  0.91668  0.76161  0.36139  1.0000
  N   N94       1.0  0.90837  0.75234  0.52256  1.0000
  H   H160      1.0  0.89556  0.74974  0.57710  1.0000
  H   H161      1.0  0.92997  0.75349  0.52950  1.0000
  H   H162      1.0  0.85256  0.75199  0.49130  1.0000
  C   C233      1.0  0.75051  0.59634  0.35205  1.0000
  C   C234      1.0  0.75359  0.61215  0.43607  1.0000
  C   C235      1.0  0.75344  0.64277  0.44252  1.0000
  C   C236      1.0  0.74900  0.65719  0.36274  1.0000
  N   N95       1.0  0.75877  0.65826  0.52369  1.0000
  H   H163      1.0  0.76153  0.64810  0.57811  1.0000
  H   H164      1.0  0.75763  0.67872  0.53080  1.0000
  H   H165      1.0  0.75897  0.60277  0.49222  1.0000
  C   C237      1.0  0.91411  0.65615  0.35128  1.0000
  C   C238      1.0  0.89834  0.64368  0.43551  1.0000
  C   C239      1.0  0.86776  0.61291  0.44259  1.0000
  C   C240      1.0  0.85341  0.59393  0.36297  1.0000
  N   N96       1.0  0.85237  0.60292  0.52396  1.0000
  H   H166      1.0  0.86259  0.61598  0.57813  1.0000
  H   H167      1.0  0.83200  0.58129  0.53147  1.0000
  H   H168      1.0  0.90774  0.65863  0.49133  1.0000
