data_image0
_chemical_formula_structural       CNHCNHCNHCNHCNHCNHC2NCHC2NCHC2NCHC2NCHC2NCHC2NCHC2NCHC2NCHC2NCHC2NCHC2NCHC2NCHCNCNCNCNCNCNCNCNCNCNCNCNCNCNCNCNCNCNCNCNCNCNCNCNCNCNCNCNCNCNCNCNCNCNCNCNC2NCHC2NCHC2NCHC2NCHC2NCHC2NCHCNHCNHCNHCNHCNHCNHCNHCNHCNHCNHCNHCNH
_chemical_formula_sum              "C108 N72 H36"
_cell_length_a       36.5414
_cell_length_b       36.5414
_cell_length_c       14.7314
_cell_angle_alpha    90
_cell_angle_beta     90
_cell_angle_gamma    120

_space_group_name_H-M_alt    "P 1"
_space_group_IT_number       1

loop_
  _space_group_symop_operation_xyz
  'x, y, z'

loop_
  _atom_site_type_symbol
  _atom_site_label
  _atom_site_symmetry_multiplicity
  _atom_site_fract_x
  _atom_site_fract_y
  _atom_site_fract_z
  _atom_site_occupancy
  C   C1        1.0  0.21815  0.41849  0.26848  1.0000
  N   N1        1.0  0.19669  0.37557  0.27298  1.0000
  H   H1        1.0  0.22523  0.43305  0.20654  1.0000
  C   C2        1.0  0.59540  0.79533  0.26881  1.0000
  N   N2        1.0  0.63832  0.81683  0.27321  1.0000
  H   H2        1.0  0.58081  0.78786  0.20690  1.0000
  C   C3        1.0  0.21859  0.79583  0.26876  1.0000
  N   N3        1.0  0.19708  0.81724  0.27318  1.0000
  H   H3        1.0  0.22601  0.78867  0.20685  1.0000
  C   C4        1.0  0.80329  0.58796  0.26881  1.0000
  N   N4        1.0  0.82471  0.63088  0.27321  1.0000
  H   H4        1.0  0.79614  0.57337  0.20691  1.0000
  C   C5        1.0  0.42605  0.21115  0.26868  1.0000
  N   N5        1.0  0.38313  0.18966  0.27312  1.0000
  H   H5        1.0  0.44063  0.21863  0.20677  1.0000
  C   C6        1.0  0.80280  0.21065  0.26891  1.0000
  N   N6        1.0  0.82430  0.18922  0.27327  1.0000
  H   H6        1.0  0.79532  0.21777  0.20701  1.0000
  C   C7        1.0  0.18612  0.22265  0.34991  1.0000
  C   C8        1.0  0.19754  0.21061  0.26847  1.0000
  N   N7        1.0  0.21902  0.18915  0.27284  1.0000
  C   C9        1.0  0.23020  0.17862  0.35252  1.0000
  H   H7        1.0  0.19000  0.21766  0.20658  1.0000
  C   C10       1.0  0.79128  0.95921  0.34991  1.0000
  C   C11       1.0  0.80336  0.98268  0.26847  1.0000
  N   N8        1.0  0.82484  0.02561  0.27285  1.0000
  C   C12       1.0  0.83537  0.04733  0.35253  1.0000
  H   H8        1.0  0.79632  0.96809  0.20658  1.0000
  C   C13       1.0  0.05476  0.82785  0.34989  1.0000
  C   C14       1.0  0.03129  0.81646  0.26846  1.0000
  N   N9        1.0  0.98836  0.79500  0.27284  1.0000
  C   C15       1.0  0.96665  0.78382  0.35252  1.0000
  H   H9        1.0  0.04589  0.82401  0.20656  1.0000
  C   C16       1.0  0.83533  0.78382  0.34990  1.0000
  C   C17       1.0  0.82393  0.79590  0.26847  1.0000
  N   N10       1.0  0.80246  0.81736  0.27284  1.0000
  C   C18       1.0  0.79127  0.82789  0.35252  1.0000
  H   H10       1.0  0.83148  0.78886  0.20657  1.0000
  C   C19       1.0  0.23019  0.04730  0.34991  1.0000
  C   C20       1.0  0.21810  0.02383  0.26848  1.0000
  N   N11       1.0  0.19661  0.98089  0.27286  1.0000
  C   C21       1.0  0.18608  0.95918  0.35254  1.0000
  H   H11       1.0  0.22514  0.03842  0.20658  1.0000
  C   C22       1.0  0.96669  0.17865  0.34990  1.0000
  C   C23       1.0  0.99016  0.19004  0.26847  1.0000
  N   N12       1.0  0.03309  0.21150  0.27284  1.0000
  C   C24       1.0  0.05481  0.22268  0.35252  1.0000
  H   H12       1.0  0.97557  0.18250  0.20658  1.0000
  C   C25       1.0  0.23289  0.57566  0.35081  1.0000
  C   C26       1.0  0.23299  0.59637  0.26971  1.0000
  N   N13       1.0  0.23502  0.63446  0.27469  1.0000
  C   C27       1.0  0.23284  0.65295  0.35315  1.0000
  H   H13       1.0  0.23778  0.58653  0.20813  1.0000
  C   C28       1.0  0.43822  0.65285  0.35039  1.0000
  C   C29       1.0  0.41716  0.63246  0.26947  1.0000
  N   N14       1.0  0.37914  0.59636  0.27507  1.0000
  C   C30       1.0  0.36120  0.57569  0.35391  1.0000
  H   H14       1.0  0.42669  0.64718  0.20790  1.0000
  C   C31       1.0  0.36119  0.78123  0.35042  1.0000
  C   C32       1.0  0.38140  0.78037  0.26938  1.0000
  N   N15       1.0  0.41746  0.77836  0.27479  1.0000
  C   C33       1.0  0.43827  0.78122  0.35348  1.0000
  H   H15       1.0  0.36658  0.77508  0.20792  1.0000
  C   C34       1.0  0.78862  0.43078  0.35043  1.0000
  C   C35       1.0  0.78760  0.40957  0.26942  1.0000
  N   N16       1.0  0.78566  0.37154  0.27473  1.0000
  C   C36       1.0  0.78871  0.35365  0.35332  1.0000
  H   H16       1.0  0.78219  0.41905  0.20799  1.0000
  C   C37       1.0  0.58324  0.35359  0.35047  1.0000
  C   C38       1.0  0.60425  0.37406  0.26948  1.0000
  N   N17       1.0  0.64228  0.41018  0.27460  1.0000
  C   C39       1.0  0.66032  0.43084  0.35331  1.0000
  H   H17       1.0  0.59460  0.35933  0.20795  1.0000
  C   C40       1.0  0.66033  0.22535  0.35022  1.0000
  C   C41       1.0  0.64002  0.22614  0.26927  1.0000
  N   N18       1.0  0.60393  0.22809  0.27483  1.0000
  C   C42       1.0  0.58320  0.22527  0.35362  1.0000
  H   H18       1.0  0.65479  0.23140  0.20775  1.0000
  C   C43       1.0  0.16391  0.24484  0.35061  1.0000
  N   N19       1.0  0.18516  0.28780  0.35129  1.0000
  C   C44       1.0  0.16392  0.30953  0.35217  1.0000
  N   N20       1.0  0.12095  0.28782  0.35248  1.0000
  C   C45       1.0  0.09921  0.24485  0.35187  1.0000
  N   N21       1.0  0.12093  0.22360  0.35094  1.0000
  C   C46       1.0  0.76909  0.91481  0.35061  1.0000
  N   N22       1.0  0.72612  0.89309  0.35134  1.0000
  C   C47       1.0  0.70440  0.85012  0.35225  1.0000
  N   N23       1.0  0.72612  0.82887  0.35255  1.0000
  C   C48       1.0  0.76909  0.85011  0.35188  1.0000
  N   N24       1.0  0.79033  0.89308  0.35091  1.0000
  C   C49       1.0  0.09916  0.85007  0.35059  1.0000
  N   N25       1.0  0.12089  0.82884  0.35132  1.0000
  C   C50       1.0  0.16386  0.85009  0.35225  1.0000
  N   N26       1.0  0.18511  0.89306  0.35256  1.0000
  C   C51       1.0  0.16386  0.91478  0.35189  1.0000
  N   N27       1.0  0.12089  0.89305  0.35091  1.0000
  C   C52       1.0  0.85755  0.76164  0.35060  1.0000
  N   N28       1.0  0.83630  0.71868  0.35133  1.0000
  C   C53       1.0  0.85755  0.69696  0.35225  1.0000
  N   N29       1.0  0.90052  0.71868  0.35255  1.0000
  C   C54       1.0  0.92225  0.76164  0.35189  1.0000
  N   N30       1.0  0.90052  0.78289  0.35091  1.0000
  C   C55       1.0  0.25237  0.09169  0.35061  1.0000
  N   N31       1.0  0.29534  0.11341  0.35132  1.0000
  C   C56       1.0  0.31706  0.15638  0.35221  1.0000
  N   N32       1.0  0.29535  0.17763  0.35251  1.0000
  C   C57       1.0  0.25238  0.15640  0.35187  1.0000
  N   N33       1.0  0.23113  0.11343  0.35092  1.0000
  C   C58       1.0  0.92229  0.15644  0.35060  1.0000
  N   N34       1.0  0.90057  0.17768  0.35136  1.0000
  C   C59       1.0  0.85760  0.15643  0.35227  1.0000
  N   N35       1.0  0.83635  0.11346  0.35256  1.0000
  C   C60       1.0  0.85759  0.09173  0.35188  1.0000
  N   N36       1.0  0.90056  0.11346  0.35090  1.0000
  C   C61       1.0  0.31707  0.55096  0.35302  1.0000
  N   N37       1.0  0.29549  0.50800  0.35212  1.0000
  C   C62       1.0  0.25240  0.48637  0.35043  1.0000
  N   N38       1.0  0.23092  0.50798  0.34967  1.0000
  C   C63       1.0  0.25228  0.55094  0.35087  1.0000
  N   N39       1.0  0.29507  0.57176  0.35256  1.0000
  C   C64       1.0  0.46297  0.76179  0.35257  1.0000
  N   N40       1.0  0.50594  0.78315  0.35227  1.0000
  C   C65       1.0  0.52755  0.76168  0.35087  1.0000
  N   N41       1.0  0.50592  0.71859  0.34995  1.0000
  C   C66       1.0  0.46295  0.69699  0.35050  1.0000
  N   N42       1.0  0.44215  0.71899  0.35181  1.0000
  C   C67       1.0  0.25224  0.69706  0.35241  1.0000
  N   N43       1.0  0.23088  0.71866  0.35195  1.0000
  C   C68       1.0  0.25236  0.76175  0.35080  1.0000
  N   N44       1.0  0.29546  0.78321  0.35015  1.0000
  C   C69       1.0  0.31704  0.76184  0.35080  1.0000
  N   N45       1.0  0.29504  0.71904  0.35188  1.0000
  C   C70       1.0  0.70446  0.45554  0.35245  1.0000
  N   N46       1.0  0.72606  0.49850  0.35210  1.0000
  C   C71       1.0  0.76916  0.52012  0.35089  1.0000
  N   N47       1.0  0.79062  0.49848  0.35016  1.0000
  C   C72       1.0  0.76924  0.45552  0.35071  1.0000
  N   N48       1.0  0.72644  0.43472  0.35184  1.0000
  C   C73       1.0  0.55849  0.24468  0.35279  1.0000
  N   N49       1.0  0.51553  0.22332  0.35223  1.0000
  C   C74       1.0  0.49391  0.24480  0.35073  1.0000
  N   N50       1.0  0.51554  0.28789  0.34988  1.0000
  C   C75       1.0  0.55850  0.30948  0.35071  1.0000
  N   N51       1.0  0.57930  0.28748  0.35214  1.0000
  C   C76       1.0  0.76928  0.30953  0.35252  1.0000
  N   N52       1.0  0.79063  0.28792  0.35237  1.0000
  C   C77       1.0  0.76915  0.24483  0.35102  1.0000
  N   N53       1.0  0.72606  0.22338  0.35003  1.0000
  C   C78       1.0  0.70447  0.24476  0.35045  1.0000
  N   N54       1.0  0.72648  0.28756  0.35165  1.0000
  C   C79       1.0  0.18613  0.35391  0.35274  1.0000
  C   C80       1.0  0.19817  0.37742  0.43412  1.0000
  N   N55       1.0  0.21966  0.42034  0.42962  1.0000
  C   C81       1.0  0.23022  0.44199  0.34986  1.0000
  H   H19       1.0  0.19109  0.36286  0.49605  1.0000
  C   C82       1.0  0.66002  0.82793  0.35292  1.0000
  C   C83       1.0  0.63655  0.81643  0.43435  1.0000
  N   N56       1.0  0.59362  0.79497  0.42996  1.0000
  C   C84       1.0  0.57193  0.78387  0.35025  1.0000
  H   H20       1.0  0.65114  0.82392  0.49626  1.0000
  C   C85       1.0  0.18607  0.82791  0.35290  1.0000
  C   C86       1.0  0.19767  0.81604  0.43432  1.0000
  N   N57       1.0  0.21915  0.79460  0.42991  1.0000
  C   C87       1.0  0.23017  0.78394  0.35018  1.0000
  H   H21       1.0  0.19024  0.82320  0.49624  1.0000
  C   C88       1.0  0.83536  0.65258  0.35291  1.0000
  C   C89       1.0  0.82344  0.62911  0.43435  1.0000
  N   N58       1.0  0.80198  0.58618  0.42996  1.0000
  C   C90       1.0  0.79135  0.56449  0.35025  1.0000
  H   H22       1.0  0.83058  0.64370  0.49625  1.0000
  C   C91       1.0  0.36145  0.17857  0.35284  1.0000
  C   C92       1.0  0.38493  0.19005  0.43425  1.0000
  N   N59       1.0  0.42785  0.21151  0.42983  1.0000
  C   C93       1.0  0.44953  0.22261  0.35010  1.0000
  H   H23       1.0  0.37035  0.18257  0.49617  1.0000
  C   C94       1.0  0.83541  0.17862  0.35296  1.0000
  C   C95       1.0  0.82391  0.19058  0.43441  1.0000
  N   N60       1.0  0.80245  0.21204  0.43005  1.0000
  C   C96       1.0  0.79134  0.22263  0.35036  1.0000
  H   H24       1.0  0.83140  0.18347  0.49631  1.0000
  C   C97       1.0  0.21882  0.19071  0.43396  1.0000
  N   N61       1.0  0.19733  0.21214  0.42959  1.0000
  H   H25       1.0  0.22637  0.18366  0.49586  1.0000
  C   C98       1.0  0.82324  0.02386  0.43396  1.0000
  N   N62       1.0  0.80178  0.98093  0.42958  1.0000
  H   H26       1.0  0.83028  0.03845  0.49586  1.0000
  C   C99       1.0  0.99012  0.79517  0.43396  1.0000
  N   N63       1.0  0.03305  0.81665  0.42957  1.0000
  H   H27       1.0  0.97553  0.78762  0.49586  1.0000
  C   C100      1.0  0.80263  0.81578  0.43396  1.0000
  N   N64       1.0  0.82412  0.79433  0.42958  1.0000
  H   H28       1.0  0.79508  0.82282  0.49586  1.0000
  C   C101      1.0  0.19821  0.98265  0.43397  1.0000
  N   N65       1.0  0.21967  0.02558  0.42959  1.0000
  H   H29       1.0  0.19117  0.96806  0.49587  1.0000
  C   C102      1.0  0.03134  0.21134  0.43396  1.0000
  N   N66       1.0  0.98841  0.18986  0.42958  1.0000
  H   H30       1.0  0.04593  0.21888  0.49586  1.0000
  C   C103      1.0  0.23395  0.63281  0.43413  1.0000
  N   N67       1.0  0.23582  0.59669  0.42914  1.0000
  H   H31       1.0  0.23892  0.64759  0.49558  1.0000
  C   C104      1.0  0.38169  0.59683  0.43464  1.0000
  N   N68       1.0  0.41781  0.63484  0.42930  1.0000
  H   H32       1.0  0.36717  0.58694  0.49632  1.0000
  C   C105      1.0  0.41732  0.78079  0.43435  1.0000
  N   N69       1.0  0.37932  0.77894  0.42924  1.0000
  H   H33       1.0  0.42732  0.77625  0.49599  1.0000
  C   C106      1.0  0.78847  0.37424  0.43422  1.0000
  N   N70       1.0  0.78655  0.41035  0.42913  1.0000
  H   H34       1.0  0.78407  0.35976  0.49589  1.0000
  C   C107      1.0  0.64004  0.40984  0.43428  1.0000
  N   N71       1.0  0.60397  0.37181  0.42905  1.0000
  H   H35       1.0  0.65469  0.41976  0.49584  1.0000
  C   C108      1.0  0.60426  0.22579  0.43439  1.0000
  N   N72       1.0  0.64226  0.22767  0.42911  1.0000
  H   H36       1.0  0.59432  0.23036  0.49608  1.0000
