data_image0
_chemical_formula_structural       C2NHCHC2NHCH3C2NC3HNC3NC3HNCHNCHCHNHNCH2NCHCHNHNCHC3NH4C6N2H6C6N2H6NC2HCNC2HNC2HNC2HC3HNHC3HNC3NH3C3HNC3NH3C2NCHCNCHCNCHCNCHC3NH4C6N2H6C6N2H6NC2HCNC2HNC2HNC2HC3HNHC3HNC3NH3C3HNC3NH3C2NCHCNCHCNCHCNCHC6N2H5C6N2H6C6N2H6NC2HNC2HNC2HNC2HNC2HNC2HC3HNC3NH3C3HNC3NH3C3HNC3NH3CNCHCNCHCNCHCNCHCNCHCNCHC6N2H5C6N2H6C6N2H6NC2HNC2HNC2HNC2HNC2HNC2HC3HNC3NH3C3HNC3NH3C3HNC3NH3CNCHCNCHCNCHCNCHCNCHCNCH
_chemical_formula_sum              "C240 N96 H168"
_cell_length_a       45.682
_cell_length_b       45.682
_cell_length_c       14.9038
_cell_angle_alpha    90
_cell_angle_beta     90
_cell_angle_gamma    120

_space_group_name_H-M_alt    "P 1"
_space_group_IT_number       1

loop_
  _space_group_symop_operation_xyz
  'x, y, z'

loop_
  _atom_site_type_symbol
  _atom_site_label
  _atom_site_symmetry_multiplicity
  _atom_site_fract_x
  _atom_site_fract_y
  _atom_site_fract_z
  _atom_site_occupancy
  C   C1        1.0  0.02098  0.26066  0.31741  1.0000
  C   C2        1.0  0.04027  0.29676  0.30375  1.0000
  N   N1        1.0  0.02968  0.31153  0.24174  1.0000
  H   H1        1.0  0.04161  0.33572  0.23079  1.0000
  C   C3        1.0  0.04000  0.24593  0.35000  1.0000
  H   H2        1.0  0.02932  0.22041  0.35681  1.0000
  C   C4        1.0  0.02098  0.76066  0.31741  1.0000
  C   C5        1.0  0.04027  0.79676  0.30375  1.0000
  N   N2        1.0  0.02968  0.81153  0.24174  1.0000
  H   H3        1.0  0.04161  0.83572  0.23079  1.0000
  C   C6        1.0  0.03999  0.74593  0.35000  1.0000
  H   H4        1.0  0.02932  0.72042  0.35681  1.0000
  H   H5        1.0  0.01214  0.29792  0.19853  1.0000
  H   H6        1.0  0.01214  0.79792  0.19853  1.0000
  C   C7        1.0  0.07123  0.31714  0.35196  1.0000
  C   C8        1.0  0.09663  0.25397  0.35840  1.0000
  N   N3        1.0  0.10930  0.35941  0.25379  1.0000
  C   C9        1.0  0.08665  0.30030  0.39533  1.0000
  C   C10       1.0  0.07356  0.26522  0.38024  1.0000
  C   C11       1.0  0.10371  0.23398  0.41720  1.0000
  H   H7        1.0  0.08876  0.22289  0.47201  1.0000
  N   N4        1.0  0.10716  0.37556  0.39992  1.0000
  C   C12       1.0  0.09262  0.35211  0.33343  1.0000
  C   C13       1.0  0.07123  0.81714  0.35196  1.0000
  C   C14       1.0  0.09663  0.75397  0.35840  1.0000
  N   N5        1.0  0.10930  0.85942  0.25379  1.0000
  C   C15       1.0  0.08665  0.80031  0.39533  1.0000
  C   C16       1.0  0.07356  0.76522  0.38024  1.0000
  C   C17       1.0  0.10371  0.73398  0.41720  1.0000
  H   H8        1.0  0.08876  0.72289  0.47201  1.0000
  N   N6        1.0  0.10716  0.87556  0.39992  1.0000
  C   C18       1.0  0.09262  0.85211  0.33343  1.0000
  H   H9        1.0  0.12377  0.33883  0.46944  1.0000
  N   N7        1.0  0.14996  0.27005  0.28770  1.0000
  C   C19       1.0  0.12087  0.27105  0.29016  1.0000
  H   H10       1.0  0.11863  0.28735  0.24746  1.0000
  C   C20       1.0  0.13856  0.38871  0.23853  1.0000
  H   H11       1.0  0.15111  0.39054  0.18008  1.0000
  N   N8        1.0  0.11486  0.31601  0.44831  1.0000
  H   H12       1.0  0.12272  0.30294  0.48157  1.0000
  N   N9        1.0  0.13380  0.23446  0.41133  1.0000
  C   C21       1.0  0.13644  0.40552  0.38932  1.0000
  H   H13       1.0  0.14744  0.41967  0.44546  1.0000
  H   H14       1.0  0.12377  0.83883  0.46944  1.0000
  N   N10       1.0  0.14996  0.77005  0.28770  1.0000
  C   C22       1.0  0.12087  0.77105  0.29016  1.0000
  H   H15       1.0  0.11863  0.78735  0.24746  1.0000
  C   C23       1.0  0.13856  0.88871  0.23853  1.0000
  H   H16       1.0  0.15111  0.89054  0.18008  1.0000
  N   N11       1.0  0.11486  0.81601  0.44831  1.0000
  H   H17       1.0  0.12272  0.80294  0.48157  1.0000
  N   N12       1.0  0.13380  0.73446  0.41133  1.0000
  C   C24       1.0  0.13644  0.90552  0.38932  1.0000
  H   H18       1.0  0.14744  0.91967  0.44546  1.0000
  C   C25       1.0  0.48486  0.24013  0.30263  1.0000
  C   C26       1.0  0.43057  0.18499  0.29530  1.0000
  C   C27       1.0  0.46662  0.20421  0.28576  1.0000
  N   N13       1.0  0.48246  0.18841  0.24897  1.0000
  H   H19       1.0  0.00438  0.20172  0.22058  1.0000
  H   H20       1.0  0.46982  0.16492  0.23000  1.0000
  H   H21       1.0  0.51214  0.29792  0.19853  1.0000
  H   H22       1.0  0.36429  0.16080  0.32194  1.0000
  C   C28       1.0  0.26456  0.24585  0.32130  1.0000
  C   C29       1.0  0.32157  0.25243  0.33988  1.0000
  C   C30       1.0  0.30005  0.26314  0.29969  1.0000
  C   C31       1.0  0.24501  0.26273  0.32742  1.0000
  C   C32       1.0  0.20875  0.24675  0.32325  1.0000
  C   C33       1.0  0.19171  0.26316  0.36056  1.0000
  N   N14       1.0  0.31277  0.28882  0.23844  1.0000
  N   N15       1.0  0.19074  0.21753  0.27555  1.0000
  H   H23       1.0  0.29779  0.29339  0.20222  1.0000
  H   H24       1.0  0.33646  0.30085  0.22140  1.0000
  H   H25       1.0  0.16636  0.20657  0.26886  1.0000
  H   H26       1.0  0.20206  0.20983  0.23465  1.0000
  H   H27       1.0  0.17298  0.29864  0.46070  1.0000
  H   H28       1.0  0.34521  0.22274  0.45214  1.0000
  C   C34       1.0  0.26427  0.02003  0.31692  1.0000
  C   C35       1.0  0.26643  0.07478  0.34759  1.0000
  C   C36       1.0  0.24996  0.04175  0.30785  1.0000
  C   C37       1.0  0.24593  0.48374  0.30344  1.0000
  C   C38       1.0  0.26168  0.46410  0.28151  1.0000
  C   C39       1.0  0.24427  0.42844  0.29665  1.0000
  N   N16       1.0  0.22262  0.03245  0.25334  1.0000
  N   N17       1.0  0.29151  0.47801  0.23526  1.0000
  H   H29       1.0  0.21533  0.51371  0.21168  1.0000
  H   H30       1.0  0.21291  0.04684  0.24337  1.0000
  H   H31       1.0  0.30064  0.46423  0.21278  1.0000
  H   H32       1.0  0.29985  0.99965  0.20538  1.0000
  H   H33       1.0  0.20158  0.36282  0.32949  1.0000
  H   H34       1.0  0.30010  0.12717  0.45454  1.0000
  N   N18       1.0  0.25634  0.38678  0.24282  1.0000
  C   C40       1.0  0.25759  0.35832  0.26142  1.0000
  C   C41       1.0  0.26141  0.35050  0.35112  1.0000
  H   H35       1.0  0.24997  0.34035  0.21224  1.0000
  C   C42       1.0  0.15518  0.41217  0.30891  1.0000
  N   N19       1.0  0.35960  0.25093  0.23863  1.0000
  C   C43       1.0  0.38715  0.24776  0.22412  1.0000
  C   C44       1.0  0.41170  0.25649  0.29240  1.0000
  H   H36       1.0  0.38665  0.23364  0.17027  1.0000
  N   N20       1.0  0.27893  0.12575  0.27796  1.0000
  C   C45       1.0  0.28083  0.15618  0.27981  1.0000
  C   C46       1.0  0.26071  0.16262  0.34003  1.0000
  H   H37       1.0  0.29955  0.17521  0.24291  1.0000
  N   N21       1.0  0.38977  0.13034  0.24261  1.0000
  C   C47       1.0  0.36126  0.10055  0.26108  1.0000
  C   C48       1.0  0.35239  0.08951  0.35104  1.0000
  H   H38       1.0  0.34382  0.08975  0.21079  1.0000
  C   C49       1.0  0.46456  0.25555  0.31325  1.0000
  C   C50       1.0  0.42926  0.23824  0.30058  1.0000
  C   C51       1.0  0.41172  0.20220  0.30202  1.0000
  H   H39       1.0  0.47564  0.28072  0.32794  1.0000
  N   N22       1.0  0.37744  0.18500  0.31658  1.0000
  H   H40       1.0  0.36535  0.19642  0.33367  1.0000
  C   C52       1.0  0.25049  0.21104  0.34447  1.0000
  C   C53       1.0  0.27110  0.19679  0.36166  1.0000
  C   C54       1.0  0.30590  0.21945  0.37853  1.0000
  H   H41       1.0  0.22509  0.19547  0.35159  1.0000
  N   N23       1.0  0.32287  0.20768  0.42900  1.0000
  C   C55       1.0  0.21110  0.29712  0.39297  1.0000
  C   C56       1.0  0.24638  0.31585  0.37535  1.0000
  C   C57       1.0  0.26228  0.29809  0.34546  1.0000
  N   N24       1.0  0.19603  0.31186  0.43964  1.0000
  H   H42       1.0  0.28806  0.31178  0.34586  1.0000
  H   H43       1.0  0.20922  0.33330  0.46974  1.0000
  H   H44       1.0  0.31060  0.18610  0.45995  1.0000
  C   C58       1.0  0.29902  0.03673  0.34250  1.0000
  C   C59       1.0  0.31739  0.07037  0.37332  1.0000
  C   C60       1.0  0.29918  0.08770  0.38691  1.0000
  H   H45       1.0  0.31154  0.02356  0.34766  1.0000
  N   N25       1.0  0.31322  0.11677  0.43671  1.0000
  C   C61       1.0  0.20860  0.41071  0.31162  1.0000
  C   C62       1.0  0.19110  0.42923  0.31248  1.0000
  C   C63       1.0  0.21036  0.46481  0.31975  1.0000
  N   N26       1.0  0.19114  0.37662  0.32875  1.0000
  H   H46       1.0  0.19748  0.47697  0.33641  1.0000
  H   H47       1.0  0.16793  0.36506  0.34889  1.0000
  H   H48       1.0  0.33373  0.12416  0.47087  1.0000
  C   C64       1.0  0.15686  0.25116  0.34511  1.0000
  C   C65       1.0  0.26902  0.37621  0.41492  1.0000
  N   N27       1.0  0.26745  0.40414  0.39132  1.0000
  C   C66       1.0  0.26225  0.41076  0.30557  1.0000
  H   H49       1.0  0.27049  0.37185  0.48160  1.0000
  C   C67       1.0  0.40914  0.27461  0.36606  1.0000
  N   N28       1.0  0.38060  0.27667  0.37632  1.0000
  C   C68       1.0  0.35567  0.26568  0.31332  1.0000
  H   H50       1.0  0.42467  0.28008  0.42041  1.0000
  C   C69       1.0  0.23604  0.13422  0.38795  1.0000
  N   N29       1.0  0.23606  0.10430  0.38423  1.0000
  C   C70       1.0  0.25648  0.09896  0.32775  1.0000
  H   H51       1.0  0.22179  0.13714  0.43614  1.0000
  C   C71       1.0  0.37757  0.10848  0.41554  1.0000
  N   N30       1.0  0.40564  0.13795  0.39204  1.0000
  C   C72       1.0  0.41317  0.14929  0.30593  1.0000
  H   H52       1.0  0.37271  0.10317  0.48232  1.0000
  C   C73       1.0  0.48486  0.74014  0.30263  1.0000
  C   C74       1.0  0.43058  0.68500  0.29530  1.0000
  C   C75       1.0  0.46662  0.70421  0.28576  1.0000
  N   N31       1.0  0.48246  0.68841  0.24897  1.0000
  H   H53       1.0  0.00438  0.70172  0.22058  1.0000
  H   H54       1.0  0.46982  0.66492  0.23000  1.0000
  H   H55       1.0  0.51214  0.79792  0.19853  1.0000
  H   H56       1.0  0.36429  0.66080  0.32194  1.0000
  C   C76       1.0  0.26456  0.74585  0.32130  1.0000
  C   C77       1.0  0.32157  0.75243  0.33988  1.0000
  C   C78       1.0  0.30005  0.76314  0.29969  1.0000
  C   C79       1.0  0.24501  0.76273  0.32742  1.0000
  C   C80       1.0  0.20875  0.74675  0.32325  1.0000
  C   C81       1.0  0.19171  0.76316  0.36056  1.0000
  N   N32       1.0  0.31277  0.78882  0.23844  1.0000
  N   N33       1.0  0.19074  0.71753  0.27555  1.0000
  H   H57       1.0  0.29779  0.79339  0.20222  1.0000
  H   H58       1.0  0.33646  0.80085  0.22140  1.0000
  H   H59       1.0  0.16636  0.70657  0.26886  1.0000
  H   H60       1.0  0.20206  0.70983  0.23465  1.0000
  H   H61       1.0  0.17298  0.79864  0.46070  1.0000
  H   H62       1.0  0.34521  0.72274  0.45214  1.0000
  C   C82       1.0  0.26427  0.52004  0.31692  1.0000
  C   C83       1.0  0.26643  0.57478  0.34759  1.0000
  C   C84       1.0  0.24996  0.54175  0.30785  1.0000
  C   C85       1.0  0.24593  0.98374  0.30344  1.0000
  C   C86       1.0  0.26168  0.96410  0.28151  1.0000
  C   C87       1.0  0.24427  0.92844  0.29665  1.0000
  N   N34       1.0  0.22262  0.53245  0.25334  1.0000
  N   N35       1.0  0.29151  0.97801  0.23526  1.0000
  H   H63       1.0  0.21533  0.01371  0.21168  1.0000
  H   H64       1.0  0.21291  0.54684  0.24337  1.0000
  H   H65       1.0  0.30064  0.96423  0.21278  1.0000
  H   H66       1.0  0.29985  0.49965  0.20538  1.0000
  H   H67       1.0  0.20158  0.86282  0.32949  1.0000
  H   H68       1.0  0.30010  0.62717  0.45454  1.0000
  N   N36       1.0  0.25634  0.88679  0.24282  1.0000
  C   C88       1.0  0.25759  0.85832  0.26142  1.0000
  C   C89       1.0  0.26141  0.85050  0.35112  1.0000
  H   H69       1.0  0.24997  0.84035  0.21224  1.0000
  C   C90       1.0  0.15518  0.91217  0.30891  1.0000
  N   N37       1.0  0.35960  0.75094  0.23863  1.0000
  C   C91       1.0  0.38715  0.74776  0.22412  1.0000
  C   C92       1.0  0.41170  0.75649  0.29240  1.0000
  H   H70       1.0  0.38664  0.73364  0.17027  1.0000
  N   N38       1.0  0.27893  0.62575  0.27796  1.0000
  C   C93       1.0  0.28083  0.65618  0.27981  1.0000
  C   C94       1.0  0.26071  0.66262  0.34003  1.0000
  H   H71       1.0  0.29955  0.67521  0.24291  1.0000
  N   N39       1.0  0.38977  0.63035  0.24261  1.0000
  C   C95       1.0  0.36126  0.60055  0.26108  1.0000
  C   C96       1.0  0.35239  0.58951  0.35104  1.0000
  H   H72       1.0  0.34382  0.58975  0.21079  1.0000
  C   C97       1.0  0.46456  0.75555  0.31325  1.0000
  C   C98       1.0  0.42926  0.73824  0.30058  1.0000
  C   C99       1.0  0.41172  0.70221  0.30202  1.0000
  H   H73       1.0  0.47564  0.78072  0.32794  1.0000
  N   N40       1.0  0.37744  0.68500  0.31658  1.0000
  H   H74       1.0  0.36535  0.69642  0.33367  1.0000
  C   C100      1.0  0.25049  0.71104  0.34447  1.0000
  C   C101      1.0  0.27110  0.69679  0.36166  1.0000
  C   C102      1.0  0.30590  0.71945  0.37853  1.0000
  H   H75       1.0  0.22509  0.69547  0.35160  1.0000
  N   N41       1.0  0.32287  0.70768  0.42900  1.0000
  C   C103      1.0  0.21110  0.79712  0.39297  1.0000
  C   C104      1.0  0.24638  0.81585  0.37535  1.0000
  C   C105      1.0  0.26228  0.79809  0.34546  1.0000
  N   N42       1.0  0.19603  0.81186  0.43964  1.0000
  H   H76       1.0  0.28806  0.81178  0.34586  1.0000
  H   H77       1.0  0.20922  0.83330  0.46974  1.0000
  H   H78       1.0  0.31060  0.68610  0.45995  1.0000
  C   C106      1.0  0.29902  0.53673  0.34250  1.0000
  C   C107      1.0  0.31739  0.57037  0.37332  1.0000
  C   C108      1.0  0.29918  0.58770  0.38691  1.0000
  H   H79       1.0  0.31154  0.52356  0.34766  1.0000
  N   N43       1.0  0.31323  0.61677  0.43671  1.0000
  C   C109      1.0  0.20860  0.91071  0.31162  1.0000
  C   C110      1.0  0.19110  0.92923  0.31248  1.0000
  C   C111      1.0  0.21036  0.96481  0.31975  1.0000
  N   N44       1.0  0.19113  0.87662  0.32875  1.0000
  H   H80       1.0  0.19748  0.97697  0.33641  1.0000
  H   H81       1.0  0.16793  0.86506  0.34888  1.0000
  H   H82       1.0  0.33373  0.62416  0.47087  1.0000
  C   C112      1.0  0.15686  0.75116  0.34510  1.0000
  C   C113      1.0  0.26902  0.87621  0.41492  1.0000
  N   N45       1.0  0.26745  0.90414  0.39132  1.0000
  C   C114      1.0  0.26225  0.91077  0.30557  1.0000
  H   H83       1.0  0.27049  0.87186  0.48160  1.0000
  C   C115      1.0  0.40914  0.77461  0.36606  1.0000
  N   N46       1.0  0.38059  0.77667  0.37632  1.0000
  C   C116      1.0  0.35567  0.76568  0.31332  1.0000
  H   H84       1.0  0.42467  0.78008  0.42041  1.0000
  C   C117      1.0  0.23604  0.63422  0.38795  1.0000
  N   N47       1.0  0.23606  0.60430  0.38423  1.0000
  C   C118      1.0  0.25648  0.59896  0.32775  1.0000
  H   H85       1.0  0.22179  0.63714  0.43614  1.0000
  C   C119      1.0  0.37757  0.60848  0.41554  1.0000
  N   N48       1.0  0.40564  0.63795  0.39204  1.0000
  C   C120      1.0  0.41317  0.64929  0.30593  1.0000
  H   H86       1.0  0.37271  0.60317  0.48232  1.0000
  C   C121      1.0  0.98486  0.24013  0.30263  1.0000
  C   C122      1.0  0.93058  0.18499  0.29530  1.0000
  C   C123      1.0  0.96662  0.20421  0.28576  1.0000
  C   C124      1.0  0.52097  0.26066  0.31741  1.0000
  C   C125      1.0  0.54027  0.29676  0.30375  1.0000
  C   C126      1.0  0.57123  0.31714  0.35196  1.0000
  N   N49       1.0  0.98246  0.18841  0.24897  1.0000
  N   N50       1.0  0.52968  0.31153  0.24174  1.0000
  H   H87       1.0  0.50438  0.20172  0.22058  1.0000
  H   H88       1.0  0.96982  0.16492  0.23000  1.0000
  H   H89       1.0  0.54161  0.33572  0.23079  1.0000
  H   H90       1.0  0.62377  0.33883  0.46944  1.0000
  H   H91       1.0  0.86429  0.16080  0.32194  1.0000
  C   C127      1.0  0.76456  0.24585  0.32130  1.0000
  C   C128      1.0  0.82157  0.25243  0.33988  1.0000
  C   C129      1.0  0.80005  0.26314  0.29969  1.0000
  C   C130      1.0  0.74501  0.26273  0.32742  1.0000
  C   C131      1.0  0.70875  0.24675  0.32325  1.0000
  C   C132      1.0  0.69171  0.26316  0.36056  1.0000
  N   N51       1.0  0.81277  0.28882  0.23844  1.0000
  N   N52       1.0  0.69074  0.21753  0.27555  1.0000
  H   H92       1.0  0.79779  0.29339  0.20222  1.0000
  H   H93       1.0  0.83646  0.30085  0.22140  1.0000
  H   H94       1.0  0.66636  0.20657  0.26886  1.0000
  H   H95       1.0  0.70206  0.20983  0.23465  1.0000
  H   H96       1.0  0.67298  0.29864  0.46070  1.0000
  H   H97       1.0  0.84521  0.22274  0.45214  1.0000
  C   C133      1.0  0.76427  0.02003  0.31692  1.0000
  C   C134      1.0  0.76643  0.07478  0.34759  1.0000
  C   C135      1.0  0.74997  0.04175  0.30785  1.0000
  C   C136      1.0  0.74593  0.48374  0.30344  1.0000
  C   C137      1.0  0.76168  0.46410  0.28151  1.0000
  C   C138      1.0  0.74427  0.42844  0.29665  1.0000
  N   N53       1.0  0.72263  0.03245  0.25334  1.0000
  N   N54       1.0  0.79151  0.47801  0.23526  1.0000
  H   H98       1.0  0.71533  0.51371  0.21168  1.0000
  H   H99       1.0  0.71291  0.04684  0.24337  1.0000
  H   H100      1.0  0.80064  0.46423  0.21278  1.0000
  H   H101      1.0  0.79985  0.99965  0.20538  1.0000
  H   H102      1.0  0.70158  0.36282  0.32949  1.0000
  H   H103      1.0  0.80010  0.12717  0.45454  1.0000
  N   N55       1.0  0.64996  0.27005  0.28770  1.0000
  C   C139      1.0  0.62087  0.27105  0.29016  1.0000
  C   C140      1.0  0.59664  0.25397  0.35840  1.0000
  H   H104      1.0  0.61863  0.28735  0.24746  1.0000
  N   N56       1.0  0.75634  0.38678  0.24282  1.0000
  C   C141      1.0  0.75759  0.35832  0.26142  1.0000
  C   C142      1.0  0.76141  0.35050  0.35112  1.0000
  H   H105      1.0  0.74997  0.34035  0.21224  1.0000
  N   N57       1.0  0.60930  0.35941  0.25379  1.0000
  C   C143      1.0  0.63856  0.38871  0.23853  1.0000
  C   C144      1.0  0.65518  0.41217  0.30891  1.0000
  H   H106      1.0  0.65111  0.39054  0.18008  1.0000
  N   N58       1.0  0.85961  0.25093  0.23863  1.0000
  C   C145      1.0  0.88714  0.24776  0.22412  1.0000
  C   C146      1.0  0.91170  0.25649  0.29240  1.0000
  H   H107      1.0  0.88665  0.23364  0.17027  1.0000
  N   N59       1.0  0.77894  0.12575  0.27796  1.0000
  C   C147      1.0  0.78083  0.15618  0.27981  1.0000
  C   C148      1.0  0.76072  0.16262  0.34003  1.0000
  H   H108      1.0  0.79955  0.17521  0.24291  1.0000
  N   N60       1.0  0.88977  0.13034  0.24261  1.0000
  C   C149      1.0  0.86126  0.10055  0.26108  1.0000
  C   C150      1.0  0.85239  0.08951  0.35104  1.0000
  H   H109      1.0  0.84382  0.08975  0.21079  1.0000
  C   C151      1.0  0.96456  0.25555  0.31325  1.0000
  C   C152      1.0  0.92926  0.23824  0.30058  1.0000
  C   C153      1.0  0.91172  0.20220  0.30202  1.0000
  H   H110      1.0  0.97564  0.28072  0.32794  1.0000
  N   N61       1.0  0.87745  0.18500  0.31658  1.0000
  C   C154      1.0  0.58665  0.30030  0.39533  1.0000
  C   C155      1.0  0.57356  0.26522  0.38024  1.0000
  C   C156      1.0  0.54000  0.24593  0.35000  1.0000
  N   N62       1.0  0.61486  0.31601  0.44831  1.0000
  H   H111      1.0  0.52932  0.22041  0.35681  1.0000
  H   H112      1.0  0.62272  0.30294  0.48157  1.0000
  H   H113      1.0  0.86535  0.19642  0.33367  1.0000
  C   C157      1.0  0.75049  0.21104  0.34447  1.0000
  C   C158      1.0  0.77110  0.19679  0.36166  1.0000
  C   C159      1.0  0.80590  0.21945  0.37853  1.0000
  H   H114      1.0  0.72509  0.19547  0.35159  1.0000
  N   N63       1.0  0.82287  0.20768  0.42900  1.0000
  C   C160      1.0  0.71110  0.29712  0.39297  1.0000
  C   C161      1.0  0.74639  0.31585  0.37535  1.0000
  C   C162      1.0  0.76228  0.29809  0.34546  1.0000
  N   N64       1.0  0.69603  0.31186  0.43964  1.0000
  H   H115      1.0  0.78806  0.31178  0.34586  1.0000
  H   H116      1.0  0.70922  0.33330  0.46974  1.0000
  H   H117      1.0  0.81060  0.18610  0.45995  1.0000
  C   C163      1.0  0.79902  0.03673  0.34250  1.0000
  C   C164      1.0  0.81739  0.07037  0.37332  1.0000
  C   C165      1.0  0.79918  0.08770  0.38691  1.0000
  H   H118      1.0  0.81154  0.02356  0.34766  1.0000
  N   N65       1.0  0.81323  0.11677  0.43671  1.0000
  C   C166      1.0  0.70860  0.41071  0.31162  1.0000
  C   C167      1.0  0.69110  0.42923  0.31248  1.0000
  C   C168      1.0  0.71036  0.46481  0.31975  1.0000
  N   N66       1.0  0.69114  0.37662  0.32875  1.0000
  H   H119      1.0  0.69748  0.47697  0.33641  1.0000
  H   H120      1.0  0.66793  0.36506  0.34889  1.0000
  H   H121      1.0  0.83373  0.12416  0.47087  1.0000
  C   C169      1.0  0.60371  0.23398  0.41720  1.0000
  N   N67       1.0  0.63380  0.23446  0.41133  1.0000
  C   C170      1.0  0.65686  0.25116  0.34511  1.0000
  H   H122      1.0  0.58876  0.22289  0.47201  1.0000
  C   C171      1.0  0.76902  0.37621  0.41492  1.0000
  N   N68       1.0  0.76745  0.40414  0.39132  1.0000
  C   C172      1.0  0.76224  0.41076  0.30557  1.0000
  H   H123      1.0  0.77049  0.37185  0.48160  1.0000
  C   C173      1.0  0.63644  0.40552  0.38932  1.0000
  N   N69       1.0  0.60716  0.37556  0.39992  1.0000
  C   C174      1.0  0.59262  0.35211  0.33343  1.0000
  H   H124      1.0  0.64744  0.41967  0.44546  1.0000
  C   C175      1.0  0.90914  0.27461  0.36606  1.0000
  N   N70       1.0  0.88060  0.27667  0.37632  1.0000
  C   C176      1.0  0.85567  0.26568  0.31332  1.0000
  H   H125      1.0  0.92467  0.28008  0.42041  1.0000
  C   C177      1.0  0.73604  0.13422  0.38795  1.0000
  N   N71       1.0  0.73606  0.10430  0.38423  1.0000
  C   C178      1.0  0.75648  0.09896  0.32775  1.0000
  H   H126      1.0  0.72179  0.13714  0.43614  1.0000
  C   C179      1.0  0.87757  0.10848  0.41554  1.0000
  N   N72       1.0  0.90564  0.13795  0.39204  1.0000
  C   C180      1.0  0.91317  0.14929  0.30593  1.0000
  H   H127      1.0  0.87271  0.10317  0.48232  1.0000
  C   C181      1.0  0.98486  0.74014  0.30263  1.0000
  C   C182      1.0  0.93058  0.68500  0.29530  1.0000
  C   C183      1.0  0.96662  0.70421  0.28576  1.0000
  C   C184      1.0  0.52098  0.76066  0.31741  1.0000
  C   C185      1.0  0.54027  0.79676  0.30375  1.0000
  C   C186      1.0  0.57123  0.81714  0.35196  1.0000
  N   N73       1.0  0.98246  0.68841  0.24897  1.0000
  N   N74       1.0  0.52968  0.81153  0.24174  1.0000
  H   H128      1.0  0.50438  0.70172  0.22058  1.0000
  H   H129      1.0  0.96982  0.66492  0.23000  1.0000
  H   H130      1.0  0.54161  0.83572  0.23079  1.0000
  H   H131      1.0  0.62377  0.83883  0.46944  1.0000
  H   H132      1.0  0.86429  0.66080  0.32194  1.0000
  C   C187      1.0  0.76456  0.74585  0.32130  1.0000
  C   C188      1.0  0.82157  0.75243  0.33988  1.0000
  C   C189      1.0  0.80005  0.76314  0.29969  1.0000
  C   C190      1.0  0.74501  0.76273  0.32742  1.0000
  C   C191      1.0  0.70875  0.74675  0.32325  1.0000
  C   C192      1.0  0.69171  0.76316  0.36056  1.0000
  N   N75       1.0  0.81277  0.78882  0.23844  1.0000
  N   N76       1.0  0.69074  0.71753  0.27555  1.0000
  H   H133      1.0  0.79779  0.79339  0.20222  1.0000
  H   H134      1.0  0.83646  0.80085  0.22140  1.0000
  H   H135      1.0  0.66636  0.70657  0.26886  1.0000
  H   H136      1.0  0.70206  0.70983  0.23465  1.0000
  H   H137      1.0  0.67298  0.79864  0.46070  1.0000
  H   H138      1.0  0.84521  0.72274  0.45214  1.0000
  C   C193      1.0  0.76427  0.52004  0.31692  1.0000
  C   C194      1.0  0.76643  0.57478  0.34759  1.0000
  C   C195      1.0  0.74997  0.54175  0.30785  1.0000
  C   C196      1.0  0.74593  0.98374  0.30344  1.0000
  C   C197      1.0  0.76168  0.96410  0.28151  1.0000
  C   C198      1.0  0.74427  0.92844  0.29665  1.0000
  N   N77       1.0  0.72263  0.53245  0.25334  1.0000
  N   N78       1.0  0.79151  0.97801  0.23526  1.0000
  H   H139      1.0  0.71533  0.01371  0.21168  1.0000
  H   H140      1.0  0.71291  0.54684  0.24337  1.0000
  H   H141      1.0  0.80064  0.96423  0.21278  1.0000
  H   H142      1.0  0.79985  0.49965  0.20538  1.0000
  H   H143      1.0  0.70158  0.86282  0.32949  1.0000
  H   H144      1.0  0.80011  0.62717  0.45454  1.0000
  N   N79       1.0  0.64996  0.77005  0.28770  1.0000
  C   C199      1.0  0.62087  0.77105  0.29016  1.0000
  C   C200      1.0  0.59664  0.75397  0.35840  1.0000
  H   H145      1.0  0.61863  0.78735  0.24746  1.0000
  N   N80       1.0  0.75634  0.88679  0.24282  1.0000
  C   C201      1.0  0.75759  0.85832  0.26142  1.0000
  C   C202      1.0  0.76141  0.85050  0.35112  1.0000
  H   H146      1.0  0.74997  0.84035  0.21224  1.0000
  N   N81       1.0  0.60930  0.85942  0.25379  1.0000
  C   C203      1.0  0.63856  0.88871  0.23853  1.0000
  C   C204      1.0  0.65518  0.91217  0.30891  1.0000
  H   H147      1.0  0.65111  0.89054  0.18008  1.0000
  N   N82       1.0  0.85961  0.75094  0.23863  1.0000
  C   C205      1.0  0.88715  0.74776  0.22412  1.0000
  C   C206      1.0  0.91170  0.75649  0.29240  1.0000
  H   H148      1.0  0.88665  0.73364  0.17027  1.0000
  N   N83       1.0  0.77894  0.62575  0.27796  1.0000
  C   C207      1.0  0.78083  0.65618  0.27981  1.0000
  C   C208      1.0  0.76072  0.66262  0.34003  1.0000
  H   H149      1.0  0.79955  0.67521  0.24291  1.0000
  N   N84       1.0  0.88977  0.63035  0.24261  1.0000
  C   C209      1.0  0.86126  0.60055  0.26108  1.0000
  C   C210      1.0  0.85239  0.58951  0.35104  1.0000
  H   H150      1.0  0.84382  0.58975  0.21079  1.0000
  C   C211      1.0  0.96457  0.75555  0.31325  1.0000
  C   C212      1.0  0.92926  0.73824  0.30058  1.0000
  C   C213      1.0  0.91172  0.70221  0.30202  1.0000
  H   H151      1.0  0.97564  0.78072  0.32794  1.0000
  N   N85       1.0  0.87744  0.68500  0.31658  1.0000
  C   C214      1.0  0.58665  0.80031  0.39533  1.0000
  C   C215      1.0  0.57356  0.76522  0.38024  1.0000
  C   C216      1.0  0.54000  0.74593  0.35000  1.0000
  N   N86       1.0  0.61487  0.81601  0.44831  1.0000
  H   H152      1.0  0.52932  0.72042  0.35681  1.0000
  H   H153      1.0  0.62272  0.80294  0.48157  1.0000
  H   H154      1.0  0.86535  0.69642  0.33367  1.0000
  C   C217      1.0  0.75049  0.71104  0.34447  1.0000
  C   C218      1.0  0.77110  0.69679  0.36166  1.0000
  C   C219      1.0  0.80590  0.71945  0.37853  1.0000
  H   H155      1.0  0.72509  0.69547  0.35160  1.0000
  N   N87       1.0  0.82287  0.70768  0.42900  1.0000
  C   C220      1.0  0.71110  0.79712  0.39297  1.0000
  C   C221      1.0  0.74638  0.81585  0.37535  1.0000
  C   C222      1.0  0.76228  0.79809  0.34546  1.0000
  N   N88       1.0  0.69603  0.81186  0.43964  1.0000
  H   H156      1.0  0.78806  0.81178  0.34586  1.0000
  H   H157      1.0  0.70922  0.83330  0.46974  1.0000
  H   H158      1.0  0.81060  0.68610  0.45995  1.0000
  C   C223      1.0  0.79902  0.53673  0.34250  1.0000
  C   C224      1.0  0.81739  0.57037  0.37332  1.0000
  C   C225      1.0  0.79918  0.58770  0.38691  1.0000
  H   H159      1.0  0.81154  0.52356  0.34766  1.0000
  N   N89       1.0  0.81322  0.61677  0.43671  1.0000
  C   C226      1.0  0.70860  0.91071  0.31162  1.0000
  C   C227      1.0  0.69110  0.92923  0.31248  1.0000
  C   C228      1.0  0.71036  0.96481  0.31975  1.0000
  N   N90       1.0  0.69114  0.87662  0.32875  1.0000
  H   H160      1.0  0.69748  0.97697  0.33641  1.0000
  H   H161      1.0  0.66793  0.86506  0.34888  1.0000
  H   H162      1.0  0.83373  0.62416  0.47087  1.0000
  C   C229      1.0  0.60371  0.73398  0.41720  1.0000
  N   N91       1.0  0.63380  0.73446  0.41133  1.0000
  C   C230      1.0  0.65686  0.75116  0.34510  1.0000
  H   H163      1.0  0.58876  0.72289  0.47201  1.0000
  C   C231      1.0  0.76902  0.87621  0.41492  1.0000
  N   N92       1.0  0.76745  0.90414  0.39132  1.0000
  C   C232      1.0  0.76225  0.91077  0.30557  1.0000
  H   H164      1.0  0.77049  0.87186  0.48160  1.0000
  C   C233      1.0  0.63644  0.90552  0.38932  1.0000
  N   N93       1.0  0.60716  0.87556  0.39992  1.0000
  C   C234      1.0  0.59262  0.85211  0.33343  1.0000
  H   H165      1.0  0.64744  0.91967  0.44546  1.0000
  C   C235      1.0  0.90914  0.77461  0.36606  1.0000
  N   N94       1.0  0.88060  0.77667  0.37632  1.0000
  C   C236      1.0  0.85567  0.76568  0.31332  1.0000
  H   H166      1.0  0.92467  0.78008  0.42041  1.0000
  C   C237      1.0  0.73604  0.63422  0.38795  1.0000
  N   N95       1.0  0.73606  0.60430  0.38423  1.0000
  C   C238      1.0  0.75648  0.59896  0.32775  1.0000
  H   H167      1.0  0.72179  0.63714  0.43614  1.0000
  C   C239      1.0  0.87757  0.60848  0.41554  1.0000
  N   N96       1.0  0.90564  0.63795  0.39204  1.0000
  C   C240      1.0  0.91317  0.64929  0.30593  1.0000
  H   H168      1.0  0.87270  0.60317  0.48232  1.0000
