data_image0
_chemical_formula_structural       C4NC2NC2H2C4NC2NC2H2C2H2C2H2C2H2C2H3C2H2C2H2C2H2C2H2C4NC2NC2H2C4NC2NC2H2C4NC2NC2H2C4NC2NC2H2C2H2C2H2C2H2C2H2C2H2C2H2C2H2C2H2C4NC2NC2H2C4NC2NC2H2C4NC2NC2H2C4NC2NC2H2C6H3C6H3C6H3C6H3C6H3C6H3C6H3C6H3C6H3C6H3C6H3C6H3C2H2C2H2C2H2C2H2C4NC2NC2H2C4NC2NC2HC4NC2NC2H2C4NC2NC2H2C2H2C2H2C2H2C2H2C2H2C2H2C2H2C2H2C4NC2NC2H2C4NC2NC2H2C4NC2NC2H2C4NC2NC2H2C2H2C2H2C2H2C2H2C2H2C2H2C2H2C2H2
_chemical_formula_sum              "C288 N36 H144"
_cell_length_a       34.549
_cell_length_b       34.3907
_cell_length_c       14.9184
_cell_angle_alpha    90
_cell_angle_beta     90
_cell_angle_gamma    90.2677

_space_group_name_H-M_alt    "P 1"
_space_group_IT_number       1

loop_
  _space_group_symop_operation_xyz
  'x, y, z'

loop_
  _atom_site_type_symbol
  _atom_site_label
  _atom_site_symmetry_multiplicity
  _atom_site_fract_x
  _atom_site_fract_y
  _atom_site_fract_z
  _atom_site_occupancy
  C   C1        1.0  0.97214  0.53291  0.33759  1.0000
  C   C2        1.0  0.98056  0.51053  0.26028  1.0000
  C   C3        1.0  0.01023  0.48175  0.26164  1.0000
  C   C4        1.0  0.03197  0.47443  0.34032  1.0000
  N   N1        1.0  0.01843  0.46276  0.18403  1.0000
  C   C5        1.0  0.99969  0.46964  0.10589  1.0000
  C   C6        1.0  0.97003  0.49787  0.10453  1.0000
  N   N2        1.0  0.96186  0.51716  0.18146  1.0000
  C   C7        1.0  0.00976  0.45000  0.02674  1.0000
  C   C8        1.0  0.95050  0.50588  0.02396  1.0000
  H   H1        1.0  0.03249  0.43126  0.02691  1.0000
  H   H2        1.0  0.93024  0.52724  0.02184  1.0000
  C   C9        1.0  0.46883  0.97173  0.33632  1.0000
  C   C10       1.0  0.49132  0.97984  0.25905  1.0000
  C   C11       1.0  0.52062  0.00927  0.26034  1.0000
  C   C12       1.0  0.52836  0.03101  0.33902  1.0000
  N   N3        1.0  0.53969  0.01721  0.18268  1.0000
  C   C13       1.0  0.53243  0.99841  0.10460  1.0000
  C   C14       1.0  0.50367  0.96899  0.10335  1.0000
  N   N4        1.0  0.48429  0.96110  0.18031  1.0000
  C   C15       1.0  0.55218  0.00820  0.02538  1.0000
  C   C16       1.0  0.49521  0.94943  0.02287  1.0000
  H   H3        1.0  0.57132  0.03078  0.02544  1.0000
  H   H4        1.0  0.47348  0.92937  0.02089  1.0000
  C   C17       1.0  0.07553  0.31121  0.26860  1.0000
  C   C18       1.0  0.06760  0.27095  0.26818  1.0000
  H   H5        1.0  0.07339  0.25535  0.21130  1.0000
  H   H6        1.0  0.08714  0.32358  0.21215  1.0000
  C   C19       1.0  0.01833  0.32092  0.06897  1.0000
  C   C20       1.0  0.01111  0.28060  0.06877  1.0000
  H   H7        1.0  0.01485  0.33662  0.12660  1.0000
  H   H8        1.0  0.00237  0.26698  0.12631  1.0000
  C   C21       1.0  0.92482  0.69540  0.27361  1.0000
  C   C22       1.0  0.93265  0.73558  0.27658  1.0000
  H   H9        1.0  0.92712  0.75196  0.22070  1.0000
  H   H10       1.0  0.91358  0.68384  0.21586  1.0000
  C   C23       1.0  0.98373  0.67720  0.07175  1.0000
  C   C24       1.0  0.99055  0.71757  0.07558  1.0000
  H   H11       1.0  0.98755  0.66051  0.12777  1.0000
  H   H12       1.0  0.99935  0.73013  0.13434  1.0000
  H   H13       1.0  0.98937  0.77010  0.00255  1.0000
  C   C25       1.0  0.69120  0.07651  0.26728  1.0000
  C   C26       1.0  0.73132  0.06914  0.26742  1.0000
  H   H14       1.0  0.74696  0.07516  0.21072  1.0000
  H   H15       1.0  0.67897  0.08799  0.21066  1.0000
  C   C27       1.0  0.68061  0.01916  0.06758  1.0000
  C   C28       1.0  0.72079  0.01253  0.06800  1.0000
  H   H16       1.0  0.66485  0.01549  0.12501  1.0000
  H   H17       1.0  0.73425  0.00402  0.12578  1.0000
  C   C29       1.0  0.30646  0.92572  0.27015  1.0000
  C   C30       1.0  0.26671  0.93454  0.27219  1.0000
  H   H18       1.0  0.25044  0.92920  0.21606  1.0000
  H   H19       1.0  0.31785  0.91414  0.21269  1.0000
  C   C31       1.0  0.32445  0.98443  0.06861  1.0000
  C   C32       1.0  0.28447  0.99212  0.07160  1.0000
  H   H20       1.0  0.34096  0.98792  0.12499  1.0000
  H   H21       1.0  0.27201  0.00120  0.13011  1.0000
  C   C33       1.0  0.44882  0.75046  0.32691  1.0000
  C   C34       1.0  0.45461  0.77315  0.24881  1.0000
  C   C35       1.0  0.44563  0.81364  0.24783  1.0000
  C   C36       1.0  0.43083  0.83213  0.32550  1.0000
  N   N5        1.0  0.44996  0.83329  0.16918  1.0000
  C   C37       1.0  0.46252  0.81633  0.09233  1.0000
  C   C38       1.0  0.47152  0.77620  0.09363  1.0000
  N   N6        1.0  0.46710  0.75640  0.17149  1.0000
  C   C39       1.0  0.46597  0.83733  0.01176  1.0000
  C   C40       1.0  0.48391  0.75753  0.01481  1.0000
  H   H22       1.0  0.45813  0.86578  0.00932  1.0000
  H   H23       1.0  0.48914  0.72835  0.01487  1.0000
  C   C41       1.0  0.55256  0.25138  0.32843  1.0000
  C   C42       1.0  0.54578  0.22746  0.25261  1.0000
  C   C43       1.0  0.55339  0.18676  0.25621  1.0000
  C   C44       1.0  0.56807  0.16950  0.33540  1.0000
  N   N7        1.0  0.54753  0.16532  0.18063  1.0000
  C   C45       1.0  0.53502  0.18069  0.10213  1.0000
  C   C46       1.0  0.52797  0.22122  0.09818  1.0000
  N   N8        1.0  0.53355  0.24276  0.17338  1.0000
  C   C47       1.0  0.52970  0.15747  0.02530  1.0000
  C   C48       1.0  0.51608  0.23829  0.01701  1.0000
  H   H24       1.0  0.53488  0.12821  0.02770  1.0000
  H   H25       1.0  0.51184  0.26761  0.01310  1.0000
  C   C49       1.0  0.75077  0.55363  0.32696  1.0000
  C   C50       1.0  0.77350  0.54719  0.24938  1.0000
  C   C51       1.0  0.81410  0.55517  0.24930  1.0000
  C   C52       1.0  0.83271  0.56953  0.32741  1.0000
  N   N9        1.0  0.83382  0.55033  0.17108  1.0000
  C   C53       1.0  0.81684  0.53813  0.09388  1.0000
  C   C54       1.0  0.77658  0.53014  0.09425  1.0000
  N   N10       1.0  0.75671  0.53510  0.17167  1.0000
  C   C55       1.0  0.83797  0.53404  0.01384  1.0000
  C   C56       1.0  0.75792  0.51819  0.01499  1.0000
  H   H26       1.0  0.86660  0.54102  0.01217  1.0000
  H   H27       1.0  0.72870  0.51369  0.01436  1.0000
  C   C57       1.0  0.25166  0.44851  0.33110  1.0000
  C   C58       1.0  0.22798  0.45553  0.25527  1.0000
  C   C59       1.0  0.18726  0.44860  0.25900  1.0000
  C   C60       1.0  0.16970  0.43429  0.33835  1.0000
  N   N11       1.0  0.16607  0.45468  0.18338  1.0000
  C   C61       1.0  0.18169  0.46678  0.10471  1.0000
  C   C62       1.0  0.22222  0.47305  0.10058  1.0000
  N   N12       1.0  0.24353  0.46729  0.17583  1.0000
  C   C63       1.0  0.15870  0.47241  0.02786  1.0000
  C   C64       1.0  0.23952  0.48440  0.01921  1.0000
  H   H28       1.0  0.12944  0.46781  0.03038  1.0000
  H   H29       1.0  0.26883  0.48795  0.01512  1.0000
  C   C65       1.0  0.09846  0.09098  0.25597  1.0000
  C   C66       1.0  0.12113  0.05716  0.25741  1.0000
  H   H30       1.0  0.12076  0.03945  0.20215  1.0000
  H   H31       1.0  0.08235  0.09671  0.19986  1.0000
  C   C67       1.0  0.14571  0.12698  0.05598  1.0000
  C   C68       1.0  0.16827  0.09299  0.05765  1.0000
  H   H32       1.0  0.14307  0.14354  0.11258  1.0000
  H   H33       1.0  0.18200  0.08492  0.11541  1.0000
  C   C69       1.0  0.90171  0.91384  0.26090  1.0000
  C   C70       1.0  0.87915  0.94774  0.26139  1.0000
  H   H34       1.0  0.87966  0.96516  0.20565  1.0000
  H   H35       1.0  0.91790  0.90782  0.20509  1.0000
  C   C71       1.0  0.85398  0.87925  0.06103  1.0000
  C   C72       1.0  0.83165  0.91339  0.06241  1.0000
  H   H36       1.0  0.85647  0.86273  0.11773  1.0000
  H   H37       1.0  0.81793  0.92162  0.12007  1.0000
  C   C73       1.0  0.91092  0.10100  0.25504  1.0000
  C   C74       1.0  0.94528  0.12303  0.25691  1.0000
  H   H38       1.0  0.96291  0.12244  0.20168  1.0000
  H   H39       1.0  0.90488  0.08490  0.19890  1.0000
  C   C75       1.0  0.87515  0.14849  0.05478  1.0000
  C   C76       1.0  0.90961  0.17047  0.05729  1.0000
  H   H40       1.0  0.85840  0.14605  0.11106  1.0000
  H   H41       1.0  0.91785  0.18399  0.11534  1.0000
  C   C77       1.0  0.08840  0.90416  0.25994  1.0000
  C   C78       1.0  0.05420  0.88191  0.26221  1.0000
  H   H42       1.0  0.03643  0.88240  0.20720  1.0000
  H   H43       1.0  0.09426  0.92021  0.20362  1.0000
  C   C79       1.0  0.12499  0.85705  0.05964  1.0000
  C   C80       1.0  0.09065  0.83486  0.06231  1.0000
  H   H44       1.0  0.14176  0.85962  0.11586  1.0000
  H   H45       1.0  0.08255  0.82130  0.12042  1.0000
  C   C81       1.0  0.36070  0.54282  0.34109  1.0000
  C   C82       1.0  0.36266  0.56688  0.26408  1.0000
  C   C83       1.0  0.38531  0.60168  0.26494  1.0000
  C   C84       1.0  0.40627  0.61271  0.34258  1.0000
  N   N13       1.0  0.38821  0.62252  0.18762  1.0000
  C   C85       1.0  0.37033  0.61218  0.11024  1.0000
  C   C86       1.0  0.34793  0.57756  0.10927  1.0000
  N   N14       1.0  0.34528  0.55634  0.18578  1.0000
  C   C87       1.0  0.37390  0.63477  0.03190  1.0000
  C   C88       1.0  0.32935  0.56576  0.02979  1.0000
  H   H46       1.0  0.39008  0.65976  0.03219  1.0000
  H   H47       1.0  0.31337  0.54075  0.02849  1.0000
  C   C89       1.0  0.64197  0.45875  0.33798  1.0000
  C   C90       1.0  0.63970  0.43442  0.26139  1.0000
  C   C91       1.0  0.61698  0.39967  0.26334  1.0000
  C   C92       1.0  0.59620  0.38890  0.34142  1.0000
  N   N15       1.0  0.61377  0.37849  0.18661  1.0000
  C   C93       1.0  0.63144  0.38839  0.10873  1.0000
  C   C94       1.0  0.65394  0.42294  0.10657  1.0000
  N   N16       1.0  0.65688  0.44454  0.18253  1.0000
  C   C95       1.0  0.62753  0.36540  0.03111  1.0000
  C   C96       1.0  0.67234  0.43418  0.02643  1.0000
  H   H48       1.0  0.61126  0.34047  0.03238  1.0000
  H   H49       1.0  0.68844  0.45905  0.02418  1.0000
  C   C97       1.0  0.54429  0.64259  0.33834  1.0000
  C   C98       1.0  0.56851  0.64052  0.26173  1.0000
  C   C99       1.0  0.60318  0.61812  0.26371  1.0000
  C   C100      1.0  0.61403  0.59748  0.34188  1.0000
  N   N17       1.0  0.62422  0.61504  0.18691  1.0000
  C   C101      1.0  0.61424  0.63256  0.10894  1.0000
  C   C102      1.0  0.57980  0.65474  0.10675  1.0000
  N   N18       1.0  0.55834  0.65754  0.18277  1.0000
  C   C103      1.0  0.63711  0.62883  0.03128  1.0000
  C   C104      1.0  0.56853  0.67301  0.02655  1.0000
  H   H50       1.0  0.66197  0.61279  0.03258  1.0000
  H   H51       1.0  0.54374  0.68892  0.02430  1.0000
  C   C105      1.0  0.45803  0.35935  0.34039  1.0000
  C   C106      1.0  0.43373  0.36115  0.26397  1.0000
  C   C107      1.0  0.39898  0.38339  0.26589  1.0000
  C   C108      1.0  0.38815  0.40405  0.34404  1.0000
  N   N19       1.0  0.37793  0.38625  0.18904  1.0000
  C   C109      1.0  0.38800  0.36863  0.11120  1.0000
  C   C110      1.0  0.42256  0.34660  0.10917  1.0000
  N   N20       1.0  0.44399  0.34405  0.18519  1.0000
  C   C111      1.0  0.36518  0.37212  0.03341  1.0000
  C   C112      1.0  0.43403  0.32826  0.02920  1.0000
  H   H52       1.0  0.34024  0.38804  0.03449  1.0000
  H   H53       1.0  0.45898  0.31251  0.02715  1.0000
  C   C113      1.0  0.07813  0.37476  0.34454  1.0000
  C   C114      1.0  0.11769  0.38545  0.34339  1.0000
  C   C115      1.0  0.12946  0.42487  0.34227  1.0000
  C   C116      1.0  0.10071  0.45411  0.34210  1.0000
  C   C117      1.0  0.06078  0.44455  0.34375  1.0000
  C   C118      1.0  0.05001  0.40466  0.34486  1.0000
  H   H54       1.0  0.10899  0.48274  0.34003  1.0000
  H   H55       1.0  0.02126  0.39725  0.34500  1.0000
  H   H56       1.0  0.13832  0.36412  0.34270  1.0000
  C   C119      1.0  0.92293  0.63083  0.34354  1.0000
  C   C120      1.0  0.88374  0.61930  0.33617  1.0000
  C   C121      1.0  0.87293  0.57971  0.32954  1.0000
  C   C122      1.0  0.90260  0.55133  0.32870  1.0000
  C   C123      1.0  0.94224  0.56179  0.33796  1.0000
  C   C124      1.0  0.95178  0.60175  0.34614  1.0000
  H   H57       1.0  0.89513  0.52254  0.32445  1.0000
  H   H58       1.0  0.98027  0.60991  0.35093  1.0000
  H   H59       1.0  0.86264  0.64017  0.33610  1.0000
  C   C125      1.0  0.62770  0.07827  0.34241  1.0000
  C   C126      1.0  0.61696  0.11789  0.34082  1.0000
  C   C127      1.0  0.57770  0.12925  0.33953  1.0000
  C   C128      1.0  0.54866  0.10007  0.33981  1.0000
  C   C129      1.0  0.55823  0.06009  0.34197  1.0000
  C   C130      1.0  0.59796  0.04969  0.34313  1.0000
  H   H60       1.0  0.52014  0.10808  0.33773  1.0000
  H   H61       1.0  0.60536  0.02088  0.34366  1.0000
  H   H62       1.0  0.63814  0.13888  0.33995  1.0000
  C   C131      1.0  0.37055  0.92291  0.34117  1.0000
  C   C132      1.0  0.38152  0.88346  0.33379  1.0000
  C   C133      1.0  0.42082  0.87247  0.32757  1.0000
  C   C134      1.0  0.44946  0.90214  0.32745  1.0000
  C   C135      1.0  0.43957  0.94196  0.33667  1.0000
  C   C136      1.0  0.39992  0.95174  0.34422  1.0000
  H   H63       1.0  0.47804  0.89451  0.32349  1.0000
  H   H64       1.0  0.39221  0.98040  0.34896  1.0000
  H   H65       1.0  0.36049  0.86233  0.33339  1.0000
  C   C137      1.0  0.06563  0.14362  0.33499  1.0000
  C   C138      1.0  0.02663  0.13114  0.33543  1.0000
  C   C139      1.0  0.99569  0.15781  0.33928  1.0000
  C   C140      1.0  0.00444  0.19799  0.34361  1.0000
  C   C141      1.0  0.04330  0.21150  0.34187  1.0000
  C   C142      1.0  0.07365  0.18395  0.33813  1.0000
  H   H66       1.0  0.98223  0.21762  0.34515  1.0000
  H   H67       1.0  0.10185  0.19329  0.33770  1.0000
  H   H68       1.0  0.02060  0.10190  0.33349  1.0000
  C   C143      1.0  0.93425  0.86155  0.34172  1.0000
  C   C144      1.0  0.97324  0.87399  0.34085  1.0000
  C   C145      1.0  0.00412  0.84731  0.34593  1.0000
  C   C146      1.0  0.99542  0.80723  0.35355  1.0000
  C   C147      1.0  0.95655  0.79382  0.35385  1.0000
  C   C148      1.0  0.92621  0.82131  0.34818  1.0000
  H   H69       1.0  0.01761  0.78759  0.35543  1.0000
  H   H70       1.0  0.89801  0.81198  0.34809  1.0000
  H   H71       1.0  0.97930  0.90318  0.33694  1.0000
  C   C149      1.0  0.85808  0.06844  0.33431  1.0000
  C   C150      1.0  0.87049  0.02941  0.33699  1.0000
  C   C151      1.0  0.84395  0.99813  0.34176  1.0000
  C   C152      1.0  0.80395  0.00655  0.34529  1.0000
  C   C153      1.0  0.79047  0.04545  0.34183  1.0000
  C   C154      1.0  0.81792  0.07616  0.33681  1.0000
  H   H72       1.0  0.78443  0.98406  0.34760  1.0000
  H   H73       1.0  0.80865  0.10440  0.33518  1.0000
  H   H74       1.0  0.89961  0.02362  0.33573  1.0000
  C   C155      1.0  0.14135  0.93691  0.33831  1.0000
  C   C156      1.0  0.12929  0.97606  0.33667  1.0000
  C   C157      1.0  0.15607  0.00716  0.34038  1.0000
  C   C158      1.0  0.19595  0.99845  0.34757  1.0000
  C   C159      1.0  0.20900  0.95940  0.34855  1.0000
  C   C160      1.0  0.18133  0.92889  0.34420  1.0000
  H   H75       1.0  0.21569  0.02076  0.34891  1.0000
  H   H76       1.0  0.19035  0.90055  0.34484  1.0000
  H   H77       1.0  0.10025  0.98206  0.33339  1.0000
  C   C161      1.0  0.43575  0.64176  0.33908  1.0000
  C   C162      1.0  0.47480  0.62986  0.33873  1.0000
  C   C163      1.0  0.50560  0.65694  0.33398  1.0000
  C   C164      1.0  0.49662  0.69698  0.32821  1.0000
  C   C165      1.0  0.45766  0.70992  0.32956  1.0000
  C   C166      1.0  0.42750  0.68192  0.33450  1.0000
  H   H78       1.0  0.51870  0.71694  0.32598  1.0000
  H   H79       1.0  0.39924  0.69081  0.33488  1.0000
  H   H80       1.0  0.48096  0.60071  0.34151  1.0000
  C   C167      1.0  0.56656  0.35999  0.33874  1.0000
  C   C168      1.0  0.52756  0.37206  0.33980  1.0000
  C   C169      1.0  0.49666  0.34508  0.33560  1.0000
  C   C170      1.0  0.50537  0.30505  0.32872  1.0000
  C   C171      1.0  0.54424  0.29197  0.32852  1.0000
  C   C172      1.0  0.57458  0.31979  0.33321  1.0000
  H   H81       1.0  0.48318  0.28519  0.32743  1.0000
  H   H82       1.0  0.60278  0.31072  0.33316  1.0000
  H   H83       1.0  0.52151  0.40121  0.34307  1.0000
  C   C173      1.0  0.64267  0.56779  0.33892  1.0000
  C   C174      1.0  0.63025  0.52862  0.33849  1.0000
  C   C175      1.0  0.65674  0.49753  0.33373  1.0000
  C   C176      1.0  0.69671  0.50627  0.32788  1.0000
  C   C177      1.0  0.71021  0.54531  0.32920  1.0000
  C   C178      1.0  0.68281  0.57581  0.33426  1.0000
  H   H84       1.0  0.71622  0.48395  0.32582  1.0000
  H   H85       1.0  0.69212  0.60413  0.33463  1.0000
  H   H86       1.0  0.60115  0.52258  0.34114  1.0000
  C   C179      1.0  0.35964  0.43383  0.34112  1.0000
  C   C180      1.0  0.37221  0.47295  0.34147  1.0000
  C   C181      1.0  0.34581  0.50412  0.33721  1.0000
  C   C182      1.0  0.30583  0.49555  0.33083  1.0000
  C   C183      1.0  0.29223  0.45657  0.33119  1.0000
  C   C184      1.0  0.31950  0.42595  0.33609  1.0000
  H   H87       1.0  0.28640  0.51796  0.32922  1.0000
  H   H88       1.0  0.31008  0.39766  0.33644  1.0000
  H   H89       1.0  0.40132  0.47891  0.34426  1.0000
  C   C185      1.0  0.02501  0.49857  0.41528  1.0000
  C   C186      1.0  0.99582  0.52720  0.41388  1.0000
  H   H90       1.0  0.99144  0.54356  0.47032  1.0000
  H   H91       1.0  0.04093  0.49504  0.47259  1.0000
  C   C187      1.0  0.98908  0.45693  0.61380  1.0000
  C   C188      1.0  0.95940  0.48484  0.61245  1.0000
  H   H92       1.0  0.99608  0.44217  0.55659  1.0000
  H   H93       1.0  0.94478  0.49036  0.55427  1.0000
  C   C189      1.0  0.50416  0.02438  0.41398  1.0000
  C   C190      1.0  0.47502  0.99542  0.41262  1.0000
  H   H94       1.0  0.45864  0.99124  0.46905  1.0000
  H   H95       1.0  0.50795  0.04040  0.47119  1.0000
  C   C191      1.0  0.54478  0.98747  0.61250  1.0000
  C   C192      1.0  0.51632  0.95804  0.61129  1.0000
  H   H96       1.0  0.55957  0.99432  0.55521  1.0000
  H   H97       1.0  0.51044  0.94343  0.55313  1.0000
  C   C193      1.0  0.05166  0.25221  0.34407  1.0000
  C   C194      1.0  0.04523  0.27482  0.42191  1.0000
  C   C195      1.0  0.05310  0.31560  0.42228  1.0000
  C   C196      1.0  0.06765  0.33444  0.34467  1.0000
  N   N21       1.0  0.04788  0.33535  0.50037  1.0000
  C   C197      1.0  0.03562  0.31818  0.57727  1.0000
  C   C198      1.0  0.02815  0.27767  0.57704  1.0000
  N   N22       1.0  0.03326  0.25780  0.49955  1.0000
  C   C199      1.0  0.03103  0.33951  0.65686  1.0000
  C   C200      1.0  0.01648  0.25889  0.65646  1.0000
  H   H98       1.0  0.03726  0.36840  0.65757  1.0000
  H   H99       1.0  0.01243  0.22948  0.65733  1.0000
  C   C201      1.0  0.94825  0.75316  0.35432  1.0000
  C   C202      1.0  0.95508  0.72938  0.43024  1.0000
  C   C203      1.0  0.94743  0.68861  0.42693  1.0000
  C   C204      1.0  0.93262  0.67116  0.34794  1.0000
  N   N23       1.0  0.95330  0.66732  0.50261  1.0000
  C   C205      1.0  0.96592  0.68289  0.58094  1.0000
  C   C206      1.0  0.97305  0.72348  0.58457  1.0000
  N   N24       1.0  0.96742  0.74489  0.50928  1.0000
  C   C207      1.0  0.97127  0.65981  0.65792  1.0000
  C   C208      1.0  0.98507  0.74074  0.66555  1.0000
  H   H100      1.0  0.96602  0.63052  0.65576  1.0000
  C   C209      1.0  0.74991  0.05343  0.34357  1.0000
  C   C210      1.0  0.72720  0.04665  0.42107  1.0000
  C   C211      1.0  0.68656  0.05395  0.42085  1.0000
  C   C212      1.0  0.66789  0.06825  0.34298  1.0000
  N   N25       1.0  0.66672  0.04845  0.49867  1.0000
  C   C213      1.0  0.68368  0.03644  0.57585  1.0000
  C   C214      1.0  0.72404  0.02957  0.57625  1.0000
  N   N26       1.0  0.74399  0.03496  0.49901  1.0000
  C   C215      1.0  0.66226  0.03159  0.65515  1.0000
  C   C216      1.0  0.74258  0.01823  0.65600  1.0000
  H   H101      1.0  0.63348  0.03746  0.65540  1.0000
  H   H102      1.0  0.77188  0.01471  0.65735  1.0000
  C   C217      1.0  0.24937  0.95078  0.34935  1.0000
  C   C218      1.0  0.27294  0.95701  0.42584  1.0000
  C   C219      1.0  0.31328  0.94838  0.42346  1.0000
  C   C220      1.0  0.33054  0.93304  0.34496  1.0000
  N   N27       1.0  0.33433  0.95378  0.49963  1.0000
  C   C221      1.0  0.31890  0.96675  0.57763  1.0000
  C   C222      1.0  0.27871  0.97476  0.58040  1.0000
  N   N28       1.0  0.25755  0.96966  0.50460  1.0000
  C   C223      1.0  0.34170  0.97158  0.65513  1.0000
  C   C224      1.0  0.26156  0.98712  0.66105  1.0000
  H   H103      1.0  0.37070  0.96570  0.65359  1.0000
  H   H104      1.0  0.23247  0.99206  0.66410  1.0000
  C   C225      1.0  0.42358  0.80876  0.40180  1.0000
  C   C226      1.0  0.43237  0.76879  0.40253  1.0000
  H   H105      1.0  0.42694  0.75311  0.45958  1.0000
  H   H106      1.0  0.41197  0.82086  0.45844  1.0000
  C   C227      1.0  0.47952  0.81889  0.60037  1.0000
  C   C228      1.0  0.48848  0.77901  0.60189  1.0000
  H   H107      1.0  0.48232  0.83437  0.54219  1.0000
  H   H108      1.0  0.49776  0.76550  0.54478  1.0000
  C   C229      1.0  0.57597  0.19387  0.40951  1.0000
  C   C230      1.0  0.56817  0.23400  0.40626  1.0000
  H   H109      1.0  0.57373  0.25050  0.46201  1.0000
  H   H110      1.0  0.58725  0.18244  0.46724  1.0000
  C   C231      1.0  0.51734  0.17465  0.61129  1.0000
  C   C232      1.0  0.51060  0.21497  0.60713  1.0000
  H   H111      1.0  0.51352  0.15785  0.55537  1.0000
  H   H112      1.0  0.50187  0.22737  0.54824  1.0000
  C   C233      1.0  0.80938  0.57729  0.40327  1.0000
  C   C234      1.0  0.76930  0.56949  0.40315  1.0000
  H   H113      1.0  0.75368  0.57523  0.45995  1.0000
  H   H114      1.0  0.82156  0.58874  0.46011  1.0000
  C   C235      1.0  0.81948  0.52097  0.60198  1.0000
  C   C236      1.0  0.77947  0.51305  0.60255  1.0000
  H   H115      1.0  0.83504  0.51774  0.54415  1.0000
  H   H116      1.0  0.76595  0.50408  0.54512  1.0000
  C   C237      1.0  0.19384  0.42597  0.41236  1.0000
  C   C238      1.0  0.23399  0.43317  0.40900  1.0000
  H   H117      1.0  0.25029  0.42737  0.46475  1.0000
  H   H118      1.0  0.18222  0.41479  0.47010  1.0000
  C   C239      1.0  0.17613  0.48436  0.61370  1.0000
  C   C240      1.0  0.21644  0.49028  0.60935  1.0000
  H   H119      1.0  0.15949  0.48845  0.55780  1.0000
  H   H120      1.0  0.22902  0.49870  0.55037  1.0000
  C   C241      1.0  0.14150  0.04585  0.33535  1.0000
  C   C242      1.0  0.13909  0.07007  0.41201  1.0000
  C   C243      1.0  0.11617  0.10448  0.41046  1.0000
  C   C244      1.0  0.09530  0.11500  0.33242  1.0000
  N   N29       1.0  0.11290  0.12542  0.48752  1.0000
  C   C245      1.0  0.13069  0.11555  0.56524  1.0000
  C   C246      1.0  0.15338  0.08134  0.56686  1.0000
  N   N30       1.0  0.15637  0.06002  0.49064  1.0000
  C   C247      1.0  0.12676  0.13823  0.64328  1.0000
  C   C248      1.0  0.17196  0.07007  0.64664  1.0000
  H   H121      1.0  0.11035  0.16293  0.64253  1.0000
  H   H122      1.0  0.18824  0.04540  0.64834  1.0000
  C   C249      1.0  0.85876  0.95950  0.33898  1.0000
  C   C250      1.0  0.86100  0.93565  0.41636  1.0000
  C   C251      1.0  0.88374  0.90111  0.41554  1.0000
  C   C252      1.0  0.90462  0.89017  0.33794  1.0000
  N   N31       1.0  0.88687  0.88033  0.49281  1.0000
  C   C253      1.0  0.86912  0.89045  0.57031  1.0000
  C   C254      1.0  0.84665  0.92481  0.57145  1.0000
  N   N32       1.0  0.84375  0.94600  0.49488  1.0000
  C   C255      1.0  0.87291  0.86782  0.64847  1.0000
  C   C256      1.0  0.82818  0.93623  0.65123  1.0000
  H   H123      1.0  0.88915  0.84302  0.64788  1.0000
  H   H124      1.0  0.81212  0.96098  0.65283  1.0000
  C   C257      1.0  0.95703  0.14310  0.33514  1.0000
  C   C258      1.0  0.93271  0.14120  0.41163  1.0000
  C   C259      1.0  0.89778  0.11889  0.40951  1.0000
  C   C260      1.0  0.88679  0.09829  0.33125  1.0000
  N   N33       1.0  0.87661  0.11591  0.48616  1.0000
  C   C261      1.0  0.88669  0.13346  0.56415  1.0000
  C   C262      1.0  0.92139  0.15557  0.56648  1.0000
  N   N34       1.0  0.94297  0.15826  0.49059  1.0000
  C   C263      1.0  0.86370  0.12982  0.64170  1.0000
  C   C264      1.0  0.93279  0.17383  0.64673  1.0000
  H   H125      1.0  0.83866  0.11383  0.64030  1.0000
  H   H126      1.0  0.95778  0.18963  0.64913  1.0000
  C   C265      1.0  0.04272  0.86189  0.34070  1.0000
  C   C266      1.0  0.06716  0.86397  0.41689  1.0000
  C   C267      1.0  0.10192  0.88649  0.41443  1.0000
  C   C268      1.0  0.11258  0.90716  0.33603  1.0000
  N   N35       1.0  0.12315  0.88961  0.49098  1.0000
  C   C269      1.0  0.11326  0.87200  0.56905  1.0000
  C   C270      1.0  0.07869  0.84968  0.57163  1.0000
  N   N36       1.0  0.05707  0.84686  0.49590  1.0000
  C   C271      1.0  0.13628  0.87578  0.64650  1.0000
  C   C272      1.0  0.06741  0.83132  0.65187  1.0000
  H   H127      1.0  0.16122  0.89193  0.64499  1.0000
  H   H128      1.0  0.04247  0.81534  0.65436  1.0000
  C   C273      1.0  0.40352  0.58882  0.41939  1.0000
  C   C274      1.0  0.38113  0.55460  0.41868  1.0000
  H   H129      1.0  0.38169  0.53707  0.47422  1.0000
  H   H130      1.0  0.41971  0.59498  0.47522  1.0000
  C   C275      1.0  0.35492  0.62298  0.61952  1.0000
  C   C276      1.0  0.33269  0.58856  0.61846  1.0000
  H   H131      1.0  0.35732  0.63945  0.56268  1.0000
  H   H132      1.0  0.31898  0.58007  0.56088  1.0000
  C   C277      1.0  0.59927  0.41304  0.41774  1.0000
  C   C278      1.0  0.62177  0.44718  0.41611  1.0000
  H   H133      1.0  0.62135  0.46489  0.47137  1.0000
  H   H134      1.0  0.58319  0.40714  0.47390  1.0000
  C   C279      1.0  0.64632  0.37668  0.61811  1.0000
  C   C280      1.0  0.66869  0.41099  0.61578  1.0000
  H   H135      1.0  0.64369  0.35992  0.56177  1.0000
  H   H136      1.0  0.68231  0.41910  0.55780  1.0000
  C   C281      1.0  0.59001  0.60033  0.41820  1.0000
  C   C282      1.0  0.55594  0.62250  0.41650  1.0000
  H   H137      1.0  0.53834  0.62193  0.47181  1.0000
  H   H138      1.0  0.59593  0.58428  0.47438  1.0000
  C   C283      1.0  0.62581  0.64752  0.61824  1.0000
  C   C284      1.0  0.59160  0.66959  0.61589  1.0000
  H   H139      1.0  0.64249  0.64505  0.56190  1.0000
  H   H140      1.0  0.58349  0.68315  0.55789  1.0000
  C   C285      1.0  0.41223  0.40137  0.42035  1.0000
  C   C286      1.0  0.44643  0.37942  0.41858  1.0000
  H   H141      1.0  0.46413  0.38018  0.47371  1.0000
  H   H142      1.0  0.40633  0.41750  0.47644  1.0000
  C   C287      1.0  0.37665  0.35339  0.62054  1.0000
  C   C288      1.0  0.41099  0.33150  0.61844  1.0000
  H   H143      1.0  0.36001  0.35572  0.56410  1.0000
  H   H144      1.0  0.41922  0.31795  0.56052  1.0000
