data_image0
_chemical_formula_structural       C3N3HCN3HCN3HNCNCNC3O3NCNCNC3O3C3H2NHC3H2NHC3H2NHC3N3HCN3HCN3HNCNCNC3O3NCNCNC3O3C3H2NHC3H2NHC3H2NHC3N3HCN3HCN3HNCNCNC3O3NCNCNC3O3C3H2NHC3H2NHC3H2NHC3N3HCN3HCN3HNCNCNC3O3NCNCNC3O3C3H2NHC3H2NHC3H2NH
_chemical_formula_sum              "C96 N72 H48 O24"
_cell_length_a       43.2436
_cell_length_b       43.2436
_cell_length_c       15.0602
_cell_angle_alpha    90
_cell_angle_beta     90
_cell_angle_gamma    120

_space_group_name_H-M_alt    "P 1"
_space_group_IT_number       1

loop_
  _space_group_symop_operation_xyz
  'x, y, z'

loop_
  _atom_site_type_symbol
  _atom_site_label
  _atom_site_symmetry_multiplicity
  _atom_site_fract_x
  _atom_site_fract_y
  _atom_site_fract_z
  _atom_site_occupancy
  C   C1        1.0  0.12907  0.32457  0.25915  1.0000
  C   C2        1.0  0.36668  0.17896  0.42372  1.0000
  C   C3        1.0  0.22030  0.25626  0.31212  1.0000
  N   N1        1.0  0.27018  0.25102  0.35210  1.0000
  N   N2        1.0  0.25604  0.26950  0.32229  1.0000
  N   N3        1.0  0.21015  0.27980  0.28327  1.0000
  H   H1        1.0  0.22982  0.30417  0.27508  1.0000
  C   C4        1.0  0.23875  0.46305  0.31176  1.0000
  N   N4        1.0  0.24401  0.01819  0.35160  1.0000
  N   N5        1.0  0.22553  0.48558  0.32182  1.0000
  N   N6        1.0  0.21520  0.42936  0.28303  1.0000
  H   H2        1.0  0.19083  0.42466  0.27484  1.0000
  C   C5        1.0  0.03196  0.27469  0.31223  1.0000
  N   N7        1.0  0.47683  0.22481  0.35216  1.0000
  N   N8        1.0  0.00944  0.23894  0.32235  1.0000
  N   N9        1.0  0.06564  0.28484  0.28339  1.0000
  H   H3        1.0  0.07035  0.26516  0.27522  1.0000
  N   N10       1.0  0.15705  0.35852  0.25966  1.0000
  C   C6        1.0  0.19149  0.36592  0.25901  1.0000
  N   N11       1.0  0.19747  0.33795  0.25960  1.0000
  C   C7        1.0  0.17042  0.30350  0.25908  1.0000
  N   N12       1.0  0.13648  0.29753  0.25975  1.0000
  C   C8        1.0  0.22026  0.40099  0.26904  1.0000
  C   C9        1.0  0.17672  0.27473  0.26923  1.0000
  C   C10       1.0  0.09400  0.31826  0.26936  1.0000
  O   O1        1.0  0.14737  0.24178  0.27100  1.0000
  O   O2        1.0  0.09037  0.34760  0.27090  1.0000
  O   O3        1.0  0.25322  0.40462  0.27054  1.0000
  N   N13       1.0  0.34433  0.14307  0.42299  1.0000
  C   C11       1.0  0.30827  0.12831  0.42347  1.0000
  N   N14       1.0  0.29473  0.15067  0.42295  1.0000
  C   C12       1.0  0.31603  0.18673  0.42366  1.0000
  N   N15       1.0  0.35192  0.20026  0.42317  1.0000
  C   C13       1.0  0.28537  0.09130  0.41384  1.0000
  C   C14       1.0  0.30193  0.20964  0.41417  1.0000
  C   C15       1.0  0.40370  0.19306  0.41428  1.0000
  O   O4        1.0  0.32588  0.24506  0.40800  1.0000
  O   O5        1.0  0.41514  0.16910  0.40780  1.0000
  O   O6        1.0  0.24996  0.07985  0.40744  1.0000
  C   C16       1.0  0.19805  0.22011  0.33691  1.0000
  C   C17       1.0  0.21325  0.20018  0.36907  1.0000
  C   C18       1.0  0.25069  0.21625  0.37720  1.0000
  H   H4        1.0  0.19690  0.17405  0.38652  1.0000
  H   H5        1.0  0.17098  0.20777  0.33366  1.0000
  N   N16       1.0  0.26621  0.19718  0.40475  1.0000
  H   H6        1.0  0.25013  0.17177  0.41519  1.0000
  C   C19       1.0  0.27490  0.47696  0.33659  1.0000
  C   C20       1.0  0.29483  0.01208  0.36875  1.0000
  C   C21       1.0  0.27877  0.03346  0.37678  1.0000
  H   H7        1.0  0.32095  0.02184  0.38632  1.0000
  H   H8        1.0  0.28721  0.46219  0.33357  1.0000
  N   N17       1.0  0.29784  0.06805  0.40439  1.0000
  H   H9        1.0  0.32324  0.07737  0.41494  1.0000
  C   C22       1.0  0.01806  0.29694  0.33709  1.0000
  C   C23       1.0  0.48294  0.28175  0.36924  1.0000
  C   C24       1.0  0.46156  0.24430  0.37732  1.0000
  H   H10       1.0  0.47317  0.29810  0.38675  1.0000
  H   H11       1.0  0.03281  0.32401  0.33392  1.0000
  N   N18       1.0  0.42696  0.22878  0.40490  1.0000
  H   H12       1.0  0.41764  0.24486  0.41541  1.0000
  C   C25       1.0  0.12907  0.82457  0.25915  1.0000
  C   C26       1.0  0.36668  0.67896  0.42372  1.0000
  C   C27       1.0  0.22030  0.75626  0.31212  1.0000
  N   N19       1.0  0.27018  0.75103  0.35210  1.0000
  N   N20       1.0  0.25604  0.76950  0.32229  1.0000
  N   N21       1.0  0.21015  0.77980  0.28327  1.0000
  H   H13       1.0  0.22982  0.80417  0.27508  1.0000
  C   C28       1.0  0.23875  0.96305  0.31176  1.0000
  N   N22       1.0  0.24401  0.51819  0.35160  1.0000
  N   N23       1.0  0.22553  0.98558  0.32182  1.0000
  N   N24       1.0  0.21520  0.92936  0.28303  1.0000
  H   H14       1.0  0.19083  0.92466  0.27484  1.0000
  C   C29       1.0  0.03196  0.77469  0.31223  1.0000
  N   N25       1.0  0.47683  0.72481  0.35216  1.0000
  N   N26       1.0  0.00944  0.73894  0.32235  1.0000
  N   N27       1.0  0.06565  0.78484  0.28339  1.0000
  H   H15       1.0  0.07035  0.76516  0.27522  1.0000
  N   N28       1.0  0.15705  0.85852  0.25966  1.0000
  C   C30       1.0  0.19149  0.86592  0.25901  1.0000
  N   N29       1.0  0.19747  0.83795  0.25960  1.0000
  C   C31       1.0  0.17043  0.80349  0.25908  1.0000
  N   N30       1.0  0.13648  0.79753  0.25975  1.0000
  C   C32       1.0  0.22026  0.90099  0.26904  1.0000
  C   C33       1.0  0.17672  0.77473  0.26923  1.0000
  C   C34       1.0  0.09401  0.81826  0.26936  1.0000
  O   O7        1.0  0.14737  0.74178  0.27100  1.0000
  O   O8        1.0  0.09037  0.84760  0.27090  1.0000
  O   O9        1.0  0.25322  0.90462  0.27054  1.0000
  N   N31       1.0  0.34433  0.64308  0.42299  1.0000
  C   C35       1.0  0.30827  0.62831  0.42347  1.0000
  N   N32       1.0  0.29473  0.65067  0.42295  1.0000
  C   C36       1.0  0.31603  0.68673  0.42366  1.0000
  N   N33       1.0  0.35192  0.70026  0.42317  1.0000
  C   C37       1.0  0.28537  0.59130  0.41384  1.0000
  C   C38       1.0  0.30193  0.70964  0.41417  1.0000
  C   C39       1.0  0.40370  0.69306  0.41428  1.0000
  O   O10       1.0  0.32588  0.74506  0.40800  1.0000
  O   O11       1.0  0.41514  0.66910  0.40780  1.0000
  O   O12       1.0  0.24996  0.57985  0.40744  1.0000
  C   C40       1.0  0.19805  0.72011  0.33691  1.0000
  C   C41       1.0  0.21325  0.70018  0.36907  1.0000
  C   C42       1.0  0.25069  0.71625  0.37720  1.0000
  H   H16       1.0  0.19690  0.67405  0.38652  1.0000
  H   H17       1.0  0.17098  0.70777  0.33366  1.0000
  N   N34       1.0  0.26621  0.69718  0.40475  1.0000
  H   H18       1.0  0.25013  0.67177  0.41519  1.0000
  C   C43       1.0  0.27490  0.97696  0.33659  1.0000
  C   C44       1.0  0.29483  0.51207  0.36875  1.0000
  C   C45       1.0  0.27877  0.53346  0.37678  1.0000
  H   H19       1.0  0.32095  0.52184  0.38632  1.0000
  H   H20       1.0  0.28721  0.96219  0.33357  1.0000
  N   N35       1.0  0.29784  0.56805  0.40439  1.0000
  H   H21       1.0  0.32324  0.57737  0.41494  1.0000
  C   C46       1.0  0.01806  0.79694  0.33709  1.0000
  C   C47       1.0  0.48294  0.78175  0.36924  1.0000
  C   C48       1.0  0.46156  0.74430  0.37732  1.0000
  H   H22       1.0  0.47317  0.79810  0.38675  1.0000
  H   H23       1.0  0.03281  0.82401  0.33392  1.0000
  N   N36       1.0  0.42696  0.72878  0.40490  1.0000
  H   H24       1.0  0.41764  0.74486  0.41541  1.0000
  C   C49       1.0  0.62907  0.32457  0.25915  1.0000
  C   C50       1.0  0.86668  0.17896  0.42372  1.0000
  C   C51       1.0  0.72030  0.25626  0.31212  1.0000
  N   N37       1.0  0.77018  0.25102  0.35210  1.0000
  N   N38       1.0  0.75604  0.26950  0.32229  1.0000
  N   N39       1.0  0.71015  0.27980  0.28327  1.0000
  H   H25       1.0  0.72982  0.30417  0.27508  1.0000
  C   C52       1.0  0.73875  0.46305  0.31176  1.0000
  N   N40       1.0  0.74401  0.01819  0.35160  1.0000
  N   N41       1.0  0.72553  0.48558  0.32182  1.0000
  N   N42       1.0  0.71520  0.42936  0.28303  1.0000
  H   H26       1.0  0.69083  0.42466  0.27484  1.0000
  C   C53       1.0  0.53196  0.27469  0.31223  1.0000
  N   N43       1.0  0.97683  0.22481  0.35216  1.0000
  N   N44       1.0  0.50944  0.23894  0.32235  1.0000
  N   N45       1.0  0.56565  0.28484  0.28339  1.0000
  H   H27       1.0  0.57034  0.26516  0.27522  1.0000
  N   N46       1.0  0.65705  0.35852  0.25966  1.0000
  C   C54       1.0  0.69149  0.36592  0.25901  1.0000
  N   N47       1.0  0.69747  0.33795  0.25960  1.0000
  C   C55       1.0  0.67043  0.30350  0.25908  1.0000
  N   N48       1.0  0.63648  0.29753  0.25975  1.0000
  C   C56       1.0  0.72026  0.40099  0.26904  1.0000
  C   C57       1.0  0.67672  0.27473  0.26923  1.0000
  C   C58       1.0  0.59400  0.31826  0.26936  1.0000
  O   O13       1.0  0.64737  0.24178  0.27100  1.0000
  O   O14       1.0  0.59037  0.34760  0.27090  1.0000
  O   O15       1.0  0.75323  0.40462  0.27054  1.0000
  N   N49       1.0  0.84433  0.14307  0.42299  1.0000
  C   C59       1.0  0.80827  0.12831  0.42347  1.0000
  N   N50       1.0  0.79473  0.15067  0.42295  1.0000
  C   C60       1.0  0.81603  0.18673  0.42366  1.0000
  N   N51       1.0  0.85192  0.20026  0.42317  1.0000
  C   C61       1.0  0.78537  0.09130  0.41384  1.0000
  C   C62       1.0  0.80193  0.20964  0.41417  1.0000
  C   C63       1.0  0.90370  0.19306  0.41428  1.0000
  O   O16       1.0  0.82588  0.24506  0.40800  1.0000
  O   O17       1.0  0.91514  0.16910  0.40780  1.0000
  O   O18       1.0  0.74996  0.07985  0.40744  1.0000
  C   C64       1.0  0.69805  0.22011  0.33691  1.0000
  C   C65       1.0  0.71325  0.20018  0.36907  1.0000
  C   C66       1.0  0.75069  0.21625  0.37720  1.0000
  H   H28       1.0  0.69690  0.17405  0.38652  1.0000
  H   H29       1.0  0.67098  0.20777  0.33366  1.0000
  N   N52       1.0  0.76621  0.19718  0.40475  1.0000
  H   H30       1.0  0.75013  0.17177  0.41519  1.0000
  C   C67       1.0  0.77490  0.47696  0.33659  1.0000
  C   C68       1.0  0.79483  0.01208  0.36875  1.0000
  C   C69       1.0  0.77877  0.03346  0.37678  1.0000
  H   H31       1.0  0.82095  0.02184  0.38632  1.0000
  H   H32       1.0  0.78721  0.46219  0.33357  1.0000
  N   N53       1.0  0.79784  0.06805  0.40439  1.0000
  H   H33       1.0  0.82324  0.07737  0.41494  1.0000
  C   C70       1.0  0.51806  0.29694  0.33709  1.0000
  C   C71       1.0  0.98294  0.28175  0.36924  1.0000
  C   C72       1.0  0.96156  0.24430  0.37732  1.0000
  H   H34       1.0  0.97317  0.29810  0.38675  1.0000
  H   H35       1.0  0.53281  0.32401  0.33392  1.0000
  N   N54       1.0  0.92696  0.22878  0.40490  1.0000
  H   H36       1.0  0.91764  0.24486  0.41541  1.0000
  C   C73       1.0  0.62907  0.82457  0.25915  1.0000
  C   C74       1.0  0.86668  0.67896  0.42372  1.0000
  C   C75       1.0  0.72030  0.75626  0.31212  1.0000
  N   N55       1.0  0.77018  0.75103  0.35210  1.0000
  N   N56       1.0  0.75604  0.76950  0.32229  1.0000
  N   N57       1.0  0.71015  0.77980  0.28327  1.0000
  H   H37       1.0  0.72982  0.80417  0.27508  1.0000
  C   C76       1.0  0.73875  0.96305  0.31176  1.0000
  N   N58       1.0  0.74401  0.51819  0.35160  1.0000
  N   N59       1.0  0.72553  0.98558  0.32182  1.0000
  N   N60       1.0  0.71520  0.92936  0.28303  1.0000
  H   H38       1.0  0.69083  0.92466  0.27484  1.0000
  C   C77       1.0  0.53196  0.77469  0.31223  1.0000
  N   N61       1.0  0.97683  0.72481  0.35216  1.0000
  N   N62       1.0  0.50944  0.73894  0.32235  1.0000
  N   N63       1.0  0.56564  0.78484  0.28339  1.0000
  H   H39       1.0  0.57035  0.76516  0.27522  1.0000
  N   N64       1.0  0.65705  0.85852  0.25966  1.0000
  C   C78       1.0  0.69149  0.86592  0.25901  1.0000
  N   N65       1.0  0.69747  0.83795  0.25960  1.0000
  C   C79       1.0  0.67043  0.80349  0.25908  1.0000
  N   N66       1.0  0.63648  0.79753  0.25975  1.0000
  C   C80       1.0  0.72026  0.90099  0.26904  1.0000
  C   C81       1.0  0.67672  0.77473  0.26923  1.0000
  C   C82       1.0  0.59401  0.81826  0.26936  1.0000
  O   O19       1.0  0.64737  0.74178  0.27100  1.0000
  O   O20       1.0  0.59037  0.84760  0.27090  1.0000
  O   O21       1.0  0.75323  0.90462  0.27054  1.0000
  N   N67       1.0  0.84433  0.64308  0.42299  1.0000
  C   C83       1.0  0.80827  0.62831  0.42347  1.0000
  N   N68       1.0  0.79473  0.65067  0.42295  1.0000
  C   C84       1.0  0.81603  0.68673  0.42366  1.0000
  N   N69       1.0  0.85192  0.70026  0.42317  1.0000
  C   C85       1.0  0.78537  0.59130  0.41384  1.0000
  C   C86       1.0  0.80193  0.70964  0.41417  1.0000
  C   C87       1.0  0.90370  0.69306  0.41428  1.0000
  O   O22       1.0  0.82588  0.74506  0.40800  1.0000
  O   O23       1.0  0.91514  0.66910  0.40780  1.0000
  O   O24       1.0  0.74996  0.57985  0.40744  1.0000
  C   C88       1.0  0.69805  0.72011  0.33691  1.0000
  C   C89       1.0  0.71325  0.70018  0.36907  1.0000
  C   C90       1.0  0.75069  0.71625  0.37720  1.0000
  H   H40       1.0  0.69690  0.67405  0.38652  1.0000
  H   H41       1.0  0.67098  0.70777  0.33366  1.0000
  N   N70       1.0  0.76621  0.69718  0.40475  1.0000
  H   H42       1.0  0.75013  0.67177  0.41519  1.0000
  C   C91       1.0  0.77490  0.97696  0.33659  1.0000
  C   C92       1.0  0.79483  0.51207  0.36875  1.0000
  C   C93       1.0  0.77877  0.53346  0.37678  1.0000
  H   H43       1.0  0.82095  0.52184  0.38632  1.0000
  H   H44       1.0  0.78721  0.96219  0.33357  1.0000
  N   N71       1.0  0.79784  0.56805  0.40439  1.0000
  H   H45       1.0  0.82324  0.57737  0.41494  1.0000
  C   C94       1.0  0.51806  0.79694  0.33709  1.0000
  C   C95       1.0  0.98294  0.78175  0.36924  1.0000
  C   C96       1.0  0.96156  0.74430  0.37732  1.0000
  H   H46       1.0  0.97317  0.79810  0.38675  1.0000
  H   H47       1.0  0.53281  0.82401  0.33392  1.0000
  N   N72       1.0  0.92696  0.72878  0.40490  1.0000
  H   H48       1.0  0.91764  0.74486  0.41541  1.0000
