data_image0
_chemical_formula_structural       C2NOCHC2NOCHC2NOCHC2NOCHC2NOCHC2NOCHC4NOCHC4NOCHC4NOCHC4NOCHC4NOCHC4NOCHC4NOCHC4NOCHC4NOCHC4NOCHC4NOCHC4NOCHNC18H12NC18H12NC18H12NC18H12NC18H12NC18H12NC18H12NC18H12NC18H12NC18H12NC18H12NC18H12C4NOCHC4NOCHC4NOCHC4NOCHC4NOCHC4NOCHC2NOCHC2NOCHC2NOCHC2NOCHC2NOCHC2NOCHC2NOCHC2NOCHC2NOCHC2NOCHC2NOCHC2NOCH
_chemical_formula_sum              "C360 N48 O36 H180"
_cell_length_a       64.4618
_cell_length_b       64.4618
_cell_length_c       14.7386
_cell_angle_alpha    90
_cell_angle_beta     90
_cell_angle_gamma    120

_space_group_name_H-M_alt    "P 1"
_space_group_IT_number       1

loop_
  _space_group_symop_operation_xyz
  'x, y, z'

loop_
  _atom_site_type_symbol
  _atom_site_label
  _atom_site_symmetry_multiplicity
  _atom_site_fract_x
  _atom_site_fract_y
  _atom_site_fract_z
  _atom_site_occupancy
  C   C1        1.0  0.20620  0.37983  0.27466  1.0000
  C   C2        1.0  0.21882  0.40503  0.27532  1.0000
  N   N1        1.0  0.23104  0.41213  0.19781  1.0000
  O   O1        1.0  0.21095  0.37132  0.19737  1.0000
  C   C3        1.0  0.22570  0.39208  0.15229  1.0000
  H   H1        1.0  0.23323  0.39231  0.09107  1.0000
  C   C4        1.0  0.63155  0.80773  0.27398  1.0000
  C   C5        1.0  0.60636  0.79536  0.27429  1.0000
  N   N2        1.0  0.59960  0.78799  0.18935  1.0000
  O   O2        1.0  0.64036  0.80717  0.19051  1.0000
  C   C6        1.0  0.61974  0.79535  0.14140  1.0000
  H   H2        1.0  0.61958  0.79078  0.07501  1.0000
  C   C7        1.0  0.19122  0.80349  0.27621  1.0000
  C   C8        1.0  0.20383  0.79091  0.27637  1.0000
  N   N3        1.0  0.19925  0.77933  0.19749  1.0000
  O   O3        1.0  0.17856  0.79946  0.19768  1.0000
  C   C9        1.0  0.18473  0.78492  0.15193  1.0000
  H   H3        1.0  0.17818  0.77823  0.08901  1.0000
  C   C10       1.0  0.81155  0.62136  0.27821  1.0000
  C   C11       1.0  0.79905  0.59616  0.27887  1.0000
  N   N4        1.0  0.78697  0.58900  0.20107  1.0000
  O   O4        1.0  0.80689  0.62981  0.20053  1.0000
  C   C12       1.0  0.79215  0.60902  0.15564  1.0000
  H   H4        1.0  0.78501  0.60874  0.09350  1.0000
  C   C13       1.0  0.38678  0.19310  0.26997  1.0000
  C   C14       1.0  0.41199  0.20545  0.27036  1.0000
  N   N5        1.0  0.41862  0.21262  0.18515  1.0000
  O   O5        1.0  0.37790  0.19356  0.18655  1.0000
  C   C15       1.0  0.39848  0.20520  0.13719  1.0000
  H   H5        1.0  0.39863  0.20989  0.07100  1.0000
  C   C16       1.0  0.81658  0.18544  0.27229  1.0000
  C   C17       1.0  0.80420  0.19825  0.27256  1.0000
  N   N6        1.0  0.79682  0.19762  0.18762  1.0000
  O   O6        1.0  0.81602  0.17605  0.18885  1.0000
  C   C18       1.0  0.80419  0.18484  0.13971  1.0000
  H   H6        1.0  0.79962  0.18042  0.07333  1.0000
  C   C19       1.0  0.21758  0.18238  0.35156  1.0000
  C   C20       1.0  0.20671  0.18521  0.27237  1.0000
  C   C21       1.0  0.19426  0.19797  0.27233  1.0000
  C   C22       1.0  0.19111  0.20900  0.35074  1.0000
  N   N7        1.0  0.18691  0.19728  0.18731  1.0000
  O   O7        1.0  0.20628  0.17586  0.18899  1.0000
  C   C23       1.0  0.19425  0.18442  0.13978  1.0000
  H   H7        1.0  0.19000  0.18023  0.07307  1.0000
  C   C24       1.0  0.82678  0.02657  0.35171  1.0000
  C   C25       1.0  0.81602  0.01277  0.27216  1.0000
  C   C26       1.0  0.80336  0.98757  0.27235  1.0000
  C   C27       1.0  0.80032  0.97350  0.35055  1.0000
  N   N8        1.0  0.79481  0.98053  0.18884  1.0000
  O   O8        1.0  0.81639  0.02130  0.18713  1.0000
  C   C28       1.0  0.80256  0.00062  0.14026  1.0000
  H   H8        1.0  0.79819  0.00048  0.07364  1.0000
  C   C29       1.0  0.98307  0.79223  0.35178  1.0000
  C   C30       1.0  0.99705  0.79538  0.27264  1.0000
  C   C31       1.0  0.02226  0.80794  0.27353  1.0000
  C   C32       1.0  0.03620  0.81894  0.35204  1.0000
  N   N9        1.0  0.02943  0.80638  0.19032  1.0000
  O   O9        1.0  0.98869  0.78726  0.18740  1.0000
  C   C33       1.0  0.00945  0.79406  0.14120  1.0000
  H   H9        1.0  0.00971  0.78989  0.07459  1.0000
  C   C34       1.0  0.80084  0.81801  0.34756  1.0000
  C   C35       1.0  0.80382  0.80714  0.26822  1.0000
  C   C36       1.0  0.81635  0.79446  0.26857  1.0000
  C   C37       1.0  0.82745  0.79150  0.34675  1.0000
  N   N10       1.0  0.81475  0.78583  0.18517  1.0000
  O   O10       1.0  0.79558  0.80743  0.18327  1.0000
  C   C38       1.0  0.80236  0.79352  0.13658  1.0000
  H   H10       1.0  0.79820  0.78920  0.06987  1.0000
  C   C39       1.0  0.19093  0.97354  0.35483  1.0000
  C   C40       1.0  0.19361  0.98729  0.27584  1.0000
  C   C41       1.0  0.20636  0.01250  0.27590  1.0000
  C   C42       1.0  0.21745  0.02666  0.35429  1.0000
  N   N11       1.0  0.20566  0.01920  0.19095  1.0000
  O   O11       1.0  0.18416  0.97845  0.19245  1.0000
  C   C43       1.0  0.19277  0.99904  0.14330  1.0000
  H   H11       1.0  0.18863  0.99913  0.07653  1.0000
  C   C44       1.0  0.03622  0.20941  0.35357  1.0000
  C   C45       1.0  0.02252  0.19840  0.27445  1.0000
  C   C46       1.0  0.99732  0.18595  0.27431  1.0000
  C   C47       1.0  0.98311  0.18279  0.35263  1.0000
  N   N12       1.0  0.99067  0.17859  0.18927  1.0000
  O   O12       1.0  0.03142  0.19786  0.19112  1.0000
  C   C48       1.0  0.01086  0.18602  0.14164  1.0000
  H   H12       1.0  0.01080  0.18153  0.07522  1.0000
  C   C49       1.0  0.24676  0.59645  0.36499  1.0000
  C   C50       1.0  0.24254  0.60442  0.28049  1.0000
  C   C51       1.0  0.24198  0.62583  0.27195  1.0000
  C   C52       1.0  0.24575  0.64143  0.34564  1.0000
  N   N13       1.0  0.23730  0.62778  0.18534  1.0000
  O   O13       1.0  0.23951  0.59372  0.19789  1.0000
  C   C53       1.0  0.23563  0.60857  0.14348  1.0000
  H   H13       1.0  0.23184  0.60529  0.07604  1.0000
  C   C54       1.0  0.41234  0.64329  0.35022  1.0000
  C   C55       1.0  0.39979  0.63523  0.26679  1.0000
  C   C56       1.0  0.37829  0.61335  0.25885  1.0000
  C   C57       1.0  0.36680  0.59763  0.33310  1.0000
  N   N14       1.0  0.37180  0.61143  0.17199  1.0000
  O   O14       1.0  0.40586  0.64745  0.18662  1.0000
  C   C58       1.0  0.38831  0.63143  0.13085  1.0000
  H   H14       1.0  0.38708  0.63504  0.06427  1.0000
  C   C59       1.0  0.36600  0.76027  0.36188  1.0000
  C   C60       1.0  0.37892  0.76483  0.27893  1.0000
  C   C61       1.0  0.40094  0.76537  0.27304  1.0000
  C   C62       1.0  0.41208  0.76106  0.34786  1.0000
  N   N15       1.0  0.40840  0.77070  0.18747  1.0000
  O   O15       1.0  0.37206  0.76840  0.19554  1.0000
  C   C63       1.0  0.39131  0.77270  0.14358  1.0000
  H   H15       1.0  0.39249  0.77694  0.07638  1.0000
  C   C64       1.0  0.76959  0.40372  0.36333  1.0000
  C   C65       1.0  0.77407  0.39544  0.28004  1.0000
  C   C66       1.0  0.77463  0.37398  0.27355  1.0000
  C   C67       1.0  0.77034  0.35843  0.34803  1.0000
  N   N16       1.0  0.77992  0.37195  0.18782  1.0000
  O   O16       1.0  0.77762  0.40598  0.19686  1.0000
  C   C68       1.0  0.78192  0.39111  0.14442  1.0000
  H   H16       1.0  0.78609  0.39423  0.07718  1.0000
  C   C69       1.0  0.60580  0.35842  0.36851  1.0000
  C   C70       1.0  0.61387  0.37073  0.28423  1.0000
  C   C71       1.0  0.63524  0.39275  0.27621  1.0000
  C   C72       1.0  0.65075  0.40449  0.35016  1.0000
  N   N17       1.0  0.63722  0.39956  0.18980  1.0000
  O   O17       1.0  0.60330  0.36320  0.20133  1.0000
  C   C73       1.0  0.61809  0.38206  0.14744  1.0000
  H   H17       1.0  0.61488  0.38269  0.08001  1.0000
  C   C74       1.0  0.65253  0.24098  0.34756  1.0000
  C   C75       1.0  0.64446  0.24553  0.26428  1.0000
  C   C76       1.0  0.62258  0.24519  0.25659  1.0000
  C   C77       1.0  0.60688  0.24091  0.33091  1.0000
  N   N18       1.0  0.62064  0.24982  0.16983  1.0000
  O   O18       1.0  0.65663  0.25167  0.18403  1.0000
  C   C78       1.0  0.64061  0.25329  0.12850  1.0000
  H   H18       1.0  0.64419  0.25812  0.06192  1.0000
  N   N19       1.0  0.13994  0.26210  0.35032  1.0000
  C   C79       1.0  0.11417  0.24942  0.35271  1.0000
  C   C80       1.0  0.15257  0.28785  0.34922  1.0000
  C   C81       1.0  0.15285  0.24915  0.34975  1.0000
  C   C82       1.0  0.14697  0.23016  0.28826  1.0000
  C   C83       1.0  0.15895  0.21681  0.28991  1.0000
  C   C84       1.0  0.17832  0.22233  0.34994  1.0000
  C   C85       1.0  0.18447  0.24192  0.40940  1.0000
  C   C86       1.0  0.17174  0.25448  0.41109  1.0000
  C   C87       1.0  0.10066  0.25052  0.27923  1.0000
  C   C88       1.0  0.07537  0.23777  0.28030  1.0000
  C   C89       1.0  0.06218  0.22275  0.35389  1.0000
  C   C90       1.0  0.07591  0.22158  0.42708  1.0000
  C   C91       1.0  0.10126  0.23469  0.42680  1.0000
  C   C92       1.0  0.15670  0.30095  0.26796  1.0000
  C   C93       1.0  0.16888  0.32627  0.26802  1.0000
  C   C94       1.0  0.17845  0.33992  0.34858  1.0000
  C   C95       1.0  0.17442  0.32644  0.42952  1.0000
  C   C96       1.0  0.16136  0.30114  0.43021  1.0000
  H   H19       1.0  0.06665  0.23992  0.22635  1.0000
  H   H20       1.0  0.10919  0.26071  0.22370  1.0000
  H   H21       1.0  0.11038  0.23312  0.48070  1.0000
  H   H22       1.0  0.06755  0.21062  0.48118  1.0000
  H   H23       1.0  0.13318  0.22535  0.24348  1.0000
  H   H24       1.0  0.15279  0.20247  0.24719  1.0000
  H   H25       1.0  0.15066  0.29205  0.20777  1.0000
  H   H26       1.0  0.17034  0.33463  0.20754  1.0000
  H   H27       1.0  0.18135  0.33489  0.48982  1.0000
  H   H28       1.0  0.15862  0.29235  0.49065  1.0000
  H   H29       1.0  0.17692  0.26810  0.45665  1.0000
  H   H30       1.0  0.19880  0.24778  0.45204  1.0000
  N   N20       1.0  0.74875  0.86999  0.35051  1.0000
  C   C97       1.0  0.76162  0.85707  0.34986  1.0000
  C   C98       1.0  0.72304  0.85737  0.35215  1.0000
  C   C99       1.0  0.76139  0.89571  0.34952  1.0000
  C   C100      1.0  0.77651  0.90887  0.27669  1.0000
  C   C101      1.0  0.78925  0.93420  0.27720  1.0000
  C   C102      1.0  0.78728  0.94757  0.34990  1.0000
  C   C103      1.0  0.77184  0.93412  0.42221  1.0000
  C   C104      1.0  0.75935  0.90881  0.42243  1.0000
  C   C105      1.0  0.75564  0.83795  0.28897  1.0000
  C   C106      1.0  0.76796  0.82495  0.28995  1.0000
  C   C107      1.0  0.78776  0.83103  0.34833  1.0000
  C   C108      1.0  0.79387  0.85067  0.40762  1.0000
  C   C109      1.0  0.78084  0.86294  0.41005  1.0000
  C   C110      1.0  0.70984  0.85947  0.27975  1.0000
  C   C111      1.0  0.68455  0.84703  0.28060  1.0000
  C   C112      1.0  0.67121  0.83159  0.35307  1.0000
  C   C113      1.0  0.68468  0.82954  0.42523  1.0000
  C   C114      1.0  0.71000  0.84223  0.42510  1.0000
  H   H31       1.0  0.76178  0.81050  0.24777  1.0000
  H   H32       1.0  0.74165  0.83287  0.24497  1.0000
  H   H33       1.0  0.78599  0.87684  0.45455  1.0000
  H   H34       1.0  0.80841  0.85679  0.44934  1.0000
  H   H35       1.0  0.77857  0.89997  0.22313  1.0000
  H   H36       1.0  0.80053  0.94282  0.22412  1.0000
  H   H37       1.0  0.71870  0.87034  0.22593  1.0000
  H   H38       1.0  0.67593  0.84974  0.22765  1.0000
  H   H39       1.0  0.67612  0.81827  0.47841  1.0000
  H   H40       1.0  0.71898  0.84014  0.47829  1.0000
  H   H41       1.0  0.74850  0.89988  0.47620  1.0000
  H   H42       1.0  0.76917  0.94266  0.47555  1.0000
  N   N21       1.0  0.13993  0.86981  0.35345  1.0000
  C   C115      1.0  0.15280  0.89556  0.35404  1.0000
  C   C116      1.0  0.15273  0.85686  0.35292  1.0000
  C   C117      1.0  0.11418  0.85703  0.35300  1.0000
  C   C118      1.0  0.10121  0.85871  0.27880  1.0000
  C   C119      1.0  0.07588  0.84649  0.27870  1.0000
  C   C120      1.0  0.06217  0.83170  0.35212  1.0000
  C   C121      1.0  0.07541  0.83007  0.42601  1.0000
  C   C122      1.0  0.10070  0.84261  0.42693  1.0000
  C   C123      1.0  0.16720  0.90903  0.28005  1.0000
  C   C124      1.0  0.17979  0.93432  0.28103  1.0000
  C   C125      1.0  0.17823  0.94758  0.35499  1.0000
  C   C126      1.0  0.16349  0.93389  0.42855  1.0000
  C   C127      1.0  0.15123  0.90855  0.42841  1.0000
  C   C128      1.0  0.16261  0.85361  0.27226  1.0000
  C   C129      1.0  0.17554  0.84123  0.27215  1.0000
  C   C130      1.0  0.17857  0.83061  0.35185  1.0000
  C   C131      1.0  0.16817  0.83366  0.43211  1.0000
  C   C132      1.0  0.15598  0.84679  0.43302  1.0000
  H   H43       1.0  0.19053  0.94301  0.22674  1.0000
  H   H44       1.0  0.16870  0.90048  0.22430  1.0000
  H   H45       1.0  0.14077  0.89948  0.48287  1.0000
  H   H46       1.0  0.16106  0.94227  0.48298  1.0000
  H   H47       1.0  0.11029  0.86919  0.22438  1.0000
  H   H48       1.0  0.06750  0.84898  0.22434  1.0000
  H   H49       1.0  0.16050  0.86036  0.21248  1.0000
  H   H50       1.0  0.18312  0.84043  0.21232  1.0000
  H   H51       1.0  0.16898  0.82598  0.49162  1.0000
  H   H52       1.0  0.14936  0.84888  0.49315  1.0000
  H   H53       1.0  0.10925  0.84104  0.48255  1.0000
  H   H54       1.0  0.06671  0.81929  0.48019  1.0000
  N   N22       1.0  0.87879  0.73912  0.35046  1.0000
  C   C133      1.0  0.90464  0.75207  0.35140  1.0000
  C   C134      1.0  0.86567  0.71337  0.35152  1.0000
  C   C135      1.0  0.86567  0.75176  0.34803  1.0000
  C   C136      1.0  0.86739  0.76641  0.27377  1.0000
  C   C137      1.0  0.85505  0.77942  0.27333  1.0000
  C   C138      1.0  0.84015  0.77824  0.34653  1.0000
  C   C139      1.0  0.83842  0.76331  0.42030  1.0000
  C   C140      1.0  0.85105  0.75066  0.42152  1.0000
  C   C141      1.0  0.91829  0.74672  0.29054  1.0000
  C   C142      1.0  0.94358  0.75928  0.29265  1.0000
  C   C143      1.0  0.95695  0.77889  0.35212  1.0000
  C   C144      1.0  0.94302  0.78443  0.41164  1.0000
  C   C145      1.0  0.91769  0.77108  0.41287  1.0000
  C   C146      1.0  0.86123  0.70009  0.27055  1.0000
  C   C147      1.0  0.84887  0.67478  0.27116  1.0000
  C   C148      1.0  0.83922  0.66130  0.35197  1.0000
  C   C149      1.0  0.84328  0.67495  0.43252  1.0000
  C   C150      1.0  0.85655  0.70026  0.43269  1.0000
  H   H55       1.0  0.95210  0.75340  0.25036  1.0000
  H   H56       1.0  0.90990  0.73306  0.24506  1.0000
  H   H57       1.0  0.90866  0.77590  0.45738  1.0000
  H   H58       1.0  0.95115  0.79878  0.45435  1.0000
  H   H59       1.0  0.87806  0.76797  0.21983  1.0000
  H   H60       1.0  0.85757  0.79032  0.21908  1.0000
  H   H61       1.0  0.86739  0.70888  0.21018  1.0000
  H   H62       1.0  0.84741  0.66632  0.21093  1.0000
  H   H63       1.0  0.83628  0.66660  0.49292  1.0000
  H   H64       1.0  0.85936  0.70916  0.49287  1.0000
  H   H65       1.0  0.84947  0.74054  0.47718  1.0000
  H   H66       1.0  0.82756  0.76116  0.47427  1.0000
  N   N23       1.0  0.26948  0.13074  0.35163  1.0000
  C   C151      1.0  0.25682  0.14380  0.35265  1.0000
  C   C152      1.0  0.29520  0.14378  0.34992  1.0000
  C   C153      1.0  0.25660  0.10494  0.35231  1.0000
  C   C154      1.0  0.23739  0.09159  0.29206  1.0000
  C   C155      1.0  0.22437  0.06629  0.29443  1.0000
  C   C156      1.0  0.23050  0.05277  0.35365  1.0000
  C   C157      1.0  0.25028  0.06649  0.41212  1.0000
  C   C158      1.0  0.26257  0.09180  0.41320  1.0000
  C   C159      1.0  0.25879  0.15892  0.27975  1.0000
  C   C160      1.0  0.24619  0.17162  0.27988  1.0000
  C   C161      1.0  0.23069  0.16956  0.35212  1.0000
  C   C162      1.0  0.22878  0.15422  0.42477  1.0000
  C   C163      1.0  0.24163  0.14175  0.42539  1.0000
  C   C164      1.0  0.30820  0.14151  0.27720  1.0000
  C   C165      1.0  0.33352  0.15398  0.27718  1.0000
  C   C166      1.0  0.34705  0.16955  0.34912  1.0000
  C   C167      1.0  0.33376  0.17181  0.42140  1.0000
  C   C168      1.0  0.30845  0.15910  0.42219  1.0000
  H   H67       1.0  0.24882  0.18282  0.22655  1.0000
  H   H68       1.0  0.26967  0.16088  0.22601  1.0000
  H   H69       1.0  0.23959  0.13079  0.47890  1.0000
  H   H70       1.0  0.21747  0.15150  0.47782  1.0000
  H   H71       1.0  0.23225  0.10035  0.24755  1.0000
  H   H72       1.0  0.20985  0.05788  0.25266  1.0000
  H   H73       1.0  0.29918  0.13038  0.22419  1.0000
  H   H74       1.0  0.34202  0.15111  0.22421  1.0000
  H   H75       1.0  0.34242  0.18318  0.47422  1.0000
  H   H76       1.0  0.29963  0.16121  0.47590  1.0000
  H   H77       1.0  0.27657  0.10071  0.45718  1.0000
  H   H78       1.0  0.25648  0.05821  0.45420  1.0000
  N   N24       1.0  0.87901  0.13066  0.35199  1.0000
  C   C169      1.0  0.86585  0.10485  0.35321  1.0000
  C   C170      1.0  0.86617  0.14357  0.35185  1.0000
  C   C171      1.0  0.90482  0.14377  0.35093  1.0000
  C   C172      1.0  0.91810  0.13803  0.28984  1.0000
  C   C173      1.0  0.94341  0.15028  0.29199  1.0000
  C   C174      1.0  0.95700  0.16980  0.35177  1.0000
  C   C175      1.0  0.94334  0.17579  0.41079  1.0000
  C   C176      1.0  0.91804  0.16275  0.41226  1.0000
  C   C177      1.0  0.84686  0.09164  0.29192  1.0000
  C   C178      1.0  0.83380  0.06634  0.29347  1.0000
  C   C179      1.0  0.83976  0.05267  0.35256  1.0000
  C   C180      1.0  0.85928  0.06626  0.41232  1.0000
  C   C181      1.0  0.87157  0.09157  0.41436  1.0000
  C   C182      1.0  0.86825  0.15872  0.27894  1.0000
  C   C183      1.0  0.85579  0.17156  0.27922  1.0000
  C   C184      1.0  0.84037  0.16959  0.35159  1.0000
  C   C185      1.0  0.83830  0.15417  0.42414  1.0000
  C   C186      1.0  0.85104  0.14160  0.42466  1.0000
  H   H79       1.0  0.81941  0.05805  0.25101  1.0000
  H   H80       1.0  0.84191  0.10050  0.24710  1.0000
  H   H81       1.0  0.88545  0.10039  0.45887  1.0000
  H   H82       1.0  0.86534  0.05789  0.45454  1.0000
  H   H83       1.0  0.90928  0.12415  0.24529  1.0000
  H   H84       1.0  0.95178  0.14422  0.24978  1.0000
  H   H85       1.0  0.87918  0.16068  0.22537  1.0000
  H   H86       1.0  0.85851  0.18282  0.22600  1.0000
  H   H87       1.0  0.82705  0.15153  0.47726  1.0000
  H   H88       1.0  0.84900  0.13068  0.47831  1.0000
  H   H89       1.0  0.90918  0.16771  0.45703  1.0000
  H   H90       1.0  0.95163  0.19017  0.45328  1.0000
  N   N25       1.0  0.27004  0.52233  0.35048  1.0000
  C   C187      1.0  0.29499  0.53629  0.32805  1.0000
  C   C188      1.0  0.25734  0.49672  0.34973  1.0000
  C   C189      1.0  0.25867  0.53602  0.37187  1.0000
  C   C190      1.0  0.26911  0.55443  0.43752  1.0000
  C   C191      1.0  0.26495  0.57390  0.43583  1.0000
  C   C192      1.0  0.24885  0.57515  0.37323  1.0000
  C   C193      1.0  0.23626  0.55497  0.31544  1.0000
  C   C194      1.0  0.24150  0.53617  0.31290  1.0000
  C   C195      1.0  0.31255  0.53689  0.38692  1.0000
  C   C196      1.0  0.33645  0.55596  0.38369  1.0000
  C   C197      1.0  0.34361  0.57601  0.32561  1.0000
  C   C198      1.0  0.32598  0.57432  0.26344  1.0000
  C   C199      1.0  0.30256  0.55451  0.26181  1.0000
  C   C200      1.0  0.25595  0.48354  0.42823  1.0000
  C   C201      1.0  0.24341  0.45823  0.42760  1.0000
  C   C202      1.0  0.23139  0.44490  0.34895  1.0000
  C   C203      1.0  0.23287  0.45839  0.27060  1.0000
  C   C204      1.0  0.24568  0.48371  0.27073  1.0000
  H   H91       1.0  0.34830  0.55550  0.42843  1.0000
  H   H92       1.0  0.30768  0.52435  0.43708  1.0000
  H   H93       1.0  0.29013  0.55539  0.22136  1.0000
  H   H94       1.0  0.32918  0.58845  0.22294  1.0000
  H   H95       1.0  0.28247  0.55555  0.47836  1.0000
  H   H96       1.0  0.27562  0.58814  0.47632  1.0000
  H   H97       1.0  0.26424  0.49241  0.48656  1.0000
  H   H98       1.0  0.24350  0.44958  0.48562  1.0000
  H   H99       1.0  0.22415  0.44987  0.21237  1.0000
  H   H100      1.0  0.24630  0.49270  0.21271  1.0000
  H   H101      1.0  0.23403  0.52357  0.26288  1.0000
  H   H102      1.0  0.22384  0.55420  0.27052  1.0000
  N   N26       1.0  0.48801  0.74023  0.35144  1.0000
  C   C205      1.0  0.47379  0.75148  0.33966  1.0000
  C   C206      1.0  0.51388  0.75316  0.35180  1.0000
  C   C207      1.0  0.47377  0.71471  0.36216  1.0000
  C   C208      1.0  0.45819  0.70486  0.43735  1.0000
  C   C209      1.0  0.43851  0.68127  0.43485  1.0000
  C   C210      1.0  0.43405  0.66614  0.35866  1.0000
  C   C211      1.0  0.45108  0.67548  0.28740  1.0000
  C   C212      1.0  0.46998  0.69938  0.28781  1.0000
  C   C213      1.0  0.46972  0.76295  0.41357  1.0000
  C   C214      1.0  0.45072  0.76782  0.41287  1.0000
  C   C215      1.0  0.43395  0.76016  0.34070  1.0000
  C   C216      1.0  0.43875  0.74964  0.26488  1.0000
  C   C217      1.0  0.45845  0.74576  0.26372  1.0000
  C   C218      1.0  0.52726  0.77236  0.41226  1.0000
  C   C219      1.0  0.55257  0.78535  0.41117  1.0000
  C   C220      1.0  0.56623  0.77927  0.35266  1.0000
  C   C221      1.0  0.55266  0.75962  0.29369  1.0000
  C   C222      1.0  0.52736  0.74737  0.29178  1.0000
  H   H103      1.0  0.44851  0.77585  0.46894  1.0000
  H   H104      1.0  0.47921  0.76598  0.47227  1.0000
  H   H105      1.0  0.46000  0.73632  0.21095  1.0000
  H   H106      1.0  0.42682  0.74276  0.21244  1.0000
  H   H107      1.0  0.45945  0.71572  0.49017  1.0000
  H   H108      1.0  0.42640  0.67602  0.48673  1.0000
  H   H109      1.0  0.51870  0.77754  0.45717  1.0000
  H   H110      1.0  0.56089  0.79980  0.45341  1.0000
  H   H111      1.0  0.56102  0.75350  0.25169  1.0000
  H   H112      1.0  0.51889  0.73371  0.24652  1.0000
  H   H113      1.0  0.47963  0.70603  0.22955  1.0000
  H   H114      1.0  0.44909  0.66541  0.23102  1.0000
  N   N27       1.0  0.26846  0.73810  0.34722  1.0000
  C   C223      1.0  0.25624  0.71275  0.33218  1.0000
  C   C224      1.0  0.25615  0.75141  0.34895  1.0000
  C   C225      1.0  0.29362  0.74870  0.36535  1.0000
  C   C226      1.0  0.30162  0.73877  0.43290  1.0000
  C   C227      1.0  0.32511  0.74260  0.43135  1.0000
  C   C228      1.0  0.34253  0.75819  0.36784  1.0000
  C   C229      1.0  0.33491  0.77030  0.30760  1.0000
  C   C230      1.0  0.31089  0.76512  0.30425  1.0000
  C   C231      1.0  0.24223  0.69681  0.40179  1.0000
  C   C232      1.0  0.23739  0.67292  0.40290  1.0000
  C   C233      1.0  0.24679  0.66414  0.33572  1.0000
  C   C234      1.0  0.25928  0.67972  0.26256  1.0000
  C   C235      1.0  0.26365  0.70344  0.26017  1.0000
  C   C236      1.0  0.24406  0.75238  0.42734  1.0000
  C   C237      1.0  0.23149  0.76513  0.42769  1.0000
  C   C238      1.0  0.23065  0.77777  0.35017  1.0000
  C   C239      1.0  0.24307  0.77683  0.27212  1.0000
  C   C240      1.0  0.25537  0.76382  0.27127  1.0000
  H   H115      1.0  0.22815  0.66242  0.45704  1.0000
  H   H116      1.0  0.23749  0.70309  0.45698  1.0000
  H   H117      1.0  0.27485  0.71477  0.21127  1.0000
  H   H118      1.0  0.26729  0.67473  0.21410  1.0000
  H   H119      1.0  0.28953  0.72604  0.47603  1.0000
  H   H120      1.0  0.32853  0.73213  0.47356  1.0000
  H   H121      1.0  0.24427  0.74367  0.48496  1.0000
  H   H122      1.0  0.22247  0.76464  0.48542  1.0000
  H   H123      1.0  0.24360  0.78599  0.21470  1.0000
  H   H124      1.0  0.26384  0.76344  0.21316  1.0000
  H   H125      1.0  0.30580  0.77243  0.25351  1.0000
  H   H126      1.0  0.34655  0.78244  0.26195  1.0000
  N   N28       1.0  0.74720  0.47893  0.35108  1.0000
  C   C241      1.0  0.72184  0.46570  0.33630  1.0000
  C   C242      1.0  0.76040  0.50454  0.35222  1.0000
  C   C243      1.0  0.75794  0.46448  0.36857  1.0000
  C   C244      1.0  0.74809  0.44647  0.43589  1.0000
  C   C245      1.0  0.75199  0.42687  0.43398  1.0000
  C   C246      1.0  0.76751  0.42510  0.36993  1.0000
  C   C247      1.0  0.77951  0.44486  0.30976  1.0000
  C   C248      1.0  0.77430  0.46369  0.30702  1.0000
  C   C249      1.0  0.70595  0.46357  0.40640  1.0000
  C   C250      1.0  0.68215  0.44434  0.40791  1.0000
  C   C251      1.0  0.67341  0.42624  0.34045  1.0000
  C   C252      1.0  0.68895  0.42952  0.26690  1.0000
  C   C253      1.0  0.71258  0.44903  0.26418  1.0000
  C   C254      1.0  0.76165  0.51766  0.43077  1.0000
  C   C255      1.0  0.77434  0.54297  0.43068  1.0000
  C   C256      1.0  0.78661  0.55636  0.35249  1.0000
  C   C257      1.0  0.78537  0.54295  0.27422  1.0000
  C   C258      1.0  0.77244  0.51764  0.27386  1.0000
  H   H127      1.0  0.67166  0.44296  0.46224  1.0000
  H   H128      1.0  0.71224  0.47459  0.46164  1.0000
  H   H129      1.0  0.72390  0.44930  0.21495  1.0000
  H   H130      1.0  0.68402  0.41658  0.21825  1.0000
  H   H131      1.0  0.73548  0.44585  0.47968  1.0000
  H   H132      1.0  0.74160  0.41297  0.47623  1.0000
  H   H133      1.0  0.75318  0.50878  0.48879  1.0000
  H   H134      1.0  0.77410  0.55158  0.48861  1.0000
  H   H135      1.0  0.79424  0.55153  0.21630  1.0000
  H   H136      1.0  0.77185  0.50873  0.21564  1.0000
  H   H137      1.0  0.78151  0.47610  0.25626  1.0000
  H   H138      1.0  0.79161  0.44542  0.26376  1.0000
  N   N29       1.0  0.53056  0.26123  0.35028  1.0000
  C   C259      1.0  0.54481  0.25042  0.32802  1.0000
  C   C260      1.0  0.50474  0.24819  0.34976  1.0000
  C   C261      1.0  0.54456  0.28635  0.37234  1.0000
  C   C262      1.0  0.56266  0.29400  0.43930  1.0000
  C   C263      1.0  0.58242  0.31752  0.43891  1.0000
  C   C264      1.0  0.58430  0.33515  0.37636  1.0000
  C   C265      1.0  0.56440  0.32800  0.31768  1.0000
  C   C266      1.0  0.54548  0.30409  0.31348  1.0000
  C   C267      1.0  0.54611  0.23382  0.38696  1.0000
  C   C268      1.0  0.56531  0.22924  0.38259  1.0000
  C   C269      1.0  0.58511  0.24222  0.32364  1.0000
  C   C270      1.0  0.58284  0.25777  0.26117  1.0000
  C   C271      1.0  0.56281  0.26107  0.26084  1.0000
  C   C272      1.0  0.49135  0.23045  0.41523  1.0000
  C   C273      1.0  0.46604  0.21723  0.41316  1.0000
  C   C274      1.0  0.45231  0.22187  0.34929  1.0000
  C   C275      1.0  0.46606  0.24022  0.28538  1.0000
  C   C276      1.0  0.49136  0.25240  0.28378  1.0000
  H   H139      1.0  0.56512  0.21705  0.42730  1.0000
  H   H140      1.0  0.53412  0.22621  0.43863  1.0000
  H   H141      1.0  0.56321  0.27403  0.21950  1.0000
  H   H142      1.0  0.59669  0.26863  0.21942  1.0000
  H   H143      1.0  0.56333  0.28160  0.48067  1.0000
  H   H144      1.0  0.59637  0.32086  0.48074  1.0000
  H   H145      1.0  0.49994  0.22683  0.46557  1.0000
  H   H146      1.0  0.45785  0.20372  0.45930  1.0000
  H   H147      1.0  0.45788  0.24545  0.23885  1.0000
  H   H148      1.0  0.49996  0.26459  0.23337  1.0000
  H   H149      1.0  0.53347  0.29954  0.26181  1.0000
  H   H150      1.0  0.56397  0.33986  0.27285  1.0000
  N   N30       1.0  0.74926  0.26164  0.34957  1.0000
  C   C277      1.0  0.76061  0.28713  0.33805  1.0000
  C   C278      1.0  0.76211  0.24862  0.35005  1.0000
  C   C279      1.0  0.72375  0.25048  0.36007  1.0000
  C   C280      1.0  0.71393  0.25625  0.43520  1.0000
  C   C281      1.0  0.69042  0.25251  0.43242  1.0000
  C   C282      1.0  0.67533  0.24200  0.35598  1.0000
  C   C283      1.0  0.68465  0.23431  0.28462  1.0000
  C   C284      1.0  0.70849  0.23910  0.28538  1.0000
  C   C285      1.0  0.77206  0.30253  0.41234  1.0000
  C   C286      1.0  0.77703  0.32643  0.41210  1.0000
  C   C287      1.0  0.76939  0.33566  0.34025  1.0000
  C   C288      1.0  0.75888  0.32045  0.26413  1.0000
  C   C289      1.0  0.75503  0.29689  0.26223  1.0000
  C   C290      1.0  0.78130  0.25440  0.41050  1.0000
  C   C291      1.0  0.79424  0.24205  0.40941  1.0000
  C   C292      1.0  0.78812  0.22230  0.35091  1.0000
  C   C293      1.0  0.76847  0.21625  0.29195  1.0000
  C   C294      1.0  0.75627  0.22933  0.29005  1.0000
  H   H151      1.0  0.78501  0.33656  0.46846  1.0000
  H   H152      1.0  0.77494  0.29593  0.47099  1.0000
  H   H153      1.0  0.74558  0.28597  0.20933  1.0000
  H   H154      1.0  0.75209  0.32562  0.21176  1.0000
  H   H155      1.0  0.72475  0.26565  0.48842  1.0000
  H   H156      1.0  0.68517  0.25932  0.48448  1.0000
  H   H157      1.0  0.78652  0.26815  0.45539  1.0000
  H   H158      1.0  0.80871  0.24817  0.45155  1.0000
  H   H159      1.0  0.76233  0.20175  0.24996  1.0000
  H   H160      1.0  0.74259  0.22415  0.24487  1.0000
  H   H161      1.0  0.71517  0.23615  0.22706  1.0000
  H   H162      1.0  0.67463  0.22639  0.22799  1.0000
  C   C295      1.0  0.21829  0.41898  0.34880  1.0000
  C   C296      1.0  0.20378  0.40524  0.42263  1.0000
  C   C297      1.0  0.19098  0.38004  0.42171  1.0000
  C   C298      1.0  0.19155  0.36598  0.34837  1.0000
  N   N31       1.0  0.17865  0.37326  0.49910  1.0000
  O   O19       1.0  0.19941  0.41406  0.49986  1.0000
  C   C299      1.0  0.18420  0.39339  0.54443  1.0000
  H   H163      1.0  0.17677  0.39329  0.60573  1.0000
  C   C300      1.0  0.59229  0.79226  0.35299  1.0000
  C   C301      1.0  0.60618  0.80305  0.43227  1.0000
  C   C302      1.0  0.63138  0.81566  0.43157  1.0000
  C   C303      1.0  0.64530  0.81861  0.35303  1.0000
  N   N32       1.0  0.63853  0.82423  0.51498  1.0000
  O   O20       1.0  0.59774  0.80272  0.51743  1.0000
  C   C304      1.0  0.61850  0.81656  0.56390  1.0000
  H   H164      1.0  0.61874  0.82090  0.63061  1.0000
  C   C305      1.0  0.21782  0.79086  0.35065  1.0000
  C   C306      1.0  0.21801  0.80470  0.42589  1.0000
  C   C307      1.0  0.20557  0.81746  0.42550  1.0000
  C   C308      1.0  0.19147  0.81749  0.35131  1.0000
  N   N33       1.0  0.21045  0.82907  0.50440  1.0000
  O   O21       1.0  0.23061  0.80841  0.50434  1.0000
  C   C309      1.0  0.22480  0.82323  0.54991  1.0000
  H   H165      1.0  0.23146  0.82994  0.61271  1.0000
  C   C310      1.0  0.79960  0.58227  0.35249  1.0000
  C   C311      1.0  0.81395  0.59604  0.42656  1.0000
  C   C312      1.0  0.82664  0.62124  0.42566  1.0000
  C   C313      1.0  0.82609  0.63525  0.35209  1.0000
  N   N34       1.0  0.83882  0.62808  0.50336  1.0000
  O   O22       1.0  0.81823  0.58726  0.50410  1.0000
  C   C314      1.0  0.83329  0.60796  0.54880  1.0000
  H   H166      1.0  0.84061  0.60810  0.61041  1.0000
  C   C315      1.0  0.42613  0.20881  0.34930  1.0000
  C   C316      1.0  0.41210  0.19819  0.42864  1.0000
  C   C317      1.0  0.38689  0.18553  0.42769  1.0000
  C   C318      1.0  0.37298  0.18240  0.34900  1.0000
  N   N35       1.0  0.37962  0.17694  0.51098  1.0000
  O   O23       1.0  0.42033  0.19866  0.51432  1.0000
  C   C319      1.0  0.39956  0.18473  0.56044  1.0000
  H   H167      1.0  0.39926  0.18025  0.62700  1.0000
  C   C320      1.0  0.80109  0.20921  0.35125  1.0000
  C   C321      1.0  0.81187  0.20612  0.43056  1.0000
  C   C322      1.0  0.82450  0.19356  0.42990  1.0000
  C   C323      1.0  0.82744  0.18257  0.35138  1.0000
  N   N36       1.0  0.83306  0.19499  0.51332  1.0000
  O   O24       1.0  0.81152  0.21422  0.51572  1.0000
  C   C324      1.0  0.82538  0.20734  0.56222  1.0000
  H   H168      1.0  0.82970  0.21144  0.62895  1.0000
  C   C325      1.0  0.20181  0.20585  0.43026  1.0000
  C   C326      1.0  0.21448  0.19331  0.42990  1.0000
  N   N37       1.0  0.22306  0.19481  0.51334  1.0000
  O   O25       1.0  0.20141  0.21391  0.51544  1.0000
  C   C327      1.0  0.21531  0.20712  0.56209  1.0000
  H   H169      1.0  0.21965  0.21129  0.62877  1.0000
  C   C328      1.0  0.81119  0.98716  0.42982  1.0000
  C   C329      1.0  0.82363  0.01236  0.43003  1.0000
  N   N38       1.0  0.83097  0.01897  0.51509  1.0000
  O   O26       1.0  0.81163  0.97820  0.51312  1.0000
  C   C330      1.0  0.82370  0.99876  0.56241  1.0000
  H   H170      1.0  0.82780  0.99878  0.62929  1.0000
  C   C331      1.0  0.02234  0.81610  0.43085  1.0000
  C   C332      1.0  0.99713  0.80327  0.43041  1.0000
  N   N39       1.0  0.99032  0.80386  0.51526  1.0000
  O   O27       1.0  0.03107  0.82549  0.51440  1.0000
  C   C333      1.0  0.01042  0.81665  0.56337  1.0000
  H   H171      1.0  0.01023  0.82100  0.62981  1.0000
  C   C334      1.0  0.82473  0.80252  0.42583  1.0000
  C   C335      1.0  0.81194  0.81492  0.42589  1.0000
  N   N40       1.0  0.81262  0.82229  0.51090  1.0000
  O   O28       1.0  0.83420  0.80313  0.50917  1.0000
  C   C336      1.0  0.82544  0.81493  0.55858  1.0000
  H   H172      1.0  0.82983  0.81941  0.62504  1.0000
  C   C337      1.0  0.21450  0.01280  0.43354  1.0000
  C   C338      1.0  0.20200  0.98759  0.43308  1.0000
  N   N41       1.0  0.20366  0.98055  0.51640  1.0000
  O   O29       1.0  0.22273  0.02132  0.51851  1.0000
  C   C339      1.0  0.21602  0.00062  0.56509  1.0000
  H   H173      1.0  0.22020  0.00045  0.63176  1.0000
  C   C340      1.0  0.99694  0.19360  0.43208  1.0000
  C   C341      1.0  0.02215  0.20636  0.43178  1.0000
  N   N42       1.0  0.02916  0.21497  0.51522  1.0000
  O   O30       1.0  0.98840  0.19323  0.51710  1.0000
  C   C342      1.0  0.00908  0.20719  0.56382  1.0000
  H   H174      1.0  0.00921  0.21148  0.63054  1.0000
  C   C343      1.0  0.25008  0.63366  0.42990  1.0000
  C   C344      1.0  0.25038  0.61213  0.43881  1.0000
  N   N43       1.0  0.25510  0.61064  0.52587  1.0000
  O   O31       1.0  0.25578  0.64606  0.50956  1.0000
  C   C345      1.0  0.25770  0.63041  0.56629  1.0000
  H   H175      1.0  0.26311  0.63457  0.63211  1.0000
  C   C346      1.0  0.37930  0.60589  0.41686  1.0000
  C   C347      1.0  0.40108  0.62757  0.42428  1.0000
  N   N44       1.0  0.40817  0.62956  0.51031  1.0000
  O   O32       1.0  0.37221  0.59513  0.49962  1.0000
  C   C348      1.0  0.39110  0.61018  0.55293  1.0000
  H   H176      1.0  0.39201  0.60701  0.62022  1.0000
  C   C349      1.0  0.39922  0.75638  0.43057  1.0000
  C   C350      1.0  0.37749  0.75639  0.43708  1.0000
  N   N45       1.0  0.37079  0.75175  0.52373  1.0000
  O   O33       1.0  0.40518  0.75036  0.51125  1.0000
  C   C351      1.0  0.38736  0.74857  0.56604  1.0000
  H   H177      1.0  0.38594  0.74367  0.63258  1.0000
  C   C352      1.0  0.76569  0.36652  0.43106  1.0000
  C   C353      1.0  0.76572  0.38825  0.43819  1.0000
  N   N46       1.0  0.76117  0.39023  0.52503  1.0000
  O   O34       1.0  0.75969  0.35444  0.51152  1.0000
  C   C354      1.0  0.75799  0.37043  0.56684  1.0000
  H   H178      1.0  0.75315  0.36688  0.63341  1.0000
  C   C355      1.0  0.64295  0.39222  0.43412  1.0000
  C   C356      1.0  0.62143  0.37035  0.44256  1.0000
  N   N47       1.0  0.61988  0.36401  0.52945  1.0000
  O   O35       1.0  0.65527  0.39884  0.51396  1.0000
  C   C357      1.0  0.63961  0.38114  0.57024  1.0000
  H   H179      1.0  0.64370  0.37982  0.63609  1.0000
  C   C358      1.0  0.61522  0.23670  0.41460  1.0000
  C   C359      1.0  0.63686  0.23652  0.42174  1.0000
  N   N48       1.0  0.63887  0.23132  0.50764  1.0000
  O   O36       1.0  0.60455  0.23305  0.49757  1.0000
  C   C360      1.0  0.61954  0.22905  0.55054  1.0000
  H   H180      1.0  0.61641  0.22496  0.61785  1.0000
