data_image0
_chemical_formula_structural       C3NC3NC5NC5NC20H18CHCHCHCHC3NC2NHCH2NHC3NC2NHCH2NHC8H12C3H2CH3NHC3H2CH3NH
_chemical_formula_sum              "C68 N12 H54"
_cell_length_a       25.3186
_cell_length_b       25.3203
_cell_length_c       15.0071
_cell_angle_alpha    90
_cell_angle_beta     90
_cell_angle_gamma    89.9624

_space_group_name_H-M_alt    "P 1"
_space_group_IT_number       1

loop_
  _space_group_symop_operation_xyz
  'x, y, z'

loop_
  _atom_site_type_symbol
  _atom_site_label
  _atom_site_symmetry_multiplicity
  _atom_site_fract_x
  _atom_site_fract_y
  _atom_site_fract_z
  _atom_site_occupancy
  C   C1        1.0  0.08364  0.85324  0.30694  1.0000
  C   C2        1.0  0.12630  0.88714  0.30683  1.0000
  C   C3        1.0  0.10732  0.93875  0.31518  1.0000
  N   N1        1.0  0.05409  0.93419  0.32067  1.0000
  C   C4        1.0  0.03763  0.88338  0.31526  1.0000
  C   C5        1.0  0.98545  0.86260  0.31710  1.0000
  C   C6        1.0  0.93873  0.89314  0.32584  1.0000
  N   N2        1.0  0.93476  0.94618  0.33260  1.0000
  C   C7        1.0  0.88400  0.96207  0.33985  1.0000
  C   C8        1.0  0.85340  0.91619  0.33781  1.0000
  C   C9        1.0  0.88714  0.87370  0.32873  1.0000
  C   C10       1.0  0.86481  0.01452  0.34777  1.0000
  C   C11       1.0  0.89682  0.06066  0.34888  1.0000
  N   N3        1.0  0.95009  0.06516  0.34446  1.0000
  C   C12       1.0  0.96652  0.11603  0.34889  1.0000
  C   C13       1.0  0.92045  0.14623  0.35538  1.0000
  C   C14       1.0  0.87779  0.11234  0.35537  1.0000
  C   C15       1.0  0.01871  0.13678  0.34784  1.0000
  C   C16       1.0  0.06546  0.10622  0.33979  1.0000
  N   N4        1.0  0.06942  0.05320  0.33254  1.0000
  C   C17       1.0  0.12018  0.03731  0.32561  1.0000
  C   C18       1.0  0.15080  0.08315  0.32840  1.0000
  C   C19       1.0  0.11707  0.12563  0.33759  1.0000
  C   C20       1.0  0.13933  0.98488  0.31687  1.0000
  C   C21       1.0  0.19478  0.97832  0.30646  1.0000
  C   C22       1.0  0.21726  0.97750  0.22036  1.0000
  C   C23       1.0  0.27211  0.97163  0.20957  1.0000
  C   C24       1.0  0.30562  0.96663  0.28448  1.0000
  C   C25       1.0  0.02474  0.19236  0.35715  1.0000
  C   C26       1.0  0.02704  0.22529  0.28133  1.0000
  C   C27       1.0  0.03216  0.28030  0.29122  1.0000
  C   C28       1.0  0.03479  0.30352  0.37685  1.0000
  C   C29       1.0  0.80929  0.02116  0.35708  1.0000
  C   C30       1.0  0.69825  0.03263  0.37668  1.0000
  C   C31       1.0  0.72157  0.03080  0.29107  1.0000
  C   C32       1.0  0.77652  0.02504  0.28123  1.0000
  C   C33       1.0  0.97934  0.80708  0.30692  1.0000
  C   C34       1.0  0.97680  0.78464  0.22089  1.0000
  C   C35       1.0  0.97121  0.72976  0.21031  1.0000
  C   C36       1.0  0.96804  0.69616  0.28539  1.0000
  H   H1        1.0  0.96979  0.71449  0.14724  1.0000
  H   H2        1.0  0.97921  0.80807  0.16543  1.0000
  H   H3        1.0  0.08647  0.81310  0.30143  1.0000
  H   H4        1.0  0.16477  0.87533  0.30122  1.0000
  H   H5        1.0  0.03061  0.96375  0.32669  1.0000
  H   H6        1.0  0.97363  0.03552  0.34071  1.0000
  H   H7        1.0  0.87538  0.83515  0.32530  1.0000
  H   H8        1.0  0.81320  0.91345  0.34161  1.0000
  H   H9        1.0  0.79240  0.02344  0.21854  1.0000
  H   H10       1.0  0.69854  0.03326  0.23518  1.0000
  H   H11       1.0  0.83928  0.12420  0.35982  1.0000
  H   H12       1.0  0.91759  0.18641  0.35991  1.0000
  H   H13       1.0  0.19102  0.08587  0.32487  1.0000
  H   H14       1.0  0.12883  0.16418  0.34126  1.0000
  H   H15       1.0  0.02478  0.20950  0.21865  1.0000
  H   H16       1.0  0.03357  0.30344  0.23535  1.0000
  H   H17       1.0  0.28744  0.97159  0.14649  1.0000
  H   H18       1.0  0.19391  0.98142  0.16506  1.0000
  C   C37       1.0  0.03927  0.36177  0.38606  1.0000
  H   H19       1.0  0.07522  0.37427  0.35152  1.0000
  C   C38       1.0  0.36374  0.96155  0.27400  1.0000
  H   H20       1.0  0.37453  0.95727  0.20379  1.0000
  C   C39       1.0  0.96273  0.63804  0.27512  1.0000
  H   H21       1.0  0.95771  0.62722  0.20506  1.0000
  C   C40       1.0  0.64003  0.03754  0.38582  1.0000
  H   H22       1.0  0.62777  0.07385  0.35207  1.0000
  C   C41       1.0  0.00411  0.46597  0.25269  1.0000
  C   C42       1.0  0.00863  0.52143  0.24243  1.0000
  C   C43       1.0  0.00544  0.55504  0.31761  1.0000
  N   N5        1.0  0.01650  0.54059  0.15899  1.0000
  C   C44       1.0  0.02023  0.51006  0.08468  1.0000
  C   C45       1.0  0.01568  0.45449  0.09500  1.0000
  N   N6        1.0  0.00787  0.43538  0.17863  1.0000
  H   H23       1.0  0.03040  0.57970  0.00642  1.0000
  C   C46       1.0  0.01897  0.41498  0.02262  1.0000
  H   H24       1.0  0.98191  0.39313  0.01886  1.0000
  H   H25       1.0  0.05093  0.38728  0.03680  1.0000
  N   N7        1.0  0.00960  0.61066  0.31266  1.0000
  H   H26       1.0  0.04330  0.62074  0.27847  1.0000
  C   C47       1.0  0.53544  0.00362  0.25199  1.0000
  C   C48       1.0  0.47995  0.00808  0.24214  1.0000
  C   C49       1.0  0.44650  0.00427  0.31744  1.0000
  N   N8        1.0  0.46058  0.01638  0.15896  1.0000
  C   C50       1.0  0.49092  0.02059  0.08451  1.0000
  C   C51       1.0  0.54653  0.01606  0.09440  1.0000
  N   N9        1.0  0.56586  0.00784  0.17779  1.0000
  H   H27       1.0  0.42106  0.03104  0.00687  1.0000
  C   C52       1.0  0.58585  0.01976  0.02177  1.0000
  H   H28       1.0  0.60783  0.98276  0.01742  1.0000
  H   H29       1.0  0.61346  0.05172  0.03612  1.0000
  N   N10       1.0  0.39085  0.00817  0.31285  1.0000
  H   H30       1.0  0.38054  0.04215  0.27963  1.0000
  C   C53       1.0  0.28284  0.96730  0.37053  1.0000
  C   C54       1.0  0.22796  0.97304  0.38155  1.0000
  C   C55       1.0  0.03275  0.27027  0.45247  1.0000
  C   C56       1.0  0.02780  0.21525  0.44280  1.0000
  C   C57       1.0  0.78630  0.02340  0.44273  1.0000
  C   C58       1.0  0.73134  0.02910  0.45235  1.0000
  C   C59       1.0  0.97606  0.77379  0.38220  1.0000
  C   C60       1.0  0.97040  0.71889  0.37139  1.0000
  H   H31       1.0  0.96821  0.69549  0.42686  1.0000
  H   H32       1.0  0.97788  0.78926  0.44515  1.0000
  H   H33       1.0  0.80935  0.02054  0.49858  1.0000
  H   H34       1.0  0.71564  0.03018  0.51514  1.0000
  H   H35       1.0  0.02608  0.19208  0.49863  1.0000
  H   H36       1.0  0.03451  0.28589  0.51527  1.0000
  H   H37       1.0  0.21244  0.97363  0.44454  1.0000
  H   H38       1.0  0.30620  0.96384  0.42588  1.0000
  H   H39       1.0  0.04319  0.37339  0.45600  1.0000
  H   H40       1.0  0.37639  0.92557  0.30833  1.0000
  H   H41       1.0  0.92706  0.62560  0.31052  1.0000
  H   H42       1.0  0.62836  0.04098  0.45582  1.0000
  C   C61       1.0  0.99682  0.44364  0.33795  1.0000
  C   C62       1.0  0.99848  0.53242  0.40260  1.0000
  C   C63       1.0  0.99399  0.47740  0.41274  1.0000
  H   H43       1.0  0.98823  0.46194  0.47488  1.0000
  H   H44       1.0  0.99606  0.55616  0.45757  1.0000
  C   C64       1.0  0.02804  0.53690  0.66497  1.0000
  H   H45       1.0  0.99486  0.52813  0.62110  1.0000
  H   H46       1.0  0.06462  0.52335  0.63402  1.0000
  H   H47       1.0  0.02649  0.43264  0.62438  1.0000
  N   N11       1.0  0.99252  0.38818  0.34624  1.0000
  H   H48       1.0  0.95878  0.37892  0.38097  1.0000
  C   C65       1.0  0.55796  0.99583  0.33700  1.0000
  C   C66       1.0  0.46931  0.99685  0.40218  1.0000
  C   C67       1.0  0.52437  0.99245  0.41195  1.0000
  H   H49       1.0  0.53996  0.98627  0.47388  1.0000
  H   H50       1.0  0.44568  0.99394  0.45722  1.0000
  C   C68       1.0  0.46386  0.02882  0.66511  1.0000
  H   H51       1.0  0.47265  0.99591  0.62065  1.0000
  H   H52       1.0  0.47721  0.06560  0.63465  1.0000
  H   H53       1.0  0.56800  0.02749  0.62373  1.0000
  N   N12       1.0  0.61343  0.99130  0.34484  1.0000
  H   H54       1.0  0.62267  0.95720  0.37861  1.0000
