data_image0
_chemical_formula_structural       C2NC2O2CH3C2NC2O2CH3C2NC2O2CH3NCH2NCH2NCH2NCH2NCH2NCH2C24H15C24H15C24H15C24H15C24H15C24H15NCHNCHNCHC2NC2O2CH2C2NC2O2CH2C2NC2O2CH2C2NC2O2CH2C2NC2O2CH2C2NC2O2CH2
_chemical_formula_sum              "C198 N18 O18 H126"
_cell_length_a       61.4033
_cell_length_b       61.4032
_cell_length_c       14.9987
_cell_angle_alpha    90
_cell_angle_beta     90
_cell_angle_gamma    120

_space_group_name_H-M_alt    "P 1"
_space_group_IT_number       1

loop_
  _space_group_symop_operation_xyz
  'x, y, z'

loop_
  _atom_site_type_symbol
  _atom_site_label
  _atom_site_symmetry_multiplicity
  _atom_site_fract_x
  _atom_site_fract_y
  _atom_site_fract_z
  _atom_site_occupancy
  C   C1        1.0  0.02635  0.51667  0.33563  1.0000
  C   C2        1.0  0.97359  0.48784  0.34544  1.0000
  N   N1        1.0  0.98595  0.49685  0.26691  1.0000
  C   C3        1.0  0.01134  0.51096  0.25758  1.0000
  C   C4        1.0  0.02094  0.51718  0.17250  1.0000
  O   O1        1.0  0.01239  0.52737  0.12526  1.0000
  O   O2        1.0  0.02355  0.49939  0.13058  1.0000
  C   C5        1.0  0.04826  0.50867  0.09370  1.0000
  H   H1        1.0  0.04861  0.49308  0.06025  1.0000
  H   H2        1.0  0.06266  0.51570  0.14573  1.0000
  H   H3        1.0  0.05280  0.52346  0.04440  1.0000
  C   C6        1.0  0.48340  0.50970  0.33551  1.0000
  C   C7        1.0  0.51220  0.48575  0.34546  1.0000
  N   N2        1.0  0.50319  0.48908  0.26692  1.0000
  C   C8        1.0  0.48907  0.50035  0.25751  1.0000
  C   C9        1.0  0.48284  0.50375  0.17229  1.0000
  O   O3        1.0  0.47255  0.48482  0.12610  1.0000
  O   O4        1.0  0.50078  0.52425  0.13153  1.0000
  C   C10       1.0  0.49147  0.53933  0.09175  1.0000
  H   H4        1.0  0.50722  0.55544  0.05969  1.0000
  H   H5        1.0  0.48365  0.54643  0.14186  1.0000
  H   H6        1.0  0.47728  0.52888  0.04078  1.0000
  C   C11       1.0  0.49055  0.97377  0.33573  1.0000
  C   C12       1.0  0.51441  0.02653  0.34549  1.0000
  N   N3        1.0  0.51108  0.01416  0.26698  1.0000
  C   C13       1.0  0.49985  0.98878  0.25768  1.0000
  C   C14       1.0  0.49648  0.97915  0.17259  1.0000
  O   O5        1.0  0.51564  0.98741  0.12770  1.0000
  O   O6        1.0  0.47645  0.97678  0.12905  1.0000
  C   C15       1.0  0.46105  0.95211  0.09179  1.0000
  H   H7        1.0  0.44535  0.95191  0.05710  1.0000
  H   H8        1.0  0.45335  0.93769  0.14369  1.0000
  H   H9        1.0  0.47146  0.94750  0.04343  1.0000
  N   N4        1.0  0.24673  0.52529  0.26145  1.0000
  C   C16       1.0  0.26721  0.52247  0.25634  1.0000
  H   H10       1.0  0.27099  0.51664  0.19754  1.0000
  H   H11       1.0  0.24364  0.52926  0.02278  1.0000
  N   N5        1.0  0.47483  0.72150  0.26040  1.0000
  C   C17       1.0  0.47770  0.74483  0.25527  1.0000
  H   H12       1.0  0.48341  0.75438  0.19634  1.0000
  H   H13       1.0  0.47100  0.71452  0.02206  1.0000
  N   N6        1.0  0.27867  0.75336  0.26055  1.0000
  C   C18       1.0  0.25537  0.73288  0.25531  1.0000
  H   H14       1.0  0.24580  0.72909  0.19642  1.0000
  H   H15       1.0  0.28475  0.75616  0.02204  1.0000
  N   N7        1.0  0.75063  0.47441  0.26006  1.0000
  C   C19       1.0  0.73008  0.47709  0.25401  1.0000
  H   H16       1.0  0.72631  0.48275  0.19481  1.0000
  H   H17       1.0  0.75215  0.47125  0.02244  1.0000
  N   N8        1.0  0.52549  0.27618  0.26111  1.0000
  C   C20       1.0  0.52284  0.25296  0.25507  1.0000
  H   H18       1.0  0.51725  0.24356  0.19580  1.0000
  H   H19       1.0  0.52828  0.28109  0.02267  1.0000
  N   N9        1.0  0.72396  0.24932  0.26053  1.0000
  C   C21       1.0  0.74720  0.26987  0.25445  1.0000
  H   H20       1.0  0.75656  0.27369  0.19512  1.0000
  H   H21       1.0  0.71900  0.24721  0.02233  1.0000
  C   C22       1.0  0.17414  0.61269  0.32925  1.0000
  C   C23       1.0  0.14775  0.59945  0.33850  1.0000
  C   C24       1.0  0.13390  0.57279  0.33911  1.0000
  C   C25       1.0  0.14741  0.55967  0.33317  1.0000
  C   C26       1.0  0.17386  0.57249  0.32470  1.0000
  C   C27       1.0  0.18692  0.59903  0.32249  1.0000
  C   C28       1.0  0.10700  0.55941  0.34164  1.0000
  C   C29       1.0  0.09298  0.56745  0.29018  1.0000
  C   C30       1.0  0.06656  0.55373  0.28912  1.0000
  C   C31       1.0  0.05310  0.53115  0.33811  1.0000
  C   C32       1.0  0.06700  0.52345  0.39162  1.0000
  C   C33       1.0  0.09345  0.53727  0.39312  1.0000
  C   C34       1.0  0.18811  0.63928  0.32521  1.0000
  C   C35       1.0  0.19248  0.65387  0.40290  1.0000
  C   C36       1.0  0.21058  0.67968  0.40269  1.0000
  C   C37       1.0  0.22447  0.69168  0.32473  1.0000
  C   C38       1.0  0.21899  0.67706  0.24610  1.0000
  C   C39       1.0  0.20125  0.65123  0.24647  1.0000
  C   C40       1.0  0.18751  0.55941  0.32013  1.0000
  C   C41       1.0  0.20569  0.56521  0.25265  1.0000
  C   C42       1.0  0.22194  0.55532  0.25539  1.0000
  C   C43       1.0  0.22074  0.53959  0.32637  1.0000
  C   C44       1.0  0.20173  0.53275  0.39138  1.0000
  C   C45       1.0  0.18521  0.54240  0.38805  1.0000
  H   H22       1.0  0.21435  0.68937  0.46148  1.0000
  H   H23       1.0  0.18398  0.64549  0.46177  1.0000
  H   H24       1.0  0.22934  0.68445  0.18934  1.0000
  H   H25       1.0  0.19904  0.64094  0.19003  1.0000
  H   H26       1.0  0.20795  0.57755  0.20275  1.0000
  H   H27       1.0  0.23581  0.56117  0.20823  1.0000
  H   H28       1.0  0.17270  0.53831  0.43917  1.0000
  H   H29       1.0  0.20038  0.52145  0.44371  1.0000
  H   H30       1.0  0.10273  0.53094  0.43256  1.0000
  H   H31       1.0  0.05801  0.50730  0.42858  1.0000
  H   H32       1.0  0.05727  0.56049  0.25190  1.0000
  H   H33       1.0  0.10188  0.58314  0.25093  1.0000
  H   H34       1.0  0.13856  0.60946  0.34372  1.0000
  H   H35       1.0  0.20617  0.60865  0.31781  1.0000
  H   H36       1.0  0.13783  0.54042  0.33133  1.0000
  C   C46       1.0  0.38746  0.56156  0.32945  1.0000
  C   C47       1.0  0.40069  0.54840  0.33862  1.0000
  C   C48       1.0  0.42736  0.56121  0.33897  1.0000
  C   C49       1.0  0.44048  0.58784  0.33285  1.0000
  C   C50       1.0  0.42766  0.60147  0.32443  1.0000
  C   C51       1.0  0.40111  0.58800  0.32247  1.0000
  C   C52       1.0  0.44073  0.54769  0.34146  1.0000
  C   C53       1.0  0.43265  0.52561  0.29008  1.0000
  C   C54       1.0  0.44636  0.51288  0.28900  1.0000
  C   C55       1.0  0.46895  0.52201  0.33791  1.0000
  C   C56       1.0  0.47670  0.54364  0.39131  1.0000
  C   C57       1.0  0.46289  0.55628  0.39281  1.0000
  C   C58       1.0  0.36086  0.54894  0.32565  1.0000
  C   C59       1.0  0.34632  0.53881  0.40351  1.0000
  C   C60       1.0  0.32052  0.53111  0.40345  1.0000
  C   C61       1.0  0.30847  0.53292  0.32550  1.0000
  C   C62       1.0  0.32303  0.54196  0.24671  1.0000
  C   C63       1.0  0.34886  0.55004  0.24691  1.0000
  C   C64       1.0  0.44074  0.62819  0.31963  1.0000
  C   C65       1.0  0.43492  0.64054  0.25211  1.0000
  C   C66       1.0  0.44478  0.66668  0.25480  1.0000
  C   C67       1.0  0.46058  0.68125  0.32557  1.0000
  C   C68       1.0  0.46747  0.66911  0.39054  1.0000
  C   C69       1.0  0.45777  0.64293  0.38745  1.0000
  H   H37       1.0  0.31087  0.52529  0.46235  1.0000
  H   H38       1.0  0.35475  0.53876  0.46236  1.0000
  H   H39       1.0  0.31560  0.54488  0.18998  1.0000
  H   H40       1.0  0.35912  0.55807  0.19036  1.0000
  H   H41       1.0  0.42252  0.63044  0.20239  1.0000
  H   H42       1.0  0.43891  0.67468  0.20760  1.0000
  H   H43       1.0  0.46191  0.63455  0.43852  1.0000
  H   H44       1.0  0.47879  0.67908  0.44280  1.0000
  H   H45       1.0  0.46925  0.57191  0.43218  1.0000
  H   H46       1.0  0.49286  0.55080  0.42821  1.0000
  H   H47       1.0  0.43957  0.49682  0.25188  1.0000
  H   H48       1.0  0.41694  0.51881  0.25091  1.0000
  H   H49       1.0  0.39068  0.52921  0.34398  1.0000
  H   H50       1.0  0.39150  0.59762  0.31783  1.0000
  H   H51       1.0  0.45973  0.59751  0.33083  1.0000
  C   C70       1.0  0.43858  0.82594  0.32914  1.0000
  C   C71       1.0  0.45176  0.85233  0.33852  1.0000
  C   C72       1.0  0.43897  0.86620  0.33913  1.0000
  C   C73       1.0  0.41234  0.85273  0.33315  1.0000
  C   C74       1.0  0.39869  0.82628  0.32457  1.0000
  C   C75       1.0  0.41214  0.81319  0.32228  1.0000
  C   C76       1.0  0.45253  0.89311  0.34170  1.0000
  C   C77       1.0  0.47460  0.90710  0.29027  1.0000
  C   C78       1.0  0.48733  0.93353  0.28919  1.0000
  C   C79       1.0  0.47824  0.94701  0.33820  1.0000
  C   C80       1.0  0.45663  0.93313  0.39171  1.0000
  C   C81       1.0  0.44397  0.90668  0.39317  1.0000
  C   C82       1.0  0.45118  0.81195  0.32509  1.0000
  C   C83       1.0  0.46156  0.80771  0.40266  1.0000
  C   C84       1.0  0.46926  0.78962  0.40249  1.0000
  C   C85       1.0  0.46730  0.77565  0.32466  1.0000
  C   C86       1.0  0.45802  0.78101  0.24611  1.0000
  C   C87       1.0  0.44992  0.79874  0.24643  1.0000
  C   C88       1.0  0.37196  0.81265  0.31986  1.0000
  C   C89       1.0  0.35960  0.79455  0.25215  1.0000
  C   C90       1.0  0.33345  0.77828  0.25479  1.0000
  C   C91       1.0  0.31891  0.77940  0.32589  1.0000
  C   C92       1.0  0.33106  0.79837  0.39105  1.0000
  C   C93       1.0  0.35724  0.81486  0.38793  1.0000
  H   H52       1.0  0.47531  0.78593  0.46118  1.0000
  H   H53       1.0  0.46176  0.81629  0.46145  1.0000
  H   H54       1.0  0.45498  0.77058  0.18953  1.0000
  H   H55       1.0  0.44169  0.80083  0.19014  1.0000
  H   H56       1.0  0.36969  0.79230  0.20227  1.0000
  H   H57       1.0  0.32546  0.76443  0.20758  1.0000
  H   H58       1.0  0.36564  0.82737  0.43906  1.0000
  H   H59       1.0  0.32110  0.79969  0.44342  1.0000
  H   H60       1.0  0.42835  0.89742  0.43258  1.0000
  H   H61       1.0  0.44949  0.94214  0.42864  1.0000
  H   H62       1.0  0.50339  0.94280  0.25199  1.0000
  H   H63       1.0  0.48136  0.89819  0.25096  1.0000
  H   H64       1.0  0.47096  0.86150  0.34376  1.0000
  H   H65       1.0  0.40250  0.79395  0.31755  1.0000
  H   H66       1.0  0.40269  0.86232  0.33133  1.0000
  C   C94       1.0  0.82705  0.39039  0.32744  1.0000
  C   C95       1.0  0.85342  0.40443  0.33726  1.0000
  C   C96       1.0  0.86621  0.43106  0.33951  1.0000
  C   C97       1.0  0.85194  0.44338  0.33491  1.0000
  C   C98       1.0  0.82551  0.42971  0.32585  1.0000
  C   C99       1.0  0.81338  0.40321  0.32191  1.0000
  C   C100      1.0  0.89297  0.44525  0.34255  1.0000
  C   C101      1.0  0.90676  0.43996  0.40581  1.0000
  C   C102      1.0  0.93321  0.45405  0.40784  1.0000
  C   C103      1.0  0.94680  0.47366  0.34582  1.0000
  C   C104      1.0  0.93289  0.47863  0.28184  1.0000
  C   C105      1.0  0.90648  0.46483  0.28059  1.0000
  C   C106      1.0  0.81389  0.36379  0.32269  1.0000
  C   C107      1.0  0.81002  0.34924  0.40014  1.0000
  C   C108      1.0  0.79224  0.32334  0.40019  1.0000
  C   C109      1.0  0.77812  0.31122  0.32277  1.0000
  C   C110      1.0  0.78317  0.32578  0.24416  1.0000
  C   C111      1.0  0.80060  0.35170  0.24431  1.0000
  C   C112      1.0  0.81103  0.44194  0.32191  1.0000
  C   C113      1.0  0.79292  0.43580  0.25394  1.0000
  C   C114      1.0  0.77619  0.44514  0.25613  1.0000
  C   C115      1.0  0.77686  0.46067  0.32697  1.0000
  C   C116      1.0  0.79575  0.46779  0.39267  1.0000
  C   C117      1.0  0.81270  0.45866  0.38997  1.0000
  H   H67       1.0  0.78878  0.31367  0.45892  1.0000
  H   H68       1.0  0.81863  0.35769  0.45879  1.0000
  H   H69       1.0  0.77253  0.31832  0.18803  1.0000
  H   H70       1.0  0.80230  0.36197  0.18826  1.0000
  H   H71       1.0  0.79114  0.42372  0.20374  1.0000
  H   H72       1.0  0.76249  0.43915  0.20828  1.0000
  H   H73       1.0  0.82523  0.46307  0.44123  1.0000
  H   H74       1.0  0.79679  0.47902  0.44479  1.0000
  H   H75       1.0  0.89721  0.46894  0.23267  1.0000
  H   H76       1.0  0.94185  0.49267  0.23580  1.0000
  H   H77       1.0  0.94242  0.44932  0.45391  1.0000
  H   H78       1.0  0.89764  0.42595  0.45181  1.0000
  H   H79       1.0  0.86342  0.39518  0.33883  1.0000
  H   H80       1.0  0.79416  0.39298  0.31697  1.0000
  H   H81       1.0  0.86094  0.46262  0.33717  1.0000
  C   C118      1.0  0.60964  0.43664  0.32777  1.0000
  C   C119      1.0  0.59560  0.44897  0.33753  1.0000
  C   C120      1.0  0.56898  0.43516  0.33980  1.0000
  C   C121      1.0  0.55666  0.40856  0.33535  1.0000
  C   C122      1.0  0.57031  0.39578  0.32639  1.0000
  C   C123      1.0  0.59681  0.41015  0.32239  1.0000
  C   C124      1.0  0.55479  0.44772  0.34275  1.0000
  C   C125      1.0  0.56010  0.46683  0.40593  1.0000
  C   C126      1.0  0.54601  0.47919  0.40787  1.0000
  C   C127      1.0  0.52639  0.47315  0.34590  1.0000
  C   C128      1.0  0.52140  0.45424  0.28199  1.0000
  C   C129      1.0  0.53521  0.44163  0.28082  1.0000
  C   C130      1.0  0.63624  0.45006  0.32289  1.0000
  C   C131      1.0  0.65081  0.46067  0.40035  1.0000
  C   C132      1.0  0.67670  0.46876  0.40021  1.0000
  C   C133      1.0  0.68879  0.46680  0.32265  1.0000
  C   C134      1.0  0.67418  0.45729  0.24414  1.0000
  C   C135      1.0  0.64828  0.44890  0.24435  1.0000
  C   C136      1.0  0.55807  0.36907  0.32257  1.0000
  C   C137      1.0  0.56422  0.35706  0.25475  1.0000
  C   C138      1.0  0.55485  0.33099  0.25707  1.0000
  C   C139      1.0  0.53926  0.31616  0.32783  1.0000
  C   C140      1.0  0.53211  0.32796  0.39333  1.0000
  C   C141      1.0  0.54131  0.35406  0.39057  1.0000
  H   H82       1.0  0.68640  0.47493  0.45892  1.0000
  H   H83       1.0  0.64239  0.46080  0.45909  1.0000
  H   H84       1.0  0.68164  0.45423  0.18776  1.0000
  H   H85       1.0  0.63800  0.44039  0.18829  1.0000
  H   H86       1.0  0.57634  0.36734  0.20461  1.0000
  H   H87       1.0  0.56085  0.32325  0.20937  1.0000
  H   H88       1.0  0.53688  0.36220  0.44170  1.0000
  H   H89       1.0  0.52088  0.31779  0.44546  1.0000
  H   H90       1.0  0.53110  0.42824  0.23293  1.0000
  H   H91       1.0  0.50736  0.44915  0.23597  1.0000
  H   H92       1.0  0.55073  0.49313  0.45395  1.0000
  H   H93       1.0  0.57410  0.47172  0.45194  1.0000
  H   H94       1.0  0.60486  0.46823  0.33892  1.0000
  H   H95       1.0  0.60704  0.40114  0.31749  1.0000
  H   H96       1.0  0.53741  0.39832  0.33762  1.0000
  C   C142      1.0  0.56352  0.17310  0.32796  1.0000
  C   C143      1.0  0.55118  0.14673  0.33769  1.0000
  C   C144      1.0  0.56498  0.13391  0.33975  1.0000
  C   C145      1.0  0.59157  0.14816  0.33515  1.0000
  C   C146      1.0  0.60437  0.17460  0.32623  1.0000
  C   C147      1.0  0.59001  0.18675  0.32242  1.0000
  C   C148      1.0  0.55241  0.10715  0.34266  1.0000
  C   C149      1.0  0.53333  0.09335  0.40596  1.0000
  C   C150      1.0  0.52097  0.06690  0.40790  1.0000
  C   C151      1.0  0.52699  0.05332  0.34585  1.0000
  C   C152      1.0  0.54585  0.06724  0.28181  1.0000
  C   C153      1.0  0.55846  0.09365  0.28063  1.0000
  C   C154      1.0  0.55011  0.18629  0.32329  1.0000
  C   C155      1.0  0.53948  0.19020  0.40081  1.0000
  C   C156      1.0  0.53137  0.20798  0.40087  1.0000
  C   C157      1.0  0.53331  0.22206  0.32342  1.0000
  C   C158      1.0  0.54285  0.21703  0.24485  1.0000
  C   C159      1.0  0.55132  0.19959  0.24494  1.0000
  C   C160      1.0  0.63107  0.18905  0.32231  1.0000
  C   C161      1.0  0.64308  0.20721  0.25449  1.0000
  C   C162      1.0  0.66915  0.22388  0.25665  1.0000
  C   C163      1.0  0.68399  0.22313  0.32739  1.0000
  C   C164      1.0  0.67220  0.20421  0.39296  1.0000
  C   C165      1.0  0.64611  0.18730  0.39024  1.0000
  H   H97       1.0  0.52516  0.21145  0.45962  1.0000
  H   H98       1.0  0.53933  0.18160  0.45947  1.0000
  H   H99       1.0  0.54589  0.22757  0.18854  1.0000
  H   H100      1.0  0.55978  0.19780  0.18874  1.0000
  H   H101      1.0  0.63278  0.20906  0.20442  1.0000
  H   H102      1.0  0.67687  0.23765  0.20902  1.0000
  H   H103      1.0  0.63798  0.17473  0.44137  1.0000
  H   H104      1.0  0.68239  0.20312  0.44499  1.0000
  H   H105      1.0  0.57183  0.10293  0.23268  1.0000
  H   H106      1.0  0.55094  0.05830  0.23575  1.0000
  H   H107      1.0  0.50706  0.05768  0.45407  1.0000
  H   H108      1.0  0.52846  0.10246  0.45201  1.0000
  H   H109      1.0  0.53192  0.13674  0.33920  1.0000
  H   H110      1.0  0.59903  0.20598  0.31757  1.0000
  H   H111      1.0  0.60181  0.13915  0.33728  1.0000
  N   N10       1.0  0.01404  0.50751  0.41429  1.0000
  C   C166      1.0  0.98870  0.49348  0.42242  1.0000
  H   H112      1.0  0.98109  0.48790  0.48449  1.0000
  N   N11       1.0  0.49256  0.50657  0.41420  1.0000
  C   C167      1.0  0.50656  0.49523  0.42240  1.0000
  H   H113      1.0  0.51218  0.49325  0.48447  1.0000
  N   N12       1.0  0.49367  0.98608  0.41437  1.0000
  C   C168      1.0  0.50498  0.01142  0.42248  1.0000
  H   H114      1.0  0.50697  0.01903  0.48453  1.0000
  C   C169      1.0  0.24016  0.53354  0.33536  1.0000
  C   C170      1.0  0.28383  0.52970  0.32965  1.0000
  N   N13       1.0  0.27712  0.53785  0.40344  1.0000
  C   C171      1.0  0.25593  0.53951  0.41150  1.0000
  C   C172      1.0  0.25313  0.55042  0.48775  1.0000
  O   O7        1.0  0.26114  0.57306  0.48293  1.0000
  O   O8        1.0  0.25821  0.54308  0.56526  1.0000
  C   C173      1.0  0.23806  0.53496  0.62876  1.0000
  H   H115      1.0  0.22078  0.51879  0.60406  1.0000
  H   H116      1.0  0.23441  0.55015  0.64591  1.0000
  C   C174      1.0  0.46667  0.70674  0.33444  1.0000
  C   C175      1.0  0.47060  0.75429  0.32871  1.0000
  N   N14       1.0  0.46249  0.73945  0.40256  1.0000
  C   C176      1.0  0.46083  0.71660  0.41071  1.0000
  C   C177      1.0  0.44988  0.70292  0.48697  1.0000
  O   O9        1.0  0.42722  0.68835  0.48214  1.0000
  O   O10       1.0  0.45725  0.71534  0.56446  1.0000
  C   C178      1.0  0.46525  0.70323  0.62806  1.0000
  H   H117      1.0  0.48137  0.70200  0.60345  1.0000
  H   H118      1.0  0.44998  0.68442  0.64523  1.0000
  C   C179      1.0  0.29342  0.75997  0.33463  1.0000
  C   C180      1.0  0.24585  0.71634  0.32878  1.0000
  N   N15       1.0  0.26067  0.72310  0.40269  1.0000
  C   C181      1.0  0.28352  0.74429  0.41093  1.0000
  C   C182      1.0  0.29715  0.74708  0.48759  1.0000
  O   O11       1.0  0.31179  0.73910  0.48197  1.0000
  O   O12       1.0  0.28437  0.74191  0.56425  1.0000
  C   C183      1.0  0.29632  0.76181  0.62870  1.0000
  H   H119      1.0  0.29781  0.77929  0.60436  1.0000
  H   H120      1.0  0.31499  0.76513  0.64688  1.0000
  C   C184      1.0  0.75721  0.46643  0.33464  1.0000
  C   C185      1.0  0.71347  0.47013  0.32723  1.0000
  N   N16       1.0  0.72018  0.46223  0.40168  1.0000
  C   C186      1.0  0.74137  0.46062  0.41053  1.0000
  C   C187      1.0  0.74421  0.45009  0.48787  1.0000
  O   O13       1.0  0.73701  0.42762  0.48187  1.0000
  O   O14       1.0  0.73831  0.45689  0.56475  1.0000
  C   C188      1.0  0.75842  0.46610  0.62879  1.0000
  H   H121      1.0  0.77522  0.48285  0.60432  1.0000
  H   H122      1.0  0.76317  0.45169  0.64649  1.0000
  C   C189      1.0  0.53344  0.29074  0.33570  1.0000
  C   C190      1.0  0.52991  0.24336  0.32820  1.0000
  N   N17       1.0  0.53779  0.25797  0.40263  1.0000
  C   C191      1.0  0.53930  0.28074  0.41153  1.0000
  C   C192      1.0  0.54993  0.29419  0.48851  1.0000
  O   O15       1.0  0.57249  0.30924  0.48425  1.0000
  O   O16       1.0  0.54276  0.28143  0.56537  1.0000
  C   C193      1.0  0.53376  0.29259  0.62916  1.0000
  H   H123      1.0  0.51725  0.29304  0.60422  1.0000
  H   H124      1.0  0.54839  0.31162  0.64725  1.0000
  C   C194      1.0  0.70943  0.24273  0.33519  1.0000
  C   C195      1.0  0.75681  0.28653  0.32757  1.0000
  N   N18       1.0  0.74223  0.27980  0.40206  1.0000
  C   C196      1.0  0.71947  0.25855  0.41109  1.0000
  C   C197      1.0  0.70603  0.25581  0.48802  1.0000
  O   O17       1.0  0.69106  0.26342  0.48368  1.0000
  O   O18       1.0  0.71878  0.26136  0.56490  1.0000
  C   C198      1.0  0.70750  0.24124  0.62882  1.0000
  H   H125      1.0  0.70691  0.22420  0.60403  1.0000
  H   H126      1.0  0.68852  0.23699  0.64686  1.0000
