data_image0
_chemical_formula_structural       HNHN2C2HCHNC2HCHCNHCHCNHCHNC2HCHNC2HCHCNH2CNH2NCHCHNCHCHC6H3C6H3N4C6H3C6H3N4C6H3C6H3N4C6H2C6H3N3C6H2C6H3N3CNCHCHCNCHCHCNC2HCHCNC2HCHCNCHCHCNCHCHCNC3HCHCNC3HCHCNC2HCHCNC2HCH
_chemical_formula_sum              "H70 N40 C120"
_cell_length_a       31.9276
_cell_length_b       39.7293
_cell_length_c       14.9772
_cell_angle_alpha    88.8514
_cell_angle_beta     90.8942
_cell_angle_gamma    90.2949

_space_group_name_H-M_alt    "P 1"
_space_group_IT_number       1

loop_
  _space_group_symop_operation_xyz
  'x, y, z'

loop_
  _atom_site_type_symbol
  _atom_site_label
  _atom_site_symmetry_multiplicity
  _atom_site_fract_x
  _atom_site_fract_y
  _atom_site_fract_z
  _atom_site_occupancy
  H   H1        1.0  0.78870  0.37355  0.39143  1.0000
  N   N1        1.0  0.85807  0.35087  0.34306  1.0000
  H   H2        1.0  0.14785  0.67580  0.40246  1.0000
  N   N2        1.0  0.07738  0.69643  0.34719  1.0000
  N   N3        1.0  0.10373  0.19807  0.42798  1.0000
  C   C1        1.0  0.07672  0.17194  0.42064  1.0000
  C   C2        1.0  0.09130  0.13989  0.39721  1.0000
  H   H3        1.0  0.04564  0.17628  0.43089  1.0000
  C   C3        1.0  0.06249  0.11338  0.38599  1.0000
  H   H4        1.0  0.03140  0.11826  0.39401  1.0000
  N   N4        1.0  0.82798  0.84020  0.41976  1.0000
  C   C4        1.0  0.85326  0.86746  0.41175  1.0000
  C   C5        1.0  0.83637  0.89950  0.39089  1.0000
  H   H5        1.0  0.88480  0.86403  0.42017  1.0000
  C   C6        1.0  0.86357  0.92727  0.38015  1.0000
  H   H6        1.0  0.89495  0.92284  0.38682  1.0000
  C   C7        1.0  0.82595  0.15006  0.29849  1.0000
  N   N5        1.0  0.81184  0.18228  0.29738  1.0000
  H   H7        1.0  0.85738  0.14619  0.29258  1.0000
  C   C8        1.0  0.75641  0.22313  0.30904  1.0000
  H   H8        1.0  0.72549  0.22746  0.32102  1.0000
  C   C9        1.0  0.10308  0.89491  0.28753  1.0000
  N   N6        1.0  0.11892  0.86336  0.28420  1.0000
  H   H9        1.0  0.07136  0.89778  0.28229  1.0000
  C   C10       1.0  0.17639  0.82434  0.29397  1.0000
  H   H10       1.0  0.20750  0.82053  0.30745  1.0000
  N   N7        1.0  0.21182  0.53826  0.31648  1.0000
  C   C11       1.0  0.21505  0.50774  0.27967  1.0000
  C   C12       1.0  0.25305  0.48980  0.28581  1.0000
  H   H11       1.0  0.18881  0.49776  0.25019  1.0000
  C   C13       1.0  0.25325  0.45643  0.25653  1.0000
  H   H12       1.0  0.22553  0.44706  0.23226  1.0000
  N   N8        1.0  0.64985  0.49849  0.31413  1.0000
  C   C14       1.0  0.63980  0.52495  0.26033  1.0000
  C   C15       1.0  0.66615  0.55351  0.25497  1.0000
  H   H13       1.0  0.61227  0.52368  0.22469  1.0000
  C   C16       1.0  0.65318  0.58033  0.19843  1.0000
  H   H14       1.0  0.62830  0.57653  0.15585  1.0000
  C   C17       1.0  0.00621  0.35988  0.30234  1.0000
  N   N9        1.0  0.96627  0.35564  0.27224  1.0000
  H   H15       1.0  0.02986  0.35738  0.25781  1.0000
  H   H16       1.0  0.89123  0.33516  0.23524  1.0000
  C   C18       1.0  0.92881  0.68165  0.31260  1.0000
  N   N10       1.0  0.96775  0.68787  0.28072  1.0000
  H   H17       1.0  0.90402  0.68332  0.26881  1.0000
  H   H18       1.0  0.04111  0.71089  0.23871  1.0000
  N   N11       1.0  0.50828  0.33176  0.31575  1.0000
  C   C19       1.0  0.46897  0.32920  0.28060  1.0000
  H   H19       1.0  0.46567  0.32718  0.21291  1.0000
  C   C20       1.0  0.39327  0.33647  0.29798  1.0000
  H   H20       1.0  0.39134  0.34452  0.23260  1.0000
  N   N12       1.0  0.42817  0.71445  0.32016  1.0000
  C   C21       1.0  0.46698  0.71530  0.28417  1.0000
  H   H21       1.0  0.46917  0.71839  0.21649  1.0000
  C   C22       1.0  0.54253  0.70441  0.29944  1.0000
  H   H22       1.0  0.54310  0.69953  0.23260  1.0000
  C   C23       1.0  0.93984  0.02041  0.33131  1.0000
  C   C24       1.0  0.91733  0.98987  0.34566  1.0000
  C   C25       1.0  0.87305  0.98807  0.34781  1.0000
  C   C26       1.0  0.85022  0.01808  0.33525  1.0000
  C   C27       1.0  0.87075  0.04926  0.32158  1.0000
  C   C28       1.0  0.91488  0.04976  0.31900  1.0000
  H   H23       1.0  0.93345  0.96838  0.35937  1.0000
  H   H24       1.0  0.92868  0.07242  0.30462  1.0000
  H   H25       1.0  0.81827  0.01715  0.33776  1.0000
  C   C29       1.0  0.98480  0.02152  0.33124  1.0000
  C   C30       1.0  0.00976  0.99257  0.31684  1.0000
  C   C31       1.0  0.05396  0.99334  0.31853  1.0000
  C   C32       1.0  0.07442  0.02427  0.33375  1.0000
  C   C33       1.0  0.05157  0.05363  0.34910  1.0000
  C   C34       1.0  0.00735  0.05178  0.34774  1.0000
  H   H26       1.0  0.99591  0.97016  0.30151  1.0000
  H   H27       1.0  0.10639  0.02551  0.33562  1.0000
  H   H28       1.0  0.99154  0.07290  0.36372  1.0000
  N   N13       1.0  0.07418  0.08190  0.36524  1.0000
  N   N14       1.0  0.07433  0.96384  0.30765  1.0000
  N   N15       1.0  0.85111  0.07943  0.31316  1.0000
  N   N16       1.0  0.85082  0.95920  0.36225  1.0000
  C   C35       1.0  0.20261  0.33501  0.36039  1.0000
  C   C36       1.0  0.19898  0.30050  0.38729  1.0000
  C   C37       1.0  0.16108  0.28656  0.41866  1.0000
  C   C38       1.0  0.12626  0.30735  0.42981  1.0000
  C   C39       1.0  0.12654  0.34042  0.39499  1.0000
  C   C40       1.0  0.16392  0.35315  0.35845  1.0000
  H   H29       1.0  0.22313  0.28427  0.37897  1.0000
  H   H30       1.0  0.16188  0.37717  0.33448  1.0000
  H   H31       1.0  0.09833  0.29671  0.44839  1.0000
  C   C41       1.0  0.24209  0.34987  0.33506  1.0000
  C   C42       1.0  0.28167  0.33395  0.35000  1.0000
  C   C43       1.0  0.32011  0.34887  0.32436  1.0000
  C   C44       1.0  0.32000  0.38234  0.29101  1.0000
  C   C45       1.0  0.28256  0.40046  0.28243  1.0000
  C   C46       1.0  0.24460  0.38324  0.29941  1.0000
  H   H32       1.0  0.28341  0.31073  0.37992  1.0000
  H   H33       1.0  0.34776  0.39487  0.28201  1.0000
  H   H34       1.0  0.21834  0.39698  0.29210  1.0000
  N   N17       1.0  0.28484  0.43456  0.27355  1.0000
  N   N18       1.0  0.35696  0.33310  0.34317  1.0000
  N   N19       1.0  0.09039  0.35793  0.38338  1.0000
  N   N20       1.0  0.15253  0.25343  0.42662  1.0000
  C   C47       1.0  0.73272  0.69937  0.38071  1.0000
  C   C48       1.0  0.73590  0.73426  0.40066  1.0000
  C   C49       1.0  0.77432  0.74946  0.42498  1.0000
  C   C50       1.0  0.81010  0.72941  0.43699  1.0000
  C   C51       1.0  0.80966  0.69564  0.41051  1.0000
  C   C52       1.0  0.77146  0.68151  0.38090  1.0000
  H   H35       1.0  0.71113  0.74996  0.38931  1.0000
  H   H36       1.0  0.77274  0.65689  0.36376  1.0000
  H   H37       1.0  0.83824  0.74097  0.44994  1.0000
  C   C53       1.0  0.69357  0.68475  0.35264  1.0000
  C   C54       1.0  0.65406  0.70042  0.36622  1.0000
  C   C55       1.0  0.61655  0.68965  0.32380  1.0000
  C   C56       1.0  0.61822  0.66165  0.26745  1.0000
  C   C57       1.0  0.65486  0.64225  0.26594  1.0000
  C   C58       1.0  0.69151  0.65339  0.30884  1.0000
  H   H38       1.0  0.65208  0.72062  0.40701  1.0000
  H   H39       1.0  0.59122  0.65190  0.24058  1.0000
  H   H40       1.0  0.71735  0.63900  0.30045  1.0000
  N   N21       1.0  0.65372  0.61132  0.23179  1.0000
  N   N22       1.0  0.57956  0.70409  0.34518  1.0000
  N   N23       1.0  0.84616  0.67902  0.39856  1.0000
  N   N24       1.0  0.78175  0.78291  0.42631  1.0000
  C   C59       1.0  0.74385  0.33488  0.36238  1.0000
  C   C60       1.0  0.74386  0.30016  0.33905  1.0000
  C   C61       1.0  0.78043  0.28297  0.31401  1.0000
  C   C62       1.0  0.81797  0.30122  0.30576  1.0000
  C   C63       1.0  0.82082  0.33450  0.33576  1.0000
  C   C64       1.0  0.78448  0.35000  0.36726  1.0000
  H   H41       1.0  0.71725  0.28616  0.34212  1.0000
  H   H42       1.0  0.84479  0.28875  0.29016  1.0000
  C   C65       1.0  0.70622  0.35322  0.38153  1.0000
  C   C66       1.0  0.66541  0.33828  0.37857  1.0000
  C   C67       1.0  0.62857  0.35566  0.40014  1.0000
  C   C68       1.0  0.63152  0.39022  0.41849  1.0000
  C   C69       1.0  0.67008  0.40720  0.41289  1.0000
  C   C70       1.0  0.70668  0.38852  0.39816  1.0000
  H   H43       1.0  0.66140  0.31363  0.36330  1.0000
  H   H44       1.0  0.60470  0.40390  0.42512  1.0000
  H   H45       1.0  0.73325  0.40233  0.39040  1.0000
  N   N25       1.0  0.66860  0.44120  0.40638  1.0000
  N   N26       1.0  0.59082  0.33991  0.39274  1.0000
  N   N27       1.0  0.78356  0.24924  0.30377  1.0000
  C   C71       1.0  0.19186  0.71399  0.36285  1.0000
  C   C72       1.0  0.19101  0.74820  0.33261  1.0000
  C   C73       1.0  0.15365  0.76447  0.30439  1.0000
  C   C74       1.0  0.11624  0.74581  0.29909  1.0000
  C   C75       1.0  0.11428  0.71308  0.33629  1.0000
  C   C76       1.0  0.15142  0.69863  0.37139  1.0000
  H   H46       1.0  0.21764  0.76228  0.33215  1.0000
  H   H47       1.0  0.08900  0.75784  0.28129  1.0000
  C   C77       1.0  0.23030  0.69649  0.38470  1.0000
  C   C78       1.0  0.27111  0.71140  0.38327  1.0000
  C   C79       1.0  0.30795  0.69362  0.40821  1.0000
  C   C80       1.0  0.30484  0.65890  0.42942  1.0000
  C   C81       1.0  0.26663  0.64179  0.41784  1.0000
  C   C82       1.0  0.23024  0.66111  0.40076  1.0000
  H   H48       1.0  0.27491  0.73623  0.36719  1.0000
  H   H49       1.0  0.33159  0.64500  0.43744  1.0000
  H   H50       1.0  0.20337  0.64812  0.39150  1.0000
  N   N28       1.0  0.26820  0.60776  0.40946  1.0000
  N   N29       1.0  0.34608  0.70868  0.39937  1.0000
  N   N30       1.0  0.14962  0.79804  0.29053  1.0000
  C   C83       1.0  0.13497  0.13703  0.38465  1.0000
  N   N31       1.0  0.16048  0.16435  0.39252  1.0000
  C   C84       1.0  0.14552  0.19500  0.41436  1.0000
  H   H51       1.0  0.14795  0.11472  0.36714  1.0000
  C   C85       1.0  0.17138  0.22359  0.41614  1.0000
  H   H52       1.0  0.20188  0.22241  0.39681  1.0000
  C   C86       1.0  0.79228  0.90093  0.38082  1.0000
  N   N32       1.0  0.76855  0.87250  0.38920  1.0000
  C   C87       1.0  0.78572  0.84194  0.40891  1.0000
  H   H53       1.0  0.77762  0.92312  0.36524  1.0000
  C   C88       1.0  0.76156  0.81235  0.41329  1.0000
  H   H54       1.0  0.73023  0.81282  0.39828  1.0000
  C   C89       1.0  0.77060  0.18983  0.30586  1.0000
  N   N33       1.0  0.74296  0.16399  0.31567  1.0000
  C   C90       1.0  0.75511  0.13130  0.31690  1.0000
  C   C91       1.0  0.79781  0.12271  0.30930  1.0000
  H   H55       1.0  0.73265  0.11313  0.32530  1.0000
  C   C92       1.0  0.81043  0.08874  0.31466  1.0000
  H   H56       1.0  0.78808  0.07054  0.32382  1.0000
  C   C93       1.0  0.16069  0.85717  0.29182  1.0000
  N   N34       1.0  0.18719  0.88358  0.30333  1.0000
  C   C94       1.0  0.17327  0.91570  0.30680  1.0000
  C   C95       1.0  0.12998  0.92283  0.30013  1.0000
  H   H57       1.0  0.19482  0.93444  0.31656  1.0000
  C   C96       1.0  0.11554  0.95602  0.30812  1.0000
  H   H58       1.0  0.13716  0.97467  0.31824  1.0000
  C   C97       1.0  0.28679  0.50602  0.33010  1.0000
  N   N35       1.0  0.28187  0.53730  0.36392  1.0000
  C   C98       1.0  0.24442  0.55345  0.35864  1.0000
  H   H59       1.0  0.31513  0.49444  0.33814  1.0000
  C   C99       1.0  0.23710  0.58599  0.38799  1.0000
  H   H60       1.0  0.20740  0.59479  0.37809  1.0000
  C   C100      1.0  0.70201  0.55300  0.31188  1.0000
  N   N36       1.0  0.71159  0.52474  0.36113  1.0000
  C   C101      1.0  0.68565  0.49742  0.36400  1.0000
  H   H61       1.0  0.72276  0.57265  0.31151  1.0000
  C   C102      1.0  0.69679  0.46674  0.40563  1.0000
  H   H62       1.0  0.72731  0.46266  0.42416  1.0000
  C   C103      1.0  0.93294  0.35628  0.32740  1.0000
  N   N37       1.0  0.94003  0.36040  0.41612  1.0000
  C   C104      1.0  0.97939  0.36295  0.45082  1.0000
  C   C105      1.0  0.01463  0.36156  0.39506  1.0000
  C   C106      1.0  0.89331  0.34667  0.29572  1.0000
  H   H63       1.0  0.98293  0.36401  0.51867  1.0000
  C   C107      1.0  0.05491  0.35588  0.43154  1.0000
  H   H64       1.0  0.05711  0.34663  0.49578  1.0000
  C   C108      1.0  0.00239  0.68863  0.33460  1.0000
  N   N38       1.0  0.99749  0.68397  0.42386  1.0000
  C   C109      1.0  0.95917  0.67953  0.46024  1.0000
  C   C110      1.0  0.92262  0.67931  0.40573  1.0000
  C   C111      1.0  0.04085  0.69965  0.30078  1.0000
  H   H65       1.0  0.95728  0.67816  0.52829  1.0000
  C   C112      1.0  0.88289  0.68290  0.44373  1.0000
  H   H66       1.0  0.88174  0.69222  0.50695  1.0000
  C   C113      1.0  0.44158  0.33436  0.42799  1.0000
  N   N39       1.0  0.48150  0.33878  0.45829  1.0000
  C   C114      1.0  0.51513  0.33701  0.40407  1.0000
  C   C115      1.0  0.43348  0.33141  0.33551  1.0000
  H   H67       1.0  0.41774  0.33762  0.47168  1.0000
  C   C116      1.0  0.55486  0.34659  0.43563  1.0000
  H   H68       1.0  0.55669  0.35941  0.49420  1.0000
  C   C117      1.0  0.49650  0.70588  0.43067  1.0000
  N   N40       1.0  0.45685  0.70354  0.46185  1.0000
  C   C118      1.0  0.42241  0.70825  0.40862  1.0000
  C   C119      1.0  0.50324  0.70998  0.33810  1.0000
  H   H69       1.0  0.52072  0.70057  0.47398  1.0000
  C   C120      1.0  0.38259  0.70074  0.44204  1.0000
  H   H70       1.0  0.38120  0.68736  0.50108  1.0000
