data_image0
_chemical_formula_structural       C2OCHC2OCH3C2HCOC2OC2HCOC2OC3OH4C6O2H4C6O2H4C3NO2C4HNO2C3HNOC4HNO2C4HNO2C4HNO2C3HO2C3HOC3OHC3HOC3OHC2HNO2C2HNO2C2HNOC2HNO2C2HNO2C2HNO2C3OH4C6O2H4C6O2H4C3NO2C4HNO2C3HNOC4HNO2C4HNO2C4HNO2C3HO2C3HOC3OHC3HOC3OHC2HNO2C2HNO2C2HNOC2HNO2C2HNO2C2HNO2C6O2H3C6O2H4C6O2H4C4HNO2C4HNO2C4HNO2C4HNO2C4HNO2C4HNO2C3HOC3OHC3HOC3OHC3HOC3OHC2HNO2C2HNO2C2HNO2C2HNO2C2HNO2C2HNO2C6O2H3C6O2H4C6O2H4C4HNO2C4HNO2C4HNO2C4HNO2C4HNO2C4HNO2C3HOC3OHC3HOC3OHC3HOC3OHC2HNO2C2HNO2C2HNO2C2HNO2C2HNO2C2HNO2
_chemical_formula_sum              "C288 O144 H120 N48"
_cell_length_a       46.4972
_cell_length_b       46.4972
_cell_length_c       14.9404
_cell_angle_alpha    90
_cell_angle_beta     90
_cell_angle_gamma    120

_space_group_name_H-M_alt    "P 1"
_space_group_IT_number       1

loop_
  _space_group_symop_operation_xyz
  'x, y, z'

loop_
  _atom_site_type_symbol
  _atom_site_label
  _atom_site_symmetry_multiplicity
  _atom_site_fract_x
  _atom_site_fract_y
  _atom_site_fract_z
  _atom_site_occupancy
  C   C1        1.0  0.02099  0.26121  0.32714  1.0000
  C   C2        1.0  0.04070  0.29678  0.31768  1.0000
  O   O1        1.0  0.02819  0.31610  0.28857  1.0000
  C   C3        1.0  0.03974  0.24484  0.34132  1.0000
  H   H1        1.0  0.02835  0.22019  0.35523  1.0000
  C   C4        1.0  0.02099  0.76121  0.32714  1.0000
  C   C5        1.0  0.04070  0.79678  0.31768  1.0000
  O   O2        1.0  0.02819  0.81610  0.28857  1.0000
  C   C6        1.0  0.03974  0.74484  0.34132  1.0000
  H   H2        1.0  0.02835  0.72019  0.35523  1.0000
  H   H3        1.0  0.02280  0.31083  0.22486  1.0000
  H   H4        1.0  0.02280  0.81083  0.22486  1.0000
  C   C7        1.0  0.07546  0.31444  0.33353  1.0000
  C   C8        1.0  0.09272  0.24429  0.34612  1.0000
  H   H5        1.0  0.09523  0.24279  0.20522  1.0000
  C   C9        1.0  0.09480  0.34965  0.33835  1.0000
  O   O3        1.0  0.08819  0.36994  0.12798  1.0000
  C   C10       1.0  0.09232  0.29641  0.34285  1.0000
  C   C11       1.0  0.07470  0.26143  0.34452  1.0000
  O   O4        1.0  0.08880  0.36122  0.55596  1.0000
  C   C12       1.0  0.07546  0.81445  0.33353  1.0000
  C   C13       1.0  0.09272  0.74429  0.34612  1.0000
  H   H6        1.0  0.09522  0.74279  0.20522  1.0000
  C   C14       1.0  0.09480  0.84965  0.33835  1.0000
  O   O5        1.0  0.08819  0.86994  0.12798  1.0000
  C   C15       1.0  0.09232  0.79641  0.34285  1.0000
  C   C16       1.0  0.07470  0.76143  0.34452  1.0000
  O   O6        1.0  0.08880  0.86122  0.55596  1.0000
  C   C17       1.0  0.48499  0.24276  0.32706  1.0000
  C   C18       1.0  0.43051  0.18954  0.33304  1.0000
  C   C19       1.0  0.46529  0.20720  0.31742  1.0000
  O   O7        1.0  0.47781  0.18788  0.28838  1.0000
  H   H7        1.0  0.98319  0.19314  0.22465  1.0000
  H   H8        1.0  0.52280  0.31083  0.22486  1.0000
  H   H9        1.0  0.37218  0.18779  0.28350  1.0000
  H   H10       1.0  0.13382  0.31619  0.28449  1.0000
  C   C20       1.0  0.26222  0.24324  0.32713  1.0000
  C   C21       1.0  0.31546  0.24200  0.33308  1.0000
  C   C22       1.0  0.29779  0.25911  0.31750  1.0000
  C   C23       1.0  0.24374  0.26077  0.32707  1.0000
  C   C24       1.0  0.20817  0.24489  0.31744  1.0000
  C   C25       1.0  0.19051  0.26202  0.33289  1.0000
  O   O8        1.0  0.31712  0.29096  0.28860  1.0000
  O   O9        1.0  0.18884  0.21303  0.28868  1.0000
  H   H11       1.0  0.31192  0.29111  0.22483  1.0000
  H   H12       1.0  0.19401  0.21285  0.22490  1.0000
  H   H13       1.0  0.31716  0.18536  0.28374  1.0000
  H   H14       1.0  0.18878  0.31857  0.28287  1.0000
  C   C26       1.0  0.26179  0.01999  0.32729  1.0000
  C   C27       1.0  0.26301  0.07445  0.33311  1.0000
  C   C28       1.0  0.24590  0.03966  0.31763  1.0000
  C   C29       1.0  0.24426  0.48399  0.32726  1.0000
  C   C30       1.0  0.26016  0.46432  0.31750  1.0000
  C   C31       1.0  0.24304  0.42952  0.33266  1.0000
  O   O10       1.0  0.21404  0.02711  0.28878  1.0000
  O   O11       1.0  0.29201  0.47689  0.28857  1.0000
  H   H15       1.0  0.21388  0.52175  0.22503  1.0000
  H   H16       1.0  0.29216  0.98228  0.22484  1.0000
  H   H17       1.0  0.31956  0.13276  0.28328  1.0000
  H   H18       1.0  0.18647  0.37124  0.28244  1.0000
  C   C32       1.0  0.10592  0.24126  0.26368  1.0000
  C   C33       1.0  0.13705  0.24264  0.25856  1.0000
  C   C34       1.0  0.15533  0.24616  0.33806  1.0000
  N   N1        1.0  0.15200  0.24449  0.17442  1.0000
  O   O12       1.0  0.15698  0.26966  0.13060  1.0000
  O   O13       1.0  0.13452  0.21903  0.12817  1.0000
  C   C35       1.0  0.26065  0.34941  0.34482  1.0000
  C   C36       1.0  0.26359  0.36574  0.26264  1.0000
  C   C37       1.0  0.26238  0.39558  0.25775  1.0000
  C   C38       1.0  0.25894  0.41023  0.33754  1.0000
  H   H19       1.0  0.26213  0.35361  0.20408  1.0000
  N   N2        1.0  0.26059  0.40882  0.17377  1.0000
  O   O14       1.0  0.23538  0.38873  0.12988  1.0000
  O   O15       1.0  0.28603  0.41675  0.12748  1.0000
  C   C39       1.0  0.15562  0.41220  0.34497  1.0000
  C   C40       1.0  0.13922  0.39870  0.26293  1.0000
  C   C41       1.0  0.10940  0.36763  0.25837  1.0000
  H   H20       1.0  0.15136  0.40931  0.20433  1.0000
  N   N3        1.0  0.09615  0.35250  0.17448  1.0000
  O   O16       1.0  0.11623  0.34734  0.13071  1.0000
  C   C42       1.0  0.41325  0.25968  0.34578  1.0000
  C   C43       1.0  0.39987  0.26256  0.26345  1.0000
  C   C44       1.0  0.36875  0.26122  0.25854  1.0000
  C   C45       1.0  0.35065  0.25788  0.33829  1.0000
  H   H21       1.0  0.41047  0.26098  0.20490  1.0000
  N   N4        1.0  0.35372  0.25931  0.17446  1.0000
  O   O17       1.0  0.34865  0.23408  0.13080  1.0000
  O   O18       1.0  0.37119  0.28472  0.12800  1.0000
  C   C46       1.0  0.24535  0.15463  0.34550  1.0000
  C   C47       1.0  0.24226  0.13821  0.26335  1.0000
  C   C48       1.0  0.24360  0.10844  0.25843  1.0000
  C   C49       1.0  0.24713  0.09375  0.33806  1.0000
  H   H22       1.0  0.24381  0.15037  0.20477  1.0000
  N   N5        1.0  0.24544  0.09526  0.17439  1.0000
  O   O19       1.0  0.27063  0.11540  0.13053  1.0000
  O   O20       1.0  0.21999  0.08728  0.12810  1.0000
  C   C50       1.0  0.35043  0.09176  0.34537  1.0000
  C   C51       1.0  0.36669  0.10511  0.26310  1.0000
  C   C52       1.0  0.39650  0.13618  0.25818  1.0000
  C   C53       1.0  0.41118  0.15434  0.33787  1.0000
  H   H23       1.0  0.35456  0.09439  0.20456  1.0000
  N   N6        1.0  0.40970  0.15120  0.17417  1.0000
  O   O21       1.0  0.38957  0.15628  0.13034  1.0000
  O   O22       1.0  0.41765  0.13371  0.12785  1.0000
  C   C54       1.0  0.46624  0.25913  0.34132  1.0000
  C   C55       1.0  0.43127  0.24256  0.34393  1.0000
  C   C56       1.0  0.41364  0.20757  0.34207  1.0000
  H   H24       1.0  0.47762  0.28377  0.35533  1.0000
  O   O23       1.0  0.37975  0.19106  0.34606  1.0000
  O   O24       1.0  0.12621  0.31293  0.34700  1.0000
  C   C57       1.0  0.24586  0.20812  0.34132  1.0000
  C   C58       1.0  0.26245  0.18975  0.34414  1.0000
  C   C59       1.0  0.29743  0.20710  0.34224  1.0000
  H   H25       1.0  0.22122  0.19485  0.35518  1.0000
  O   O25       1.0  0.31396  0.18974  0.34628  1.0000
  C   C60       1.0  0.20855  0.29693  0.34169  1.0000
  C   C61       1.0  0.24352  0.31428  0.34372  1.0000
  C   C62       1.0  0.26010  0.29589  0.34118  1.0000
  O   O26       1.0  0.19203  0.31431  0.34546  1.0000
  H   H26       1.0  0.28475  0.30917  0.35508  1.0000
  C   C63       1.0  0.29691  0.03876  0.34141  1.0000
  C   C64       1.0  0.31528  0.07373  0.34408  1.0000
  C   C65       1.0  0.29791  0.09134  0.34205  1.0000
  H   H27       1.0  0.31018  0.02740  0.35553  1.0000
  O   O27       1.0  0.31527  0.12524  0.34587  1.0000
  C   C66       1.0  0.20813  0.41262  0.34142  1.0000
  C   C67       1.0  0.19076  0.43023  0.34371  1.0000
  C   C68       1.0  0.20914  0.46521  0.34146  1.0000
  O   O28       1.0  0.19077  0.37872  0.34506  1.0000
  H   H28       1.0  0.19586  0.47656  0.35551  1.0000
  C   C69       1.0  0.14125  0.24725  0.42182  1.0000
  C   C70       1.0  0.11034  0.24623  0.42481  1.0000
  H   H29       1.0  0.10271  0.25104  0.48448  1.0000
  N   N7        1.0  0.15982  0.25223  0.50148  1.0000
  O   O29       1.0  0.14434  0.22887  0.55593  1.0000
  O   O30       1.0  0.16691  0.27913  0.53940  1.0000
  C   C71       1.0  0.25783  0.39501  0.42119  1.0000
  C   C72       1.0  0.25880  0.36508  0.42375  1.0000
  H   H30       1.0  0.25406  0.35263  0.48338  1.0000
  N   N8        1.0  0.25291  0.40855  0.50103  1.0000
  O   O31       1.0  0.27630  0.41634  0.55535  1.0000
  O   O32       1.0  0.22602  0.38873  0.53899  1.0000
  C   C73       1.0  0.11007  0.36388  0.42182  1.0000
  C   C74       1.0  0.14002  0.39476  0.42405  1.0000
  H   H31       1.0  0.15250  0.40262  0.48361  1.0000
  N   N9        1.0  0.09656  0.34554  0.50183  1.0000
  O   O33       1.0  0.11639  0.33851  0.53991  1.0000
  C   C75       1.0  0.36483  0.25691  0.42190  1.0000
  C   C76       1.0  0.39571  0.25785  0.42454  1.0000
  H   H32       1.0  0.40349  0.25321  0.48419  1.0000
  N   N10       1.0  0.34638  0.25205  0.50170  1.0000
  O   O34       1.0  0.36196  0.27548  0.55591  1.0000
  O   O35       1.0  0.33931  0.22519  0.53983  1.0000
  C   C77       1.0  0.24820  0.10899  0.42166  1.0000
  C   C78       1.0  0.24721  0.13891  0.42429  1.0000
  H   H33       1.0  0.25199  0.15136  0.48393  1.0000
  N   N11       1.0  0.25314  0.09546  0.50148  1.0000
  O   O36       1.0  0.22976  0.08764  0.55584  1.0000
  O   O37       1.0  0.28003  0.11529  0.53942  1.0000
  C   C79       1.0  0.39595  0.14022  0.42156  1.0000
  C   C80       1.0  0.36605  0.10930  0.42426  1.0000
  H   H34       1.0  0.35360  0.10159  0.48389  1.0000
  N   N12       1.0  0.40949  0.15869  0.50138  1.0000
  O   O38       1.0  0.41734  0.14314  0.55569  1.0000
  O   O39       1.0  0.38966  0.16574  0.53938  1.0000
  C   C81       1.0  0.48499  0.74276  0.32706  1.0000
  C   C82       1.0  0.43051  0.68954  0.33304  1.0000
  C   C83       1.0  0.46529  0.70720  0.31742  1.0000
  O   O40       1.0  0.47781  0.68788  0.28838  1.0000
  H   H35       1.0  0.98319  0.69314  0.22465  1.0000
  H   H36       1.0  0.52280  0.81083  0.22486  1.0000
  H   H37       1.0  0.37218  0.68779  0.28351  1.0000
  H   H38       1.0  0.13382  0.81618  0.28449  1.0000
  C   C84       1.0  0.26222  0.74324  0.32713  1.0000
  C   C85       1.0  0.31546  0.74200  0.33308  1.0000
  C   C86       1.0  0.29779  0.75911  0.31750  1.0000
  C   C87       1.0  0.24374  0.76077  0.32707  1.0000
  C   C88       1.0  0.20817  0.74489  0.31744  1.0000
  C   C89       1.0  0.19051  0.76202  0.33289  1.0000
  O   O41       1.0  0.31712  0.79096  0.28860  1.0000
  O   O42       1.0  0.18884  0.71303  0.28868  1.0000
  H   H39       1.0  0.31192  0.79111  0.22483  1.0000
  H   H40       1.0  0.19401  0.71285  0.22490  1.0000
  H   H41       1.0  0.31716  0.68536  0.28374  1.0000
  H   H42       1.0  0.18878  0.81857  0.28287  1.0000
  C   C90       1.0  0.26179  0.51999  0.32729  1.0000
  C   C91       1.0  0.26301  0.57445  0.33311  1.0000
  C   C92       1.0  0.24590  0.53966  0.31763  1.0000
  C   C93       1.0  0.24426  0.98399  0.32726  1.0000
  C   C94       1.0  0.26016  0.96432  0.31750  1.0000
  C   C95       1.0  0.24304  0.92952  0.33266  1.0000
  O   O43       1.0  0.21404  0.52711  0.28878  1.0000
  O   O44       1.0  0.29201  0.97689  0.28857  1.0000
  H   H43       1.0  0.21388  0.02174  0.22503  1.0000
  H   H44       1.0  0.29216  0.48228  0.22484  1.0000
  H   H45       1.0  0.31956  0.63277  0.28328  1.0000
  H   H46       1.0  0.18647  0.87124  0.28244  1.0000
  C   C96       1.0  0.10592  0.74126  0.26368  1.0000
  C   C97       1.0  0.13705  0.74264  0.25856  1.0000
  C   C98       1.0  0.15533  0.74616  0.33806  1.0000
  N   N13       1.0  0.15200  0.74449  0.17442  1.0000
  O   O45       1.0  0.15698  0.76967  0.13060  1.0000
  O   O46       1.0  0.13452  0.71903  0.12817  1.0000
  C   C99       1.0  0.26065  0.84941  0.34482  1.0000
  C   C100      1.0  0.26359  0.86574  0.26264  1.0000
  C   C101      1.0  0.26238  0.89558  0.25775  1.0000
  C   C102      1.0  0.25894  0.91023  0.33754  1.0000
  H   H47       1.0  0.26213  0.85361  0.20408  1.0000
  N   N14       1.0  0.26059  0.90882  0.17377  1.0000
  O   O47       1.0  0.23538  0.88873  0.12988  1.0000
  O   O48       1.0  0.28603  0.91675  0.12748  1.0000
  C   C103      1.0  0.15562  0.91220  0.34497  1.0000
  C   C104      1.0  0.13922  0.89870  0.26293  1.0000
  C   C105      1.0  0.10940  0.86763  0.25837  1.0000
  H   H48       1.0  0.15136  0.90931  0.20433  1.0000
  N   N15       1.0  0.09615  0.85250  0.17448  1.0000
  O   O49       1.0  0.11623  0.84734  0.13071  1.0000
  C   C106      1.0  0.41326  0.75968  0.34578  1.0000
  C   C107      1.0  0.39987  0.76257  0.26345  1.0000
  C   C108      1.0  0.36875  0.76122  0.25854  1.0000
  C   C109      1.0  0.35065  0.75788  0.33829  1.0000
  H   H49       1.0  0.41047  0.76098  0.20490  1.0000
  N   N16       1.0  0.35372  0.75931  0.17446  1.0000
  O   O50       1.0  0.34865  0.73408  0.13080  1.0000
  O   O51       1.0  0.37119  0.78472  0.12800  1.0000
  C   C110      1.0  0.24535  0.65463  0.34550  1.0000
  C   C111      1.0  0.24226  0.63821  0.26335  1.0000
  C   C112      1.0  0.24360  0.60844  0.25843  1.0000
  C   C113      1.0  0.24713  0.59375  0.33806  1.0000
  H   H50       1.0  0.24381  0.65037  0.20477  1.0000
  N   N17       1.0  0.24544  0.59526  0.17439  1.0000
  O   O52       1.0  0.27063  0.61541  0.13053  1.0000
  O   O53       1.0  0.21999  0.58728  0.12810  1.0000
  C   C114      1.0  0.35043  0.59176  0.34537  1.0000
  C   C115      1.0  0.36669  0.60511  0.26310  1.0000
  C   C116      1.0  0.39650  0.63618  0.25818  1.0000
  C   C117      1.0  0.41118  0.65434  0.33787  1.0000
  H   H51       1.0  0.35456  0.59439  0.20456  1.0000
  N   N18       1.0  0.40970  0.65120  0.17417  1.0000
  O   O54       1.0  0.38957  0.65628  0.13034  1.0000
  O   O55       1.0  0.41765  0.63371  0.12785  1.0000
  C   C118      1.0  0.46624  0.75913  0.34132  1.0000
  C   C119      1.0  0.43127  0.74256  0.34393  1.0000
  C   C120      1.0  0.41364  0.70757  0.34207  1.0000
  H   H52       1.0  0.47762  0.78377  0.35533  1.0000
  O   O56       1.0  0.37975  0.69106  0.34606  1.0000
  O   O57       1.0  0.12621  0.81293  0.34700  1.0000
  C   C121      1.0  0.24586  0.70812  0.34132  1.0000
  C   C122      1.0  0.26245  0.68975  0.34414  1.0000
  C   C123      1.0  0.29743  0.70710  0.34224  1.0000
  H   H53       1.0  0.22122  0.69485  0.35518  1.0000
  O   O58       1.0  0.31396  0.68974  0.34628  1.0000
  C   C124      1.0  0.20855  0.79693  0.34169  1.0000
  C   C125      1.0  0.24352  0.81428  0.34372  1.0000
  C   C126      1.0  0.26010  0.79589  0.34118  1.0000
  O   O59       1.0  0.19203  0.81431  0.34546  1.0000
  H   H54       1.0  0.28475  0.80917  0.35508  1.0000
  C   C127      1.0  0.29691  0.53876  0.34141  1.0000
  C   C128      1.0  0.31528  0.57373  0.34408  1.0000
  C   C129      1.0  0.29791  0.59134  0.34205  1.0000
  H   H55       1.0  0.31018  0.52741  0.35553  1.0000
  O   O60       1.0  0.31527  0.62524  0.34587  1.0000
  C   C130      1.0  0.20813  0.91262  0.34142  1.0000
  C   C131      1.0  0.19076  0.93024  0.34371  1.0000
  C   C132      1.0  0.20914  0.96521  0.34146  1.0000
  O   O61       1.0  0.19077  0.87872  0.34506  1.0000
  H   H56       1.0  0.19587  0.97656  0.35551  1.0000
  C   C133      1.0  0.14125  0.74725  0.42182  1.0000
  C   C134      1.0  0.11034  0.74623  0.42481  1.0000
  H   H57       1.0  0.10271  0.75104  0.48448  1.0000
  N   N19       1.0  0.15982  0.75223  0.50148  1.0000
  O   O62       1.0  0.14434  0.72887  0.55593  1.0000
  O   O63       1.0  0.16691  0.77914  0.53940  1.0000
  C   C135      1.0  0.25783  0.89501  0.42119  1.0000
  C   C136      1.0  0.25880  0.86508  0.42375  1.0000
  H   H58       1.0  0.25406  0.85263  0.48338  1.0000
  N   N20       1.0  0.25291  0.90855  0.50103  1.0000
  O   O64       1.0  0.27630  0.91634  0.55535  1.0000
  O   O65       1.0  0.22602  0.88873  0.53899  1.0000
  C   C137      1.0  0.11007  0.86388  0.42182  1.0000
  C   C138      1.0  0.14002  0.89475  0.42405  1.0000
  H   H59       1.0  0.15250  0.90262  0.48361  1.0000
  N   N21       1.0  0.09656  0.84554  0.50183  1.0000
  O   O66       1.0  0.11639  0.83851  0.53991  1.0000
  C   C139      1.0  0.36483  0.75691  0.42190  1.0000
  C   C140      1.0  0.39571  0.75785  0.42454  1.0000
  H   H60       1.0  0.40349  0.75321  0.48419  1.0000
  N   N22       1.0  0.34638  0.75205  0.50170  1.0000
  O   O67       1.0  0.36196  0.77548  0.55591  1.0000
  O   O68       1.0  0.33931  0.72519  0.53983  1.0000
  C   C141      1.0  0.24820  0.60899  0.42166  1.0000
  C   C142      1.0  0.24721  0.63891  0.42429  1.0000
  H   H61       1.0  0.25199  0.65136  0.48393  1.0000
  N   N23       1.0  0.25314  0.59546  0.50148  1.0000
  O   O69       1.0  0.22976  0.58764  0.55584  1.0000
  O   O70       1.0  0.28003  0.61529  0.53942  1.0000
  C   C143      1.0  0.39595  0.64022  0.42156  1.0000
  C   C144      1.0  0.36605  0.60930  0.42426  1.0000
  H   H62       1.0  0.35360  0.60159  0.48389  1.0000
  N   N24       1.0  0.40949  0.65869  0.50138  1.0000
  O   O71       1.0  0.41734  0.64314  0.55569  1.0000
  O   O72       1.0  0.38966  0.66574  0.53938  1.0000
  C   C145      1.0  0.98499  0.24276  0.32706  1.0000
  C   C146      1.0  0.93051  0.18954  0.33304  1.0000
  C   C147      1.0  0.96529  0.20720  0.31742  1.0000
  C   C148      1.0  0.52099  0.26121  0.32714  1.0000
  C   C149      1.0  0.54070  0.29678  0.31768  1.0000
  C   C150      1.0  0.57546  0.31444  0.33353  1.0000
  O   O73       1.0  0.97781  0.18788  0.28838  1.0000
  O   O74       1.0  0.52819  0.31610  0.28857  1.0000
  H   H63       1.0  0.48319  0.19314  0.22465  1.0000
  H   H64       1.0  0.87218  0.18779  0.28350  1.0000
  H   H65       1.0  0.63382  0.31619  0.28449  1.0000
  C   C151      1.0  0.76222  0.24324  0.32713  1.0000
  C   C152      1.0  0.81546  0.24200  0.33308  1.0000
  C   C153      1.0  0.79779  0.25911  0.31750  1.0000
  C   C154      1.0  0.74374  0.26077  0.32707  1.0000
  C   C155      1.0  0.70817  0.24489  0.31744  1.0000
  C   C156      1.0  0.69051  0.26202  0.33289  1.0000
  O   O75       1.0  0.81712  0.29096  0.28860  1.0000
  O   O76       1.0  0.68884  0.21303  0.28868  1.0000
  H   H66       1.0  0.81192  0.29111  0.22483  1.0000
  H   H67       1.0  0.69401  0.21285  0.22490  1.0000
  H   H68       1.0  0.81716  0.18536  0.28374  1.0000
  H   H69       1.0  0.68878  0.31857  0.28287  1.0000
  C   C157      1.0  0.76179  0.01999  0.32729  1.0000
  C   C158      1.0  0.76301  0.07445  0.33311  1.0000
  C   C159      1.0  0.74590  0.03966  0.31763  1.0000
  C   C160      1.0  0.74426  0.48399  0.32726  1.0000
  C   C161      1.0  0.76016  0.46432  0.31750  1.0000
  C   C162      1.0  0.74304  0.42952  0.33266  1.0000
  O   O77       1.0  0.71404  0.02711  0.28878  1.0000
  O   O78       1.0  0.79201  0.47689  0.28857  1.0000
  H   H70       1.0  0.71388  0.52175  0.22503  1.0000
  H   H71       1.0  0.79216  0.98228  0.22484  1.0000
  H   H72       1.0  0.81956  0.13276  0.28328  1.0000
  H   H73       1.0  0.68647  0.37124  0.28244  1.0000
  C   C163      1.0  0.59272  0.24429  0.34612  1.0000
  C   C164      1.0  0.60592  0.24126  0.26368  1.0000
  C   C165      1.0  0.63705  0.24264  0.25856  1.0000
  C   C166      1.0  0.65533  0.24616  0.33806  1.0000
  H   H74       1.0  0.59523  0.24279  0.20522  1.0000
  N   N25       1.0  0.65200  0.24449  0.17442  1.0000
  O   O79       1.0  0.65698  0.26966  0.13060  1.0000
  O   O80       1.0  0.63452  0.21903  0.12817  1.0000
  C   C167      1.0  0.76065  0.34941  0.34482  1.0000
  C   C168      1.0  0.76359  0.36574  0.26264  1.0000
  C   C169      1.0  0.76238  0.39558  0.25775  1.0000
  C   C170      1.0  0.75894  0.41023  0.33754  1.0000
  H   H75       1.0  0.76213  0.35361  0.20408  1.0000
  N   N26       1.0  0.76058  0.40882  0.17377  1.0000
  O   O81       1.0  0.73538  0.38873  0.12988  1.0000
  O   O82       1.0  0.78603  0.41675  0.12748  1.0000
  C   C171      1.0  0.65562  0.41220  0.34497  1.0000
  C   C172      1.0  0.63922  0.39870  0.26293  1.0000
  C   C173      1.0  0.60940  0.36763  0.25837  1.0000
  C   C174      1.0  0.59480  0.34965  0.33835  1.0000
  H   H76       1.0  0.65136  0.40931  0.20433  1.0000
  N   N27       1.0  0.59615  0.35250  0.17448  1.0000
  O   O83       1.0  0.61623  0.34734  0.13071  1.0000
  O   O84       1.0  0.58819  0.36994  0.12798  1.0000
  C   C175      1.0  0.91326  0.25968  0.34578  1.0000
  C   C176      1.0  0.89987  0.26256  0.26345  1.0000
  C   C177      1.0  0.86875  0.26122  0.25854  1.0000
  C   C178      1.0  0.85065  0.25788  0.33829  1.0000
  H   H77       1.0  0.91047  0.26098  0.20490  1.0000
  N   N28       1.0  0.85372  0.25931  0.17446  1.0000
  O   O85       1.0  0.84865  0.23408  0.13080  1.0000
  O   O86       1.0  0.87119  0.28472  0.12800  1.0000
  C   C179      1.0  0.74535  0.15463  0.34550  1.0000
  C   C180      1.0  0.74226  0.13821  0.26335  1.0000
  C   C181      1.0  0.74360  0.10844  0.25843  1.0000
  C   C182      1.0  0.74713  0.09375  0.33806  1.0000
  H   H78       1.0  0.74381  0.15037  0.20477  1.0000
  N   N29       1.0  0.74544  0.09526  0.17439  1.0000
  O   O87       1.0  0.77063  0.11540  0.13053  1.0000
  O   O88       1.0  0.71999  0.08728  0.12810  1.0000
  C   C183      1.0  0.85043  0.09176  0.34537  1.0000
  C   C184      1.0  0.86669  0.10511  0.26310  1.0000
  C   C185      1.0  0.89650  0.13618  0.25818  1.0000
  C   C186      1.0  0.91118  0.15434  0.33787  1.0000
  H   H79       1.0  0.85456  0.09439  0.20456  1.0000
  N   N30       1.0  0.90970  0.15120  0.17417  1.0000
  O   O89       1.0  0.88958  0.15628  0.13034  1.0000
  O   O90       1.0  0.91765  0.13371  0.12785  1.0000
  C   C187      1.0  0.96624  0.25913  0.34132  1.0000
  C   C188      1.0  0.93127  0.24256  0.34393  1.0000
  C   C189      1.0  0.91364  0.20757  0.34207  1.0000
  H   H80       1.0  0.97762  0.28377  0.35533  1.0000
  O   O91       1.0  0.87975  0.19106  0.34606  1.0000
  C   C190      1.0  0.59232  0.29641  0.34285  1.0000
  C   C191      1.0  0.57470  0.26143  0.34452  1.0000
  C   C192      1.0  0.53974  0.24484  0.34132  1.0000
  O   O92       1.0  0.62621  0.31293  0.34700  1.0000
  H   H81       1.0  0.52835  0.22019  0.35523  1.0000
  C   C193      1.0  0.74586  0.20812  0.34132  1.0000
  C   C194      1.0  0.76245  0.18975  0.34414  1.0000
  C   C195      1.0  0.79743  0.20710  0.34224  1.0000
  H   H82       1.0  0.72122  0.19485  0.35518  1.0000
  O   O93       1.0  0.81396  0.18974  0.34628  1.0000
  C   C196      1.0  0.70855  0.29693  0.34169  1.0000
  C   C197      1.0  0.74352  0.31428  0.34372  1.0000
  C   C198      1.0  0.76010  0.29589  0.34118  1.0000
  O   O94       1.0  0.69203  0.31431  0.34546  1.0000
  H   H83       1.0  0.78475  0.30917  0.35508  1.0000
  C   C199      1.0  0.79691  0.03876  0.34141  1.0000
  C   C200      1.0  0.81528  0.07373  0.34408  1.0000
  C   C201      1.0  0.79791  0.09134  0.34205  1.0000
  H   H84       1.0  0.81018  0.02740  0.35553  1.0000
  O   O95       1.0  0.81527  0.12524  0.34587  1.0000
  C   C202      1.0  0.70812  0.41262  0.34142  1.0000
  C   C203      1.0  0.69076  0.43023  0.34371  1.0000
  C   C204      1.0  0.70914  0.46521  0.34146  1.0000
  O   O96       1.0  0.69077  0.37872  0.34506  1.0000
  H   H85       1.0  0.69586  0.47656  0.35551  1.0000
  C   C205      1.0  0.64125  0.24725  0.42182  1.0000
  C   C206      1.0  0.61034  0.24623  0.42481  1.0000
  H   H86       1.0  0.60271  0.25104  0.48448  1.0000
  N   N31       1.0  0.65982  0.25223  0.50148  1.0000
  O   O97       1.0  0.64434  0.22887  0.55593  1.0000
  O   O98       1.0  0.66691  0.27913  0.53940  1.0000
  C   C207      1.0  0.75782  0.39501  0.42119  1.0000
  C   C208      1.0  0.75880  0.36508  0.42375  1.0000
  H   H87       1.0  0.75406  0.35263  0.48338  1.0000
  N   N32       1.0  0.75291  0.40855  0.50103  1.0000
  O   O99       1.0  0.77630  0.41634  0.55535  1.0000
  O   O100      1.0  0.72602  0.38873  0.53899  1.0000
  C   C209      1.0  0.61007  0.36388  0.42182  1.0000
  C   C210      1.0  0.64003  0.39476  0.42405  1.0000
  H   H88       1.0  0.65250  0.40262  0.48361  1.0000
  N   N33       1.0  0.59656  0.34554  0.50183  1.0000
  O   O101      1.0  0.58880  0.36122  0.55596  1.0000
  O   O102      1.0  0.61639  0.33851  0.53991  1.0000
  C   C211      1.0  0.86483  0.25691  0.42190  1.0000
  C   C212      1.0  0.89571  0.25785  0.42454  1.0000
  H   H89       1.0  0.90349  0.25321  0.48419  1.0000
  N   N34       1.0  0.84638  0.25205  0.50170  1.0000
  O   O103      1.0  0.86196  0.27548  0.55591  1.0000
  O   O104      1.0  0.83931  0.22519  0.53983  1.0000
  C   C213      1.0  0.74820  0.10899  0.42166  1.0000
  C   C214      1.0  0.74721  0.13891  0.42429  1.0000
  H   H90       1.0  0.75199  0.15136  0.48393  1.0000
  N   N35       1.0  0.75314  0.09546  0.50148  1.0000
  O   O105      1.0  0.72976  0.08764  0.55584  1.0000
  O   O106      1.0  0.78003  0.11529  0.53942  1.0000
  C   C215      1.0  0.89595  0.14022  0.42156  1.0000
  C   C216      1.0  0.86605  0.10930  0.42426  1.0000
  H   H91       1.0  0.85360  0.10159  0.48389  1.0000
  N   N36       1.0  0.90949  0.15869  0.50138  1.0000
  O   O107      1.0  0.91734  0.14314  0.55569  1.0000
  O   O108      1.0  0.88966  0.16574  0.53938  1.0000
  C   C217      1.0  0.98499  0.74276  0.32706  1.0000
  C   C218      1.0  0.93051  0.68954  0.33304  1.0000
  C   C219      1.0  0.96529  0.70720  0.31742  1.0000
  C   C220      1.0  0.52099  0.76121  0.32714  1.0000
  C   C221      1.0  0.54070  0.79678  0.31768  1.0000
  C   C222      1.0  0.57546  0.81445  0.33353  1.0000
  O   O109      1.0  0.97781  0.68788  0.28838  1.0000
  O   O110      1.0  0.52819  0.81610  0.28857  1.0000
  H   H92       1.0  0.48319  0.69314  0.22465  1.0000
  H   H93       1.0  0.87218  0.68779  0.28351  1.0000
  H   H94       1.0  0.63382  0.81618  0.28449  1.0000
  C   C223      1.0  0.76222  0.74324  0.32713  1.0000
  C   C224      1.0  0.81546  0.74200  0.33308  1.0000
  C   C225      1.0  0.79779  0.75911  0.31750  1.0000
  C   C226      1.0  0.74374  0.76077  0.32707  1.0000
  C   C227      1.0  0.70817  0.74489  0.31744  1.0000
  C   C228      1.0  0.69051  0.76202  0.33289  1.0000
  O   O111      1.0  0.81712  0.79096  0.28860  1.0000
  O   O112      1.0  0.68884  0.71303  0.28868  1.0000
  H   H95       1.0  0.81192  0.79111  0.22483  1.0000
  H   H96       1.0  0.69401  0.71285  0.22490  1.0000
  H   H97       1.0  0.81716  0.68536  0.28374  1.0000
  H   H98       1.0  0.68878  0.81857  0.28287  1.0000
  C   C229      1.0  0.76179  0.51999  0.32729  1.0000
  C   C230      1.0  0.76301  0.57445  0.33311  1.0000
  C   C231      1.0  0.74590  0.53966  0.31763  1.0000
  C   C232      1.0  0.74426  0.98399  0.32726  1.0000
  C   C233      1.0  0.76016  0.96432  0.31750  1.0000
  C   C234      1.0  0.74304  0.92952  0.33266  1.0000
  O   O113      1.0  0.71404  0.52711  0.28878  1.0000
  O   O114      1.0  0.79201  0.97689  0.28857  1.0000
  H   H99       1.0  0.71388  0.02174  0.22503  1.0000
  H   H100      1.0  0.79216  0.48228  0.22484  1.0000
  H   H101      1.0  0.81956  0.63277  0.28328  1.0000
  H   H102      1.0  0.68647  0.87124  0.28244  1.0000
  C   C235      1.0  0.59272  0.74429  0.34612  1.0000
  C   C236      1.0  0.60592  0.74126  0.26368  1.0000
  C   C237      1.0  0.63705  0.74264  0.25856  1.0000
  C   C238      1.0  0.65533  0.74616  0.33806  1.0000
  H   H103      1.0  0.59523  0.74279  0.20522  1.0000
  N   N37       1.0  0.65200  0.74449  0.17442  1.0000
  O   O115      1.0  0.65698  0.76967  0.13060  1.0000
  O   O116      1.0  0.63452  0.71903  0.12817  1.0000
  C   C239      1.0  0.76065  0.84941  0.34482  1.0000
  C   C240      1.0  0.76359  0.86574  0.26264  1.0000
  C   C241      1.0  0.76238  0.89558  0.25775  1.0000
  C   C242      1.0  0.75894  0.91023  0.33754  1.0000
  H   H104      1.0  0.76213  0.85361  0.20408  1.0000
  N   N38       1.0  0.76058  0.90882  0.17377  1.0000
  O   O117      1.0  0.73538  0.88873  0.12988  1.0000
  O   O118      1.0  0.78603  0.91675  0.12748  1.0000
  C   C243      1.0  0.65562  0.91220  0.34497  1.0000
  C   C244      1.0  0.63922  0.89870  0.26293  1.0000
  C   C245      1.0  0.60940  0.86763  0.25837  1.0000
  C   C246      1.0  0.59480  0.84965  0.33835  1.0000
  H   H105      1.0  0.65136  0.90931  0.20433  1.0000
  N   N39       1.0  0.59615  0.85250  0.17448  1.0000
  O   O119      1.0  0.61623  0.84734  0.13071  1.0000
  O   O120      1.0  0.58819  0.86994  0.12798  1.0000
  C   C247      1.0  0.91326  0.75968  0.34578  1.0000
  C   C248      1.0  0.89987  0.76257  0.26345  1.0000
  C   C249      1.0  0.86875  0.76122  0.25854  1.0000
  C   C250      1.0  0.85065  0.75788  0.33829  1.0000
  H   H106      1.0  0.91047  0.76098  0.20490  1.0000
  N   N40       1.0  0.85372  0.75931  0.17446  1.0000
  O   O121      1.0  0.84865  0.73408  0.13080  1.0000
  O   O122      1.0  0.87119  0.78472  0.12800  1.0000
  C   C251      1.0  0.74535  0.65463  0.34550  1.0000
  C   C252      1.0  0.74226  0.63821  0.26335  1.0000
  C   C253      1.0  0.74360  0.60844  0.25843  1.0000
  C   C254      1.0  0.74713  0.59375  0.33806  1.0000
  H   H107      1.0  0.74381  0.65037  0.20477  1.0000
  N   N41       1.0  0.74544  0.59526  0.17439  1.0000
  O   O123      1.0  0.77063  0.61541  0.13053  1.0000
  O   O124      1.0  0.71999  0.58728  0.12810  1.0000
  C   C255      1.0  0.85043  0.59176  0.34537  1.0000
  C   C256      1.0  0.86669  0.60511  0.26310  1.0000
  C   C257      1.0  0.89650  0.63618  0.25818  1.0000
  C   C258      1.0  0.91118  0.65434  0.33787  1.0000
  H   H108      1.0  0.85456  0.59439  0.20456  1.0000
  N   N42       1.0  0.90970  0.65120  0.17417  1.0000
  O   O125      1.0  0.88958  0.65628  0.13034  1.0000
  O   O126      1.0  0.91765  0.63371  0.12785  1.0000
  C   C259      1.0  0.96624  0.75913  0.34132  1.0000
  C   C260      1.0  0.93127  0.74256  0.34393  1.0000
  C   C261      1.0  0.91364  0.70757  0.34207  1.0000
  H   H109      1.0  0.97762  0.78377  0.35533  1.0000
  O   O127      1.0  0.87975  0.69106  0.34606  1.0000
  C   C262      1.0  0.59232  0.79641  0.34285  1.0000
  C   C263      1.0  0.57470  0.76143  0.34452  1.0000
  C   C264      1.0  0.53974  0.74484  0.34132  1.0000
  O   O128      1.0  0.62621  0.81293  0.34700  1.0000
  H   H110      1.0  0.52835  0.72019  0.35523  1.0000
  C   C265      1.0  0.74586  0.70812  0.34132  1.0000
  C   C266      1.0  0.76245  0.68975  0.34414  1.0000
  C   C267      1.0  0.79743  0.70710  0.34224  1.0000
  H   H111      1.0  0.72122  0.69485  0.35518  1.0000
  O   O129      1.0  0.81396  0.68974  0.34628  1.0000
  C   C268      1.0  0.70854  0.79693  0.34169  1.0000
  C   C269      1.0  0.74352  0.81428  0.34372  1.0000
  C   C270      1.0  0.76010  0.79589  0.34118  1.0000
  O   O130      1.0  0.69203  0.81431  0.34546  1.0000
  H   H112      1.0  0.78475  0.80917  0.35508  1.0000
  C   C271      1.0  0.79691  0.53876  0.34141  1.0000
  C   C272      1.0  0.81528  0.57373  0.34408  1.0000
  C   C273      1.0  0.79791  0.59134  0.34205  1.0000
  H   H113      1.0  0.81018  0.52741  0.35553  1.0000
  O   O131      1.0  0.81527  0.62524  0.34587  1.0000
  C   C274      1.0  0.70813  0.91262  0.34142  1.0000
  C   C275      1.0  0.69076  0.93024  0.34371  1.0000
  C   C276      1.0  0.70914  0.96521  0.34146  1.0000
  O   O132      1.0  0.69077  0.87872  0.34506  1.0000
  H   H114      1.0  0.69586  0.97656  0.35551  1.0000
  C   C277      1.0  0.64125  0.74725  0.42182  1.0000
  C   C278      1.0  0.61034  0.74623  0.42481  1.0000
  H   H115      1.0  0.60271  0.75104  0.48448  1.0000
  N   N43       1.0  0.65982  0.75223  0.50148  1.0000
  O   O133      1.0  0.64434  0.72887  0.55593  1.0000
  O   O134      1.0  0.66691  0.77914  0.53940  1.0000
  C   C279      1.0  0.75782  0.89501  0.42119  1.0000
  C   C280      1.0  0.75880  0.86508  0.42375  1.0000
  H   H116      1.0  0.75406  0.85263  0.48338  1.0000
  N   N44       1.0  0.75291  0.90855  0.50103  1.0000
  O   O135      1.0  0.77630  0.91634  0.55535  1.0000
  O   O136      1.0  0.72602  0.88873  0.53899  1.0000
  C   C281      1.0  0.61007  0.86388  0.42182  1.0000
  C   C282      1.0  0.64002  0.89475  0.42405  1.0000
  H   H117      1.0  0.65250  0.90262  0.48361  1.0000
  N   N45       1.0  0.59656  0.84554  0.50183  1.0000
  O   O137      1.0  0.58880  0.86122  0.55596  1.0000
  O   O138      1.0  0.61639  0.83851  0.53991  1.0000
  C   C283      1.0  0.86483  0.75691  0.42190  1.0000
  C   C284      1.0  0.89571  0.75785  0.42454  1.0000
  H   H118      1.0  0.90349  0.75321  0.48419  1.0000
  N   N46       1.0  0.84638  0.75205  0.50170  1.0000
  O   O139      1.0  0.86196  0.77548  0.55591  1.0000
  O   O140      1.0  0.83931  0.72519  0.53983  1.0000
  C   C285      1.0  0.74820  0.60899  0.42166  1.0000
  C   C286      1.0  0.74721  0.63891  0.42429  1.0000
  H   H119      1.0  0.75199  0.65136  0.48393  1.0000
  N   N47       1.0  0.75314  0.59546  0.50148  1.0000
  O   O141      1.0  0.72976  0.58764  0.55584  1.0000
  O   O142      1.0  0.78003  0.61529  0.53942  1.0000
  C   C287      1.0  0.89595  0.64022  0.42156  1.0000
  C   C288      1.0  0.86605  0.60930  0.42426  1.0000
  H   H120      1.0  0.85360  0.60159  0.48389  1.0000
  N   N48       1.0  0.90949  0.65869  0.50138  1.0000
  O   O143      1.0  0.91734  0.64314  0.55569  1.0000
  O   O144      1.0  0.88966  0.66574  0.53938  1.0000
