data_image0
_chemical_formula_structural       HC10HC8H4CNCNCNC18H12CNCNCNC18H12C8HC5HCH4CNCNCNC18H12CNCNCNC18H12
_chemical_formula_sum              "H60 C116 N12"
_cell_length_a       25.6616
_cell_length_b       29.4341
_cell_length_c       14.9777
_cell_angle_alpha    90.0012
_cell_angle_beta     89.9994
_cell_angle_gamma    90.2421

_space_group_name_H-M_alt    "P 1"
_space_group_IT_number       1

loop_
  _space_group_symop_operation_xyz
  'x, y, z'

loop_
  _atom_site_type_symbol
  _atom_site_label
  _atom_site_symmetry_multiplicity
  _atom_site_fract_x
  _atom_site_fract_y
  _atom_site_fract_z
  _atom_site_occupancy
  H   H1        1.0  0.19550  0.00171  0.30596  1.0000
  C   C1        1.0  0.04812  0.00079  0.33764  1.0000
  C   C2        1.0  0.15702  0.00143  0.32354  1.0000
  C   C3        1.0  0.99211  0.50044  0.33766  1.0000
  C   C4        1.0  0.96410  0.45853  0.34033  1.0000
  C   C5        1.0  0.90874  0.45725  0.32996  1.0000
  C   C6        1.0  0.88320  0.49980  0.32363  1.0000
  C   C7        1.0  0.90857  0.04266  0.32907  1.0000
  C   C8        1.0  0.96389  0.04204  0.34003  1.0000
  C   C9        1.0  0.99313  0.42001  0.36634  1.0000
  C   C10       1.0  0.99264  0.08091  0.36614  1.0000
  H   H2        1.0  0.84473  0.99954  0.30607  1.0000
  C   C11       1.0  0.04812  0.50079  0.33764  1.0000
  C   C12       1.0  0.07634  0.45919  0.33996  1.0000
  C   C13       1.0  0.13166  0.45857  0.32897  1.0000
  C   C14       1.0  0.15702  0.50143  0.32354  1.0000
  C   C15       1.0  0.13149  0.04398  0.32987  1.0000
  C   C16       1.0  0.07613  0.04271  0.34035  1.0000
  C   C17       1.0  0.04759  0.42032  0.36604  1.0000
  C   C18       1.0  0.04710  0.08123  0.36633  1.0000
  H   H3        1.0  0.06581  0.39150  0.38725  1.0000
  H   H4        1.0  0.97515  0.39097  0.38766  1.0000
  H   H5        1.0  0.06509  0.11027  0.38764  1.0000
  H   H6        1.0  0.97443  0.10974  0.38732  1.0000
  C   C19       1.0  0.24752  0.29241  0.31542  1.0000
  N   N1        1.0  0.29899  0.29141  0.33654  1.0000
  C   C20       1.0  0.32593  0.25224  0.34753  1.0000
  N   N2        1.0  0.29893  0.21269  0.33924  1.0000
  C   C21       1.0  0.24746  0.21113  0.31769  1.0000
  N   N3        1.0  0.22290  0.25162  0.30492  1.0000
  C   C22       1.0  0.38069  0.25270  0.36203  1.0000
  C   C23       1.0  0.41103  0.29128  0.33925  1.0000
  C   C24       1.0  0.46567  0.29053  0.34542  1.0000
  C   C25       1.0  0.49225  0.25143  0.37583  1.0000
  C   C26       1.0  0.46176  0.21334  0.40120  1.0000
  C   C27       1.0  0.40711  0.21383  0.39387  1.0000
  C   C28       1.0  0.22068  0.33426  0.31054  1.0000
  C   C29       1.0  0.24308  0.37484  0.34426  1.0000
  C   C30       1.0  0.21416  0.41526  0.34957  1.0000
  C   C31       1.0  0.16193  0.41801  0.31869  1.0000
  C   C32       1.0  0.14207  0.37832  0.27647  1.0000
  C   C33       1.0  0.16968  0.33710  0.27539  1.0000
  C   C34       1.0  0.22046  0.16912  0.31359  1.0000
  C   C35       1.0  0.16963  0.16586  0.27767  1.0000
  C   C36       1.0  0.14197  0.12445  0.27844  1.0000
  C   C37       1.0  0.16169  0.08487  0.32065  1.0000
  C   C38       1.0  0.21375  0.08802  0.35243  1.0000
  C   C39       1.0  0.24259  0.12875  0.34803  1.0000
  H   H7        1.0  0.23104  0.44198  0.38247  1.0000
  H   H8        1.0  0.27947  0.37475  0.37222  1.0000
  H   H9        1.0  0.10659  0.37879  0.24546  1.0000
  H   H10       1.0  0.15232  0.30932  0.24677  1.0000
  H   H11       1.0  0.15242  0.19345  0.24860  1.0000
  H   H12       1.0  0.10668  0.12371  0.24684  1.0000
  H   H13       1.0  0.27893  0.12910  0.37617  1.0000
  H   H14       1.0  0.23047  0.06139  0.38543  1.0000
  H   H15       1.0  0.38687  0.18517  0.41147  1.0000
  H   H16       1.0  0.47914  0.18446  0.42455  1.0000
  H   H17       1.0  0.48593  0.31840  0.32353  1.0000
  H   H18       1.0  0.39393  0.31978  0.31358  1.0000
  C   C40       1.0  0.79270  0.20883  0.31550  1.0000
  N   N4        1.0  0.74123  0.20983  0.33660  1.0000
  C   C41       1.0  0.71428  0.24900  0.34759  1.0000
  N   N5        1.0  0.74129  0.28855  0.33929  1.0000
  C   C42       1.0  0.79276  0.29011  0.31775  1.0000
  N   N6        1.0  0.81732  0.24962  0.30500  1.0000
  C   C43       1.0  0.65951  0.24855  0.36199  1.0000
  C   C44       1.0  0.62918  0.20998  0.33916  1.0000
  C   C45       1.0  0.57453  0.21072  0.34536  1.0000
  C   C46       1.0  0.54796  0.24981  0.37581  1.0000
  C   C47       1.0  0.57844  0.28791  0.40114  1.0000
  C   C48       1.0  0.63309  0.28742  0.39381  1.0000
  C   C49       1.0  0.81954  0.16698  0.31064  1.0000
  C   C50       1.0  0.79717  0.12641  0.34448  1.0000
  C   C51       1.0  0.82607  0.08597  0.34968  1.0000
  C   C52       1.0  0.87830  0.08323  0.31880  1.0000
  C   C53       1.0  0.89816  0.12292  0.27659  1.0000
  C   C54       1.0  0.87054  0.16413  0.27548  1.0000
  C   C55       1.0  0.81977  0.33211  0.31369  1.0000
  C   C56       1.0  0.87060  0.33537  0.27781  1.0000
  C   C57       1.0  0.89824  0.37678  0.27852  1.0000
  C   C58       1.0  0.87854  0.41636  0.32075  1.0000
  C   C59       1.0  0.82649  0.41320  0.35260  1.0000
  C   C60       1.0  0.79763  0.37248  0.34814  1.0000
  H   H19       1.0  0.80918  0.05925  0.38254  1.0000
  H   H20       1.0  0.76073  0.12649  0.37224  1.0000
  H   H21       1.0  0.93363  0.12245  0.24559  1.0000
  H   H22       1.0  0.88790  0.19192  0.24688  1.0000
  H   H23       1.0  0.88778  0.30778  0.24864  1.0000
  H   H24       1.0  0.93353  0.37753  0.24688  1.0000
  H   H25       1.0  0.76127  0.37213  0.37621  1.0000
  H   H26       1.0  0.80974  0.43986  0.38549  1.0000
  H   H27       1.0  0.65333  0.31608  0.41141  1.0000
  H   H28       1.0  0.56106  0.31679  0.42449  1.0000
  H   H29       1.0  0.55428  0.18281  0.32364  1.0000
  H   H30       1.0  0.64628  0.18143  0.31371  1.0000
  C   C61       1.0  0.99211  0.00044  0.33766  1.0000
  C   C62       1.0  0.96410  0.95853  0.34033  1.0000
  C   C63       1.0  0.90874  0.95725  0.32996  1.0000
  C   C64       1.0  0.88320  0.99980  0.32363  1.0000
  C   C65       1.0  0.90857  0.54266  0.32907  1.0000
  C   C66       1.0  0.96389  0.54204  0.34003  1.0000
  C   C67       1.0  0.99313  0.92001  0.36634  1.0000
  C   C68       1.0  0.99264  0.58091  0.36614  1.0000
  H   H31       1.0  0.84473  0.49954  0.30607  1.0000
  C   C69       1.0  0.07634  0.95920  0.33996  1.0000
  C   C70       1.0  0.13166  0.95857  0.32897  1.0000
  C   C71       1.0  0.13149  0.54398  0.32987  1.0000
  C   C72       1.0  0.07613  0.54271  0.34035  1.0000
  C   C73       1.0  0.04759  0.92032  0.36604  1.0000
  H   H32       1.0  0.19550  0.50171  0.30596  1.0000
  C   C74       1.0  0.04711  0.58123  0.36633  1.0000
  H   H33       1.0  0.06581  0.89150  0.38725  1.0000
  H   H34       1.0  0.97515  0.89097  0.38766  1.0000
  H   H35       1.0  0.06509  0.61027  0.38764  1.0000
  H   H36       1.0  0.97443  0.60973  0.38732  1.0000
  C   C75       1.0  0.24752  0.79241  0.31542  1.0000
  N   N7        1.0  0.29899  0.79141  0.33654  1.0000
  C   C76       1.0  0.32593  0.75224  0.34753  1.0000
  N   N8        1.0  0.29893  0.71269  0.33924  1.0000
  C   C77       1.0  0.24746  0.71112  0.31769  1.0000
  N   N9        1.0  0.22290  0.75162  0.30492  1.0000
  C   C78       1.0  0.38069  0.75270  0.36203  1.0000
  C   C79       1.0  0.41103  0.79128  0.33925  1.0000
  C   C80       1.0  0.46567  0.79053  0.34542  1.0000
  C   C81       1.0  0.49225  0.75143  0.37583  1.0000
  C   C82       1.0  0.46177  0.71334  0.40120  1.0000
  C   C83       1.0  0.40712  0.71383  0.39387  1.0000
  C   C84       1.0  0.22068  0.83425  0.31054  1.0000
  C   C85       1.0  0.24308  0.87484  0.34426  1.0000
  C   C86       1.0  0.21416  0.91526  0.34957  1.0000
  C   C87       1.0  0.16193  0.91801  0.31869  1.0000
  C   C88       1.0  0.14207  0.87832  0.27647  1.0000
  C   C89       1.0  0.16968  0.83710  0.27539  1.0000
  C   C90       1.0  0.22046  0.66912  0.31359  1.0000
  C   C91       1.0  0.16963  0.66586  0.27767  1.0000
  C   C92       1.0  0.14197  0.62445  0.27844  1.0000
  C   C93       1.0  0.16169  0.58487  0.32065  1.0000
  C   C94       1.0  0.21375  0.58802  0.35243  1.0000
  C   C95       1.0  0.24259  0.62875  0.34803  1.0000
  H   H37       1.0  0.23104  0.94197  0.38247  1.0000
  H   H38       1.0  0.27947  0.87475  0.37222  1.0000
  H   H39       1.0  0.10659  0.87879  0.24546  1.0000
  H   H40       1.0  0.15232  0.80932  0.24677  1.0000
  H   H41       1.0  0.15242  0.69345  0.24860  1.0000
  H   H42       1.0  0.10668  0.62371  0.24684  1.0000
  H   H43       1.0  0.27893  0.62910  0.37617  1.0000
  H   H44       1.0  0.23047  0.56139  0.38543  1.0000
  H   H45       1.0  0.38687  0.68517  0.41147  1.0000
  H   H46       1.0  0.47914  0.68446  0.42455  1.0000
  H   H47       1.0  0.48593  0.81840  0.32353  1.0000
  H   H48       1.0  0.39393  0.81978  0.31358  1.0000
  C   C96       1.0  0.79270  0.70883  0.31550  1.0000
  N   N10       1.0  0.74123  0.70983  0.33660  1.0000
  C   C97       1.0  0.71428  0.74900  0.34759  1.0000
  N   N11       1.0  0.74128  0.78855  0.33929  1.0000
  C   C98       1.0  0.79276  0.79011  0.31775  1.0000
  N   N12       1.0  0.81732  0.74962  0.30500  1.0000
  C   C99       1.0  0.65951  0.74855  0.36199  1.0000
  C   C100      1.0  0.62918  0.70998  0.33916  1.0000
  C   C101      1.0  0.57453  0.71072  0.34536  1.0000
  C   C102      1.0  0.54796  0.74981  0.37581  1.0000
  C   C103      1.0  0.57844  0.78791  0.40114  1.0000
  C   C104      1.0  0.63309  0.78742  0.39381  1.0000
  C   C105      1.0  0.81954  0.66698  0.31064  1.0000
  C   C106      1.0  0.79717  0.62641  0.34448  1.0000
  C   C107      1.0  0.82607  0.58597  0.34968  1.0000
  C   C108      1.0  0.87830  0.58323  0.31880  1.0000
  C   C109      1.0  0.89816  0.62292  0.27659  1.0000
  C   C110      1.0  0.87054  0.66413  0.27548  1.0000
  C   C111      1.0  0.81977  0.83211  0.31369  1.0000
  C   C112      1.0  0.87060  0.83537  0.27781  1.0000
  C   C113      1.0  0.89824  0.87678  0.27852  1.0000
  C   C114      1.0  0.87854  0.91636  0.32075  1.0000
  C   C115      1.0  0.82649  0.91320  0.35260  1.0000
  C   C116      1.0  0.79763  0.87248  0.34814  1.0000
  H   H49       1.0  0.80917  0.55925  0.38254  1.0000
  H   H50       1.0  0.76073  0.62649  0.37224  1.0000
  H   H51       1.0  0.93363  0.62245  0.24559  1.0000
  H   H52       1.0  0.88790  0.69191  0.24688  1.0000
  H   H53       1.0  0.88778  0.80778  0.24864  1.0000
  H   H54       1.0  0.93353  0.87753  0.24688  1.0000
  H   H55       1.0  0.76127  0.87213  0.37621  1.0000
  H   H56       1.0  0.80974  0.93985  0.38549  1.0000
  H   H57       1.0  0.65333  0.81608  0.41141  1.0000
  H   H58       1.0  0.56106  0.81679  0.42449  1.0000
  H   H59       1.0  0.55428  0.68281  0.32364  1.0000
  H   H60       1.0  0.64628  0.68143  0.31371  1.0000
