data_image0
_chemical_formula_structural       C2OHCHC3OHCHCNCN2COHCOH3COHOHC3OH2CHN4C2OHC3OC4O2C3OHOHCHOC3O2H2CHC3O2H2CHCN3C2NCN3CNCNCN2CNCNCN4HC3O2H2CH3CHC3OHOHCHC3OHOHCH
_chemical_formula_sum              "C60 O24 H36 N24"
_cell_length_a       33.8825
_cell_length_b       33.8824
_cell_length_c       14.4094
_cell_angle_alpha    90
_cell_angle_beta     90
_cell_angle_gamma    120

_space_group_name_H-M_alt    "P 1"
_space_group_IT_number       1

loop_
  _space_group_symop_operation_xyz
  'x, y, z'

loop_
  _atom_site_type_symbol
  _atom_site_label
  _atom_site_symmetry_multiplicity
  _atom_site_fract_x
  _atom_site_fract_y
  _atom_site_fract_z
  _atom_site_occupancy
  C   C1        1.0  0.19519  0.09402  0.36979  1.0000
  C   C2        1.0  0.21799  0.11255  0.28472  1.0000
  O   O1        1.0  0.19465  0.10039  0.20293  1.0000
  H   H1        1.0  0.19655  0.07412  0.17952  1.0000
  C   C3        1.0  0.14950  0.06060  0.37109  1.0000
  H   H2        1.0  0.14185  0.02841  0.37963  1.0000
  C   C4        1.0  0.94987  0.11147  0.36972  1.0000
  C   C5        1.0  0.93147  0.11599  0.28470  1.0000
  C   C6        1.0  0.89938  0.13116  0.28348  1.0000
  O   O2        1.0  0.94375  0.10504  0.20279  1.0000
  H   H3        1.0  0.97003  0.13328  0.17968  1.0000
  C   C7        1.0  0.98329  0.09920  0.37086  1.0000
  H   H4        1.0  0.01551  0.12378  0.37875  1.0000
  C   C8        1.0  0.07254  0.04389  0.36464  1.0000
  N   N1        1.0  0.04641  0.06397  0.36460  1.0000
  C   C9        1.0  0.99999  0.03893  0.36479  1.0000
  N   N2        1.0  0.97320  0.05728  0.36429  1.0000
  N   N3        1.0  0.11767  0.07068  0.36402  1.0000
  C   C10       1.0  0.22070  0.10777  0.45330  1.0000
  O   O3        1.0  0.20040  0.08979  0.53640  1.0000
  H   H5        1.0  0.18813  0.10892  0.55883  1.0000
  C   C11       1.0  0.93598  0.12295  0.45337  1.0000
  O   O4        1.0  0.95385  0.12042  0.53643  1.0000
  H   H6        1.0  0.86533  0.12075  0.55726  1.0000
  H   H7        1.0  0.93469  0.08895  0.55853  1.0000
  H   H8        1.0  0.81997  0.13084  0.36330  1.0000
  C   C12       1.0  0.26525  0.14462  0.28332  1.0000
  O   O5        1.0  0.28556  0.16265  0.20027  1.0000
  H   H9        1.0  0.29758  0.14336  0.17749  1.0000
  O   O6        1.0  0.88146  0.13367  0.20047  1.0000
  H   H10       1.0  0.90081  0.16504  0.17802  1.0000
  C   C13       1.0  0.55315  0.15760  0.37525  1.0000
  C   C14       1.0  0.58072  0.16552  0.29567  1.0000
  C   C15       1.0  0.62662  0.17630  0.30491  1.0000
  O   O7        1.0  0.56502  0.16752  0.20969  1.0000
  H   H11       1.0  0.54975  0.13620  0.18552  1.0000
  H   H12       1.0  0.65133  0.16088  0.20306  1.0000
  C   C16       1.0  0.51206  0.15694  0.36812  1.0000
  H   H13       1.0  0.48265  0.12776  0.36679  1.0000
  N   N4        1.0  0.43882  0.18618  0.36791  1.0000
  N   N5        1.0  0.36808  0.18077  0.36805  1.0000
  N   N6        1.0  0.79018  0.19164  0.36714  1.0000
  N   N7        1.0  0.71919  0.18906  0.36710  1.0000
  C   C17       1.0  0.29076  0.15830  0.36681  1.0000
  C   C18       1.0  0.26794  0.13989  0.45191  1.0000
  O   O8        1.0  0.29129  0.15206  0.53370  1.0000
  H   H14       1.0  0.28932  0.17828  0.55716  1.0000
  C   C19       1.0  0.33656  0.19142  0.36557  1.0000
  C   C20       1.0  0.88556  0.14272  0.36712  1.0000
  C   C21       1.0  0.90385  0.13806  0.45217  1.0000
  O   O9        1.0  0.89156  0.14901  0.53408  1.0000
  C   C22       1.0  0.85244  0.15539  0.36607  1.0000
  C   C23       1.0  0.64581  0.17936  0.39393  1.0000
  C   C24       1.0  0.61768  0.16991  0.47324  1.0000
  C   C25       1.0  0.57171  0.15884  0.46400  1.0000
  O   O10       1.0  0.54638  0.15194  0.54225  1.0000
  O   O11       1.0  0.63500  0.17313  0.56022  1.0000
  C   C26       1.0  0.93241  0.84868  0.37003  1.0000
  C   C27       1.0  0.92837  0.82600  0.28491  1.0000
  C   C28       1.0  0.91319  0.77874  0.28332  1.0000
  O   O12       1.0  0.91109  0.75855  0.20022  1.0000
  H   H15       1.0  0.87982  0.74654  0.17716  1.0000
  O   O13       1.0  0.93975  0.84945  0.20324  1.0000
  H   H16       1.0  0.91164  0.84761  0.17959  1.0000
  C   C29       1.0  0.94471  0.89438  0.37154  1.0000
  H   H17       1.0  0.92022  0.90204  0.38066  1.0000
  O   O14       1.0  0.65325  0.18890  0.22740  1.0000
  C   C30       1.0  0.88623  0.40580  0.37529  1.0000
  C   C31       1.0  0.87815  0.42536  0.29577  1.0000
  C   C32       1.0  0.86735  0.46046  0.30511  1.0000
  O   O15       1.0  0.87593  0.40756  0.20982  1.0000
  O   O16       1.0  0.85461  0.47444  0.22774  1.0000
  H   H18       1.0  0.90724  0.42343  0.18549  1.0000
  H   H19       1.0  0.88260  0.50045  0.20306  1.0000
  C   C33       1.0  0.88689  0.36536  0.36827  1.0000
  H   H20       1.0  0.91607  0.36515  0.36635  1.0000
  C   C34       1.0  0.63808  0.49064  0.37533  1.0000
  C   C35       1.0  0.61841  0.46305  0.29579  1.0000
  C   C36       1.0  0.58331  0.41714  0.30513  1.0000
  O   O17       1.0  0.63609  0.47867  0.20977  1.0000
  O   O18       1.0  0.56922  0.39045  0.22771  1.0000
  H   H21       1.0  0.62013  0.49405  0.18563  1.0000
  H   H22       1.0  0.54318  0.39246  0.20328  1.0000
  C   C37       1.0  0.67849  0.53175  0.36811  1.0000
  H   H23       1.0  0.67870  0.56115  0.36701  1.0000
  C   C38       1.0  0.00494  0.97134  0.36465  1.0000
  N   N8        1.0  0.05115  0.99746  0.36445  1.0000
  N   N9        1.0  0.97990  0.99272  0.36463  1.0000
  N   N10       1.0  0.98659  0.92620  0.36397  1.0000
  C   C39       1.0  0.41328  0.20707  0.36739  1.0000
  C   C40       1.0  0.48518  0.21114  0.36792  1.0000
  N   N11       1.0  0.50543  0.25704  0.36854  1.0000
  C   C41       1.0  0.48137  0.27922  0.36921  1.0000
  N   N12       1.0  0.43507  0.25368  0.36751  1.0000
  N   N13       1.0  0.50350  0.32467  0.36748  1.0000
  N   N14       1.0  0.51392  0.19566  0.36946  1.0000
  C   C42       1.0  0.83679  0.21646  0.36708  1.0000
  N   N15       1.0  0.85767  0.26289  0.36771  1.0000
  C   C43       1.0  0.83270  0.28428  0.36775  1.0000
  N   N16       1.0  0.78680  0.25862  0.36832  1.0000
  C   C44       1.0  0.76464  0.21239  0.36887  1.0000
  N   N17       1.0  0.86310  0.19757  0.36773  1.0000
  N   N18       1.0  0.84818  0.32850  0.36955  1.0000
  C   C45       1.0  0.82739  0.63058  0.36755  1.0000
  N   N19       1.0  0.78096  0.60502  0.36810  1.0000
  C   C46       1.0  0.75958  0.55867  0.36806  1.0000
  N   N20       1.0  0.78524  0.53843  0.36864  1.0000
  C   C47       1.0  0.83147  0.56251  0.36931  1.0000
  N   N21       1.0  0.85222  0.60880  0.36764  1.0000
  N   N22       1.0  0.84628  0.67578  0.36829  1.0000
  N   N23       1.0  0.85480  0.54038  0.36749  1.0000
  N   N24       1.0  0.71536  0.52991  0.36948  1.0000
  H   H24       1.0  0.34448  0.22387  0.36192  1.0000
  C   C48       1.0  0.90111  0.75310  0.36665  1.0000
  C   C49       1.0  0.90532  0.77581  0.45181  1.0000
  C   C50       1.0  0.92045  0.82305  0.45340  1.0000
  O   O19       1.0  0.89396  0.75235  0.53347  1.0000
  O   O20       1.0  0.92258  0.84323  0.53655  1.0000
  H   H25       1.0  0.92209  0.75426  0.55717  1.0000
  H   H26       1.0  0.95394  0.85549  0.55926  1.0000
  C   C51       1.0  0.88844  0.70731  0.36523  1.0000
  H   H27       1.0  0.91295  0.69938  0.36087  1.0000
  H   H28       1.0  0.55222  0.18213  0.56245  1.0000
  H   H29       1.0  0.64397  0.20385  0.58308  1.0000
  C   C52       1.0  0.69275  0.20161  0.40521  1.0000
  H   H30       1.0  0.70642  0.23073  0.44080  1.0000
  C   C53       1.0  0.86449  0.47670  0.39415  1.0000
  C   C54       1.0  0.87411  0.45811  0.47339  1.0000
  C   C55       1.0  0.88517  0.42319  0.46406  1.0000
  O   O21       1.0  0.89223  0.40486  0.54227  1.0000
  H   H31       1.0  0.86208  0.38051  0.56270  1.0000
  O   O22       1.0  0.87108  0.47230  0.56039  1.0000
  H   H32       1.0  0.84040  0.45060  0.58350  1.0000
  C   C56       1.0  0.84227  0.50140  0.40563  1.0000
  H   H33       1.0  0.81314  0.48593  0.44119  1.0000
  C   C57       1.0  0.56722  0.39803  0.39424  1.0000
  C   C58       1.0  0.58587  0.42620  0.47349  1.0000
  C   C59       1.0  0.62077  0.47217  0.46414  1.0000
  O   O23       1.0  0.63920  0.49755  0.54232  1.0000
  H   H34       1.0  0.66355  0.49173  0.56258  1.0000
  O   O24       1.0  0.57176  0.40892  0.56048  1.0000
  H   H35       1.0  0.59350  0.39995  0.58339  1.0000
  C   C60       1.0  0.54251  0.35109  0.40550  1.0000
  H   H36       1.0  0.55800  0.33741  0.44093  1.0000
