data_image0
_chemical_formula_structural       C3NC3NC5NC5NC36H26C4H4C7H2N2O4NC8H2N2O4NC16H16C3H2C2H2NC2H2C2H2N
_chemical_formula_sum              "C96 N12 H58 O8"
_cell_length_a       38.4296
_cell_length_b       38.4295
_cell_length_c       14.9166
_cell_angle_alpha    90
_cell_angle_beta     90
_cell_angle_gamma    90.1534

_space_group_name_H-M_alt    "P 1"
_space_group_IT_number       1

loop_
  _space_group_symop_operation_xyz
  'x, y, z'

loop_
  _atom_site_type_symbol
  _atom_site_label
  _atom_site_symmetry_multiplicity
  _atom_site_fract_x
  _atom_site_fract_y
  _atom_site_fract_z
  _atom_site_occupancy
  C   C1        1.0  0.09323  0.06977  0.31807  1.0000
  C   C2        1.0  0.06737  0.09464  0.31760  1.0000
  C   C3        1.0  0.03518  0.07765  0.31884  1.0000
  N   N1        1.0  0.04276  0.04319  0.31986  1.0000
  C   C4        1.0  0.07749  0.03693  0.31887  1.0000
  C   C5        1.0  0.09571  0.00470  0.31853  1.0000
  C   C6        1.0  0.07956  0.97139  0.31868  1.0000
  N   N2        1.0  0.04514  0.96397  0.31938  1.0000
  C   C7        1.0  0.03901  0.92931  0.31822  1.0000
  C   C8        1.0  0.07167  0.91345  0.31700  1.0000
  C   C9        1.0  0.09663  0.93936  0.31702  1.0000
  C   C10       1.0  0.00634  0.91190  0.31799  1.0000
  C   C11       1.0  0.97342  0.92882  0.31840  1.0000
  N   N3        1.0  0.96583  0.96328  0.31879  1.0000
  C   C12       1.0  0.93109  0.96953  0.31806  1.0000
  C   C13       1.0  0.91537  0.93669  0.31797  1.0000
  C   C14       1.0  0.94123  0.91181  0.31787  1.0000
  C   C15       1.0  0.91288  0.00177  0.31758  1.0000
  C   C16       1.0  0.92904  0.03507  0.31793  1.0000
  N   N4        1.0  0.96345  0.04250  0.31885  1.0000
  C   C17       1.0  0.96959  0.07716  0.31805  1.0000
  C   C18       1.0  0.93691  0.09301  0.31693  1.0000
  C   C19       1.0  0.91196  0.06711  0.31642  1.0000
  C   C20       1.0  0.00226  0.09458  0.31811  1.0000
  C   C21       1.0  0.00186  0.13171  0.31496  1.0000
  C   C22       1.0  0.99682  0.14913  0.23267  1.0000
  C   C23       1.0  0.99544  0.18569  0.22957  1.0000
  C   C24       1.0  0.99918  0.20603  0.30827  1.0000
  C   C25       1.0  0.99685  0.24319  0.30472  1.0000
  C   C26       1.0  0.99299  0.31770  0.29183  1.0000
  C   C27       1.0  0.96878  0.29606  0.24682  1.0000
  C   C28       1.0  0.97065  0.25959  0.25327  1.0000
  C   C29       1.0  0.87576  0.00069  0.31429  1.0000
  C   C30       1.0  0.85846  0.99509  0.23203  1.0000
  C   C31       1.0  0.82190  0.99345  0.22861  1.0000
  C   C32       1.0  0.80143  0.99752  0.30695  1.0000
  C   C33       1.0  0.76426  0.99513  0.30300  1.0000
  C   C34       1.0  0.74783  0.96872  0.25201  1.0000
  C   C35       1.0  0.71137  0.96685  0.24499  1.0000
  C   C36       1.0  0.68976  0.99126  0.28894  1.0000
  C   C37       1.0  0.00675  0.87478  0.31487  1.0000
  C   C38       1.0  0.00940  0.80040  0.30788  1.0000
  C   C39       1.0  0.01085  0.82076  0.22867  1.0000
  C   C40       1.0  0.00954  0.85733  0.23193  1.0000
  C   C41       1.0  0.01134  0.76317  0.30399  1.0000
  C   C42       1.0  0.03498  0.74640  0.24544  1.0000
  C   C43       1.0  0.03621  0.70989  0.23877  1.0000
  C   C44       1.0  0.01401  0.68860  0.29099  1.0000
  C   C45       1.0  0.13284  0.00579  0.31549  1.0000
  C   C46       1.0  0.15025  0.01098  0.23321  1.0000
  C   C47       1.0  0.18682  0.01261  0.23007  1.0000
  C   C48       1.0  0.20720  0.00896  0.30873  1.0000
  C   C49       1.0  0.24441  0.01101  0.30498  1.0000
  C   C50       1.0  0.31894  0.01390  0.29163  1.0000
  C   C51       1.0  0.29776  0.03800  0.24539  1.0000
  C   C52       1.0  0.26125  0.03664  0.25221  1.0000
  H   H1        1.0  0.30873  0.05678  0.20558  1.0000
  H   H2        1.0  0.24703  0.05479  0.21799  1.0000
  H   H3        1.0  0.19847  0.01601  0.16901  1.0000
  H   H4        1.0  0.13640  0.01370  0.17501  1.0000
  H   H5        1.0  0.11926  0.07526  0.31717  1.0000
  H   H6        1.0  0.07185  0.12086  0.31619  1.0000
  H   H7        1.0  0.02542  0.02517  0.32056  1.0000
  H   H8        1.0  0.98317  0.98130  0.31864  1.0000
  H   H9        1.0  0.12286  0.93509  0.31567  1.0000
  H   H10       1.0  0.07692  0.88740  0.31583  1.0000
  H   H11       1.0  0.01080  0.87115  0.17334  1.0000
  H   H12       1.0  0.01247  0.80910  0.16716  1.0000
  H   H13       1.0  0.93678  0.88558  0.31739  1.0000
  H   H14       1.0  0.88934  0.93119  0.31775  1.0000
  H   H15       1.0  0.93165  0.11906  0.31615  1.0000
  H   H16       1.0  0.88573  0.07138  0.31506  1.0000
  H   H17       1.0  0.87239  0.99201  0.17408  1.0000
  H   H18       1.0  0.81033  0.98963  0.16760  1.0000
  H   H19       1.0  0.70076  0.94746  0.20651  1.0000
  H   H20       1.0  0.76232  0.95036  0.21935  1.0000
  H   H21       1.0  0.95242  0.24508  0.21989  1.0000
  H   H22       1.0  0.94954  0.30665  0.20801  1.0000
  H   H23       1.0  0.99194  0.19736  0.16858  1.0000
  H   H24       1.0  0.99387  0.13528  0.17452  1.0000
  H   H25       1.0  0.05178  0.76066  0.20683  1.0000
  H   H26       1.0  0.05348  0.69900  0.19470  1.0000
  C   C53       1.0  0.99148  0.35361  0.27953  1.0000
  C   C54       1.0  0.65387  0.98976  0.27604  1.0000
  C   C55       1.0  0.01442  0.65270  0.27895  1.0000
  C   C56       1.0  0.35481  0.01460  0.27925  1.0000
  H   H27       1.0  0.97866  0.36260  0.22634  1.0000
  H   H28       1.0  0.36406  0.02321  0.22082  1.0000
  H   H29       1.0  0.02112  0.64343  0.21896  1.0000
  H   H30       1.0  0.64495  0.97704  0.22256  1.0000
  C   C57       1.0  0.98192  0.57828  0.28323  1.0000
  C   C58       1.0  0.98245  0.54141  0.28193  1.0000
  C   C59       1.0  0.00688  0.52217  0.33263  1.0000
  C   C60       1.0  0.00718  0.48494  0.32994  1.0000
  C   C61       1.0  0.00937  0.46614  0.24793  1.0000
  C   C62       1.0  0.00871  0.42926  0.24933  1.0000
  C   C63       1.0  0.00574  0.41045  0.33042  1.0000
  H   H31       1.0  0.01081  0.41603  0.19007  1.0000
  H   H32       1.0  0.96433  0.52853  0.24404  1.0000
  N   N5        1.0  0.01334  0.48430  0.16585  1.0000
  N   N6        1.0  0.95734  0.59740  0.23280  1.0000
  O   O1        1.0  0.98885  0.47771  0.11258  1.0000
  O   O2        1.0  0.96046  0.59148  0.15034  1.0000
  O   O3        1.0  0.04162  0.47693  0.12814  1.0000
  O   O4        1.0  0.92673  0.59017  0.25599  1.0000
  N   N7        1.0  0.00509  0.37573  0.33424  1.0000
  C   C64       1.0  0.41098  0.00462  0.33459  1.0000
  C   C65       1.0  0.42887  0.98028  0.28020  1.0000
  C   C66       1.0  0.46575  0.98076  0.27834  1.0000
  C   C67       1.0  0.48527  0.00504  0.32911  1.0000
  C   C68       1.0  0.52251  0.00521  0.32631  1.0000
  C   C69       1.0  0.54132  0.00736  0.24430  1.0000
  C   C70       1.0  0.57821  0.00669  0.24571  1.0000
  C   C71       1.0  0.59701  0.00378  0.32682  1.0000
  H   H33       1.0  0.59145  0.00878  0.18646  1.0000
  H   H34       1.0  0.47840  0.96267  0.24005  1.0000
  N   N8        1.0  0.52320  0.01134  0.16221  1.0000
  N   N9        1.0  0.40941  0.95591  0.22962  1.0000
  O   O5        1.0  0.52964  0.98683  0.10897  1.0000
  O   O6        1.0  0.41514  0.95929  0.14712  1.0000
  O   O7        1.0  0.53074  0.03960  0.12448  1.0000
  O   O8        1.0  0.41647  0.92522  0.25202  1.0000
  N   N10       1.0  0.63171  0.00316  0.33079  1.0000
  C   C72       1.0  0.00481  0.18831  0.39028  1.0000
  C   C73       1.0  0.00596  0.15169  0.39376  1.0000
  C   C74       1.0  0.02072  0.26485  0.35103  1.0000
  C   C75       1.0  0.01892  0.30141  0.34449  1.0000
  C   C76       1.0  0.81903  0.00364  0.38894  1.0000
  C   C77       1.0  0.85565  0.00506  0.39274  1.0000
  C   C78       1.0  0.70607  0.01739  0.34119  1.0000
  C   C79       1.0  0.74262  0.01919  0.34831  1.0000
  C   C80       1.0  0.00498  0.85485  0.39427  1.0000
  C   C81       1.0  0.00617  0.81823  0.39066  1.0000
  C   C82       1.0  0.99069  0.70517  0.35065  1.0000
  C   C83       1.0  0.98947  0.74174  0.35711  1.0000
  C   C84       1.0  0.15283  0.00192  0.39429  1.0000
  C   C85       1.0  0.18945  0.00335  0.39078  1.0000
  C   C86       1.0  0.26571  0.98719  0.35221  1.0000
  C   C87       1.0  0.30228  0.98853  0.34555  1.0000
  H   H35       1.0  0.31660  0.97014  0.37866  1.0000
  H   H36       1.0  0.25472  0.96775  0.38967  1.0000
  H   H37       1.0  0.20304  0.00107  0.44946  1.0000
  H   H38       1.0  0.14084  0.99824  0.45484  1.0000
  H   H39       1.0  0.00315  0.86688  0.45530  1.0000
  H   H40       1.0  0.00560  0.80470  0.44973  1.0000
  H   H41       1.0  0.86755  0.00907  0.45327  1.0000
  H   H42       1.0  0.80534  0.00624  0.44737  1.0000
  H   H43       1.0  0.75335  0.03912  0.38454  1.0000
  H   H44       1.0  0.69151  0.03594  0.37294  1.0000
  H   H45       1.0  0.00947  0.13968  0.45433  1.0000
  H   H46       1.0  0.00710  0.20190  0.44897  1.0000
  H   H47       1.0  0.03730  0.31600  0.37710  1.0000
  H   H48       1.0  0.04046  0.25414  0.38777  1.0000
  H   H49       1.0  0.97145  0.75263  0.39902  1.0000
  H   H50       1.0  0.97369  0.69077  0.38840  1.0000
  C   C88       1.0  0.00638  0.59649  0.33693  1.0000
  C   C89       1.0  0.03050  0.54088  0.38722  1.0000
  C   C90       1.0  0.03011  0.57749  0.38975  1.0000
  H   H51       1.0  0.04858  0.52796  0.42494  1.0000
  H   H52       1.0  0.04772  0.59026  0.42946  1.0000
  C   C91       1.0  0.00468  0.42928  0.41135  1.0000
  C   C92       1.0  0.00519  0.46590  0.41112  1.0000
  H   H53       1.0  0.00285  0.41641  0.47127  1.0000
  H   H54       1.0  0.00344  0.47861  0.47127  1.0000
  N   N11       1.0  0.00700  0.63110  0.34212  1.0000
  C   C93       1.0  0.46683  0.02864  0.38413  1.0000
  C   C94       1.0  0.43023  0.02830  0.38724  1.0000
  H   H55       1.0  0.47996  0.04662  0.42190  1.0000
  H   H56       1.0  0.41766  0.04582  0.42743  1.0000
  C   C95       1.0  0.57816  0.00269  0.40773  1.0000
  C   C96       1.0  0.54154  0.00320  0.40748  1.0000
  H   H57       1.0  0.59101  0.00089  0.46767  1.0000
  H   H58       1.0  0.52883  0.00148  0.46765  1.0000
  N   N12       1.0  0.37641  0.00508  0.34044  1.0000
