data_image0
_chemical_formula_structural       C2OHCHC3HC4HC3OHC6O2H2C6O2H2C2HCHNO2C2HC2H2NO2C2HC2H2NO2C2HC2H2NO2C2HC2H2NO2C2HC2H2NO2C3H3C3H2C3H2C3H2C3H2C7H3NO2C8H3NO2C6H2NO2C8H3NO2C8H3NO2C8H3NO2
_chemical_formula_sum              "C108 O30 H54 N12"
_cell_length_a       31.7587
_cell_length_b       31.7586
_cell_length_c       14.849
_cell_angle_alpha    90
_cell_angle_beta     90
_cell_angle_gamma    120

_space_group_name_H-M_alt    "P 1"
_space_group_IT_number       1

loop_
  _space_group_symop_operation_xyz
  'x, y, z'

loop_
  _atom_site_type_symbol
  _atom_site_label
  _atom_site_symmetry_multiplicity
  _atom_site_fract_x
  _atom_site_fract_y
  _atom_site_fract_z
  _atom_site_occupancy
  C   C1        1.0  0.03438  0.51903  0.34962  1.0000
  C   C2        1.0  0.06223  0.57022  0.33024  1.0000
  O   O1        1.0  0.04048  0.59411  0.29421  1.0000
  H   H1        1.0  0.04323  0.61840  0.33850  1.0000
  C   C3        1.0  0.06190  0.49605  0.37196  1.0000
  H   H2        1.0  0.04476  0.46048  0.39110  1.0000
  C   C4        1.0  0.11399  0.59652  0.33471  1.0000
  C   C5        1.0  0.11328  0.52067  0.37195  1.0000
  C   C6        1.0  0.14528  0.47155  0.30592  1.0000
  H   H3        1.0  0.12147  0.46231  0.25320  1.0000
  C   C7        1.0  0.13837  0.57093  0.35514  1.0000
  C   C8        1.0  0.14168  0.49738  0.38019  1.0000
  C   C9        1.0  0.14399  0.64811  0.32458  1.0000
  C   C10       1.0  0.14600  0.67907  0.39487  1.0000
  H   H4        1.0  0.12087  0.66571  0.44575  1.0000
  C   C11       1.0  0.98088  0.49113  0.34969  1.0000
  C   C12       1.0  0.90127  0.41364  0.33494  1.0000
  C   C13       1.0  0.95302  0.43994  0.33032  1.0000
  O   O2        1.0  0.97477  0.41607  0.29419  1.0000
  H   H5        1.0  0.97204  0.39178  0.33844  1.0000
  C   C14       1.0  0.52156  0.49229  0.34963  1.0000
  C   C15       1.0  0.59906  0.49016  0.33480  1.0000
  C   C16       1.0  0.57275  0.51561  0.33020  1.0000
  C   C17       1.0  0.49366  0.51788  0.34967  1.0000
  C   C18       1.0  0.44247  0.49453  0.33030  1.0000
  C   C19       1.0  0.41617  0.51999  0.33489  1.0000
  O   O3        1.0  0.59661  0.56125  0.29419  1.0000
  O   O4        1.0  0.41858  0.44891  0.29423  1.0000
  H   H6        1.0  0.62092  0.58279  0.33845  1.0000
  H   H7        1.0  0.39431  0.42735  0.33853  1.0000
  C   C20       1.0  0.52042  0.03184  0.34973  1.0000
  C   C21       1.0  0.52255  0.11146  0.33499  1.0000
  C   C22       1.0  0.49710  0.05970  0.33037  1.0000
  C   C23       1.0  0.49483  0.97835  0.34966  1.0000
  C   C24       1.0  0.51817  0.95050  0.33028  1.0000
  C   C25       1.0  0.49270  0.89873  0.33474  1.0000
  O   O5        1.0  0.45148  0.03796  0.29423  1.0000
  O   O6        1.0  0.56381  0.97225  0.29424  1.0000
  H   H8        1.0  0.42991  0.04069  0.33849  1.0000
  H   H9        1.0  0.58535  0.96950  0.33853  1.0000
  C   C26       1.0  0.29792  0.51061  0.26914  1.0000
  C   C27       1.0  0.34541  0.51735  0.26081  1.0000
  H   H10       1.0  0.36796  0.54055  0.21218  1.0000
  C   C28       1.0  0.18509  0.46381  0.29715  1.0000
  H   H11       1.0  0.18796  0.44771  0.23950  1.0000
  N   N1        1.0  0.28225  0.53524  0.21039  1.0000
  O   O7        1.0  0.28190  0.52298  0.12981  1.0000
  O   O8        1.0  0.30870  0.58063  0.21653  1.0000
  C   C29       1.0  0.50208  0.78983  0.26910  1.0000
  C   C30       1.0  0.49534  0.83057  0.26073  1.0000
  H   H12       1.0  0.47216  0.82992  0.21206  1.0000
  C   C31       1.0  0.54113  0.67625  0.30600  1.0000
  C   C32       1.0  0.54887  0.72381  0.29720  1.0000
  H   H13       1.0  0.55037  0.66167  0.25328  1.0000
  H   H14       1.0  0.56497  0.74276  0.23955  1.0000
  N   N2        1.0  0.47746  0.74952  0.21036  1.0000
  O   O9        1.0  0.48974  0.76142  0.12978  1.0000
  O   O10       1.0  0.43207  0.73058  0.21646  1.0000
  C   C33       1.0  0.22289  0.71481  0.26907  1.0000
  C   C34       1.0  0.18215  0.66733  0.26070  1.0000
  H   H15       1.0  0.18281  0.64480  0.21203  1.0000
  C   C35       1.0  0.33645  0.86745  0.30596  1.0000
  C   C36       1.0  0.28889  0.82763  0.29718  1.0000
  H   H16       1.0  0.35102  0.89126  0.25325  1.0000
  H   H17       1.0  0.26993  0.82476  0.23953  1.0000
  N   N3        1.0  0.26320  0.73050  0.21034  1.0000
  O   O11       1.0  0.25130  0.73088  0.12975  1.0000
  O   O12       1.0  0.28215  0.70406  0.21644  1.0000
  C   C37       1.0  0.71734  0.49951  0.26918  1.0000
  C   C38       1.0  0.66986  0.49277  0.26085  1.0000
  H   H18       1.0  0.64731  0.46956  0.21222  1.0000
  C   C39       1.0  0.86998  0.53856  0.30601  1.0000
  C   C40       1.0  0.83016  0.54630  0.29719  1.0000
  H   H19       1.0  0.89379  0.54778  0.25330  1.0000
  H   H20       1.0  0.82730  0.56237  0.23950  1.0000
  N   N4        1.0  0.73299  0.47484  0.21049  1.0000
  O   O13       1.0  0.73334  0.48706  0.12988  1.0000
  O   O14       1.0  0.70654  0.42945  0.21670  1.0000
  C   C41       1.0  0.51322  0.22038  0.26922  1.0000
  C   C42       1.0  0.51996  0.17964  0.26089  1.0000
  H   H21       1.0  0.54318  0.18030  0.21229  1.0000
  C   C43       1.0  0.47416  0.33396  0.30595  1.0000
  C   C44       1.0  0.46642  0.28641  0.29717  1.0000
  H   H22       1.0  0.46495  0.34856  0.25322  1.0000
  H   H23       1.0  0.45036  0.26746  0.23949  1.0000
  N   N5        1.0  0.53789  0.26070  0.21053  1.0000
  O   O15       1.0  0.52567  0.24883  0.12992  1.0000
  O   O16       1.0  0.58328  0.27964  0.21674  1.0000
  C   C45       1.0  0.79235  0.29538  0.26922  1.0000
  C   C46       1.0  0.83309  0.34286  0.26087  1.0000
  H   H24       1.0  0.83242  0.36541  0.21226  1.0000
  C   C47       1.0  0.67876  0.14274  0.30607  1.0000
  C   C48       1.0  0.72632  0.18255  0.29725  1.0000
  H   H25       1.0  0.66417  0.11893  0.25336  1.0000
  H   H26       1.0  0.74526  0.18542  0.23956  1.0000
  N   N6        1.0  0.75202  0.27972  0.21053  1.0000
  O   O17       1.0  0.76390  0.27936  0.12992  1.0000
  O   O18       1.0  0.73308  0.30617  0.21672  1.0000
  C   C49       1.0  0.95337  0.51412  0.37209  1.0000
  C   C50       1.0  0.90199  0.48949  0.37222  1.0000
  C   C51       1.0  0.87689  0.43923  0.35544  1.0000
  H   H27       1.0  0.97052  0.54970  0.39112  1.0000
  H   H28       1.0  0.83955  0.42082  0.35681  1.0000
  H   H29       1.0  0.17571  0.58933  0.35652  1.0000
  C   C52       1.0  0.49858  0.44178  0.37199  1.0000
  C   C53       1.0  0.52321  0.41503  0.37202  1.0000
  C   C54       1.0  0.57347  0.44020  0.35527  1.0000
  H   H30       1.0  0.46302  0.42336  0.39114  1.0000
  H   H31       1.0  0.59188  0.42127  0.35669  1.0000
  C   C55       1.0  0.44175  0.56996  0.35532  1.0000
  C   C56       1.0  0.49202  0.59513  0.37207  1.0000
  C   C57       1.0  0.51664  0.56838  0.37204  1.0000
  H   H32       1.0  0.42334  0.58889  0.35672  1.0000
  H   H33       1.0  0.55222  0.58681  0.39110  1.0000
  C   C58       1.0  0.57093  0.05936  0.37214  1.0000
  C   C59       1.0  0.59767  0.11073  0.37227  1.0000
  C   C60       1.0  0.57251  0.13583  0.35548  1.0000
  H   H34       1.0  0.58935  0.04220  0.39117  1.0000
  H   H35       1.0  0.59144  0.17317  0.35686  1.0000
  C   C61       1.0  0.44273  0.87435  0.35518  1.0000
  C   C62       1.0  0.41757  0.89944  0.37199  1.0000
  C   C63       1.0  0.44432  0.95082  0.37199  1.0000
  H   H36       1.0  0.42380  0.83702  0.35656  1.0000
  H   H37       1.0  0.42590  0.96797  0.39113  1.0000
  C   C64       1.0  0.36456  0.49837  0.32476  1.0000
  C   C65       1.0  0.33359  0.46939  0.39499  1.0000
  C   C66       1.0  0.28585  0.46127  0.40275  1.0000
  C   C67       1.0  0.26765  0.48269  0.34192  1.0000
  C   C68       1.0  0.22305  0.48208  0.36158  1.0000
  C   C69       1.0  0.21868  0.50619  0.43878  1.0000
  C   C70       1.0  0.17800  0.51303  0.44739  1.0000
  H   H38       1.0  0.17755  0.53407  0.49928  1.0000
  H   H39       1.0  0.34694  0.45762  0.44587  1.0000
  H   H40       1.0  0.26563  0.44247  0.45759  1.0000
  N   N7        1.0  0.25699  0.52702  0.50252  1.0000
  O   O19       1.0  0.24232  0.51006  0.58000  1.0000
  O   O20       1.0  0.27628  0.57252  0.50564  1.0000
  C   C71       1.0  0.51430  0.86874  0.32461  1.0000
  C   C72       1.0  0.54324  0.86672  0.39490  1.0000
  C   C73       1.0  0.55136  0.82710  0.40274  1.0000
  C   C74       1.0  0.52997  0.78748  0.34192  1.0000
  C   C75       1.0  0.53059  0.74350  0.36161  1.0000
  C   C76       1.0  0.50649  0.71502  0.43882  1.0000
  C   C77       1.0  0.49965  0.66751  0.44746  1.0000
  C   C78       1.0  0.51531  0.64683  0.38027  1.0000
  H   H41       1.0  0.47862  0.64602  0.49936  1.0000
  H   H42       1.0  0.55501  0.89184  0.44577  1.0000
  H   H43       1.0  0.57015  0.82569  0.45762  1.0000
  N   N8        1.0  0.48566  0.73251  0.50255  1.0000
  O   O21       1.0  0.50261  0.73481  0.58003  1.0000
  O   O22       1.0  0.44015  0.70629  0.50567  1.0000
  C   C79       1.0  0.18561  0.72681  0.40271  1.0000
  C   C80       1.0  0.22523  0.74505  0.34189  1.0000
  C   C81       1.0  0.26921  0.78966  0.36159  1.0000
  C   C82       1.0  0.29769  0.79403  0.43879  1.0000
  C   C83       1.0  0.34520  0.83471  0.44742  1.0000
  C   C84       1.0  0.36587  0.87104  0.38023  1.0000
  H   H44       1.0  0.36670  0.83516  0.49930  1.0000
  H   H45       1.0  0.18701  0.74701  0.45759  1.0000
  N   N9        1.0  0.28021  0.75571  0.50251  1.0000
  O   O23       1.0  0.27792  0.77036  0.57999  1.0000
  O   O24       1.0  0.30643  0.73642  0.50561  1.0000
  C   C85       1.0  0.65065  0.51178  0.32466  1.0000
  C   C86       1.0  0.68167  0.54076  0.39485  1.0000
  C   C87       1.0  0.72941  0.54888  0.40269  1.0000
  C   C88       1.0  0.74761  0.52745  0.34193  1.0000
  C   C89       1.0  0.79221  0.52806  0.36163  1.0000
  C   C90       1.0  0.79658  0.50399  0.43888  1.0000
  C   C91       1.0  0.83726  0.49715  0.44755  1.0000
  C   C92       1.0  0.87359  0.51278  0.38035  1.0000
  H   H46       1.0  0.83772  0.47615  0.49949  1.0000
  H   H47       1.0  0.66834  0.55257  0.44571  1.0000
  H   H48       1.0  0.74962  0.56771  0.45752  1.0000
  N   N10       1.0  0.75828  0.48320  0.50263  1.0000
  O   O25       1.0  0.77294  0.50019  0.58009  1.0000
  O   O26       1.0  0.73898  0.43770  0.50583  1.0000
  C   C93       1.0  0.50096  0.14146  0.32475  1.0000
  C   C94       1.0  0.47197  0.14346  0.39496  1.0000
  C   C95       1.0  0.46385  0.18308  0.40275  1.0000
  C   C96       1.0  0.48528  0.22272  0.34198  1.0000
  C   C97       1.0  0.48466  0.26670  0.36165  1.0000
  C   C98       1.0  0.50871  0.29516  0.43891  1.0000
  C   C99       1.0  0.51555  0.34267  0.44757  1.0000
  C   C100      1.0  0.49992  0.36333  0.38031  1.0000
  H   H49       1.0  0.53656  0.36415  0.49948  1.0000
  H   H50       1.0  0.46016  0.11833  0.44581  1.0000
  H   H51       1.0  0.44502  0.18448  0.45758  1.0000
  N   N11       1.0  0.52950  0.27765  0.50268  1.0000
  O   O27       1.0  0.51251  0.27533  0.58013  1.0000
  O   O28       1.0  0.57501  0.30386  0.50590  1.0000
  C   C101      1.0  0.87127  0.36204  0.32472  1.0000
  C   C102      1.0  0.86927  0.33106  0.39494  1.0000
  C   C103      1.0  0.82965  0.28332  0.40275  1.0000
  C   C104      1.0  0.79002  0.26511  0.34198  1.0000
  C   C105      1.0  0.74603  0.22051  0.36168  1.0000
  C   C106      1.0  0.71758  0.21614  0.43893  1.0000
  C   C107      1.0  0.67007  0.17547  0.44760  1.0000
  C   C108      1.0  0.64937  0.13914  0.38040  1.0000
  H   H52       1.0  0.64861  0.17501  0.49953  1.0000
  H   H53       1.0  0.89441  0.34440  0.44579  1.0000
  H   H54       1.0  0.82826  0.26310  0.45759  1.0000
  N   N12       1.0  0.73510  0.25445  0.50268  1.0000
  O   O29       1.0  0.73742  0.23978  0.58013  1.0000
  O   O30       1.0  0.70889  0.27374  0.50587  1.0000
