data_image0
_chemical_formula_structural       C3NHC2H2O2C3NHC2H2O2HCH2CNHCH2CNH2C4NO2H2C4NO2C7H2NH2NO2C7HNHNO2C4H2NO2CHC6H3C2HC3HNH2C2HC3HNH2NO2C2HNHC7H2NH2NO2C7HNHNO2C4H2NO2CHC6H3C2HC3HNH2C2HC3HNH2NO2C2HNHC7H2NH2NO2C7H2NH2NO2C7H2NH2NO2C6H3C6H3C2HC3HNH2NO2C2HC3HNH2NO2C2HC3HNH2NO2C7H2NH2NO2C7H2NH2NO2C7H2NH2NO2C6H3C6H3C2HC3HNH2NO2C2HC3HNH2NO2C2HC3HNH2NO2
_chemical_formula_sum              "C192 N48 H120 O48"
_cell_length_a       44.6971
_cell_length_b       44.6972
_cell_length_c       14.8688
_cell_angle_alpha    90
_cell_angle_beta     90
_cell_angle_gamma    120

_space_group_name_H-M_alt    "P 1"
_space_group_IT_number       1

loop_
  _space_group_symop_operation_xyz
  'x, y, z'

loop_
  _atom_site_type_symbol
  _atom_site_label
  _atom_site_symmetry_multiplicity
  _atom_site_fract_x
  _atom_site_fract_y
  _atom_site_fract_z
  _atom_site_occupancy
  C   C1        1.0  0.02542  0.26136  0.33928  1.0000
  C   C2        1.0  0.04480  0.25802  0.26779  1.0000
  C   C3        1.0  0.08139  0.27757  0.27106  1.0000
  N   N1        1.0  0.02962  0.23628  0.19697  1.0000
  H   H1        1.0  0.04334  0.23414  0.14921  1.0000
  C   C4        1.0  0.08000  0.30339  0.41395  1.0000
  C   C5        1.0  0.04344  0.28414  0.41092  1.0000
  H   H2        1.0  0.02980  0.28666  0.46289  1.0000
  H   H3        1.0  0.00888  0.21423  0.46713  1.0000
  O   O1        1.0  0.09049  0.30756  0.56000  1.0000
  O   O2        1.0  0.08993  0.34815  0.49838  1.0000
  C   C6        1.0  0.02542  0.76136  0.33928  1.0000
  C   C7        1.0  0.04480  0.75802  0.26779  1.0000
  C   C8        1.0  0.08139  0.77757  0.27106  1.0000
  N   N2        1.0  0.02962  0.73628  0.19697  1.0000
  H   H4        1.0  0.04334  0.73414  0.14921  1.0000
  C   C9        1.0  0.08000  0.80339  0.41395  1.0000
  C   C10       1.0  0.04344  0.78414  0.41092  1.0000
  H   H5        1.0  0.02980  0.78666  0.46289  1.0000
  H   H6        1.0  0.00888  0.71423  0.46713  1.0000
  O   O3        1.0  0.09049  0.80756  0.56000  1.0000
  O   O4        1.0  0.08993  0.84815  0.49838  1.0000
  H   H7        1.0  0.09532  0.27525  0.21948  1.0000
  C   C11       1.0  0.13642  0.31907  0.34231  1.0000
  H   H8        1.0  0.14232  0.27500  0.34194  1.0000
  H   H9        1.0  0.14150  0.36870  0.34196  1.0000
  C   C12       1.0  0.09943  0.30029  0.34282  1.0000
  N   N3        1.0  0.09747  0.32478  0.48850  1.0000
  H   H10       1.0  0.09532  0.77525  0.21948  1.0000
  C   C13       1.0  0.13642  0.81907  0.34231  1.0000
  H   H11       1.0  0.14232  0.77500  0.34194  1.0000
  H   H12       1.0  0.14150  0.86870  0.34196  1.0000
  C   C14       1.0  0.09943  0.80028  0.34282  1.0000
  N   N4        1.0  0.09747  0.82478  0.48850  1.0000
  H   H13       1.0  0.18877  0.41571  0.21949  1.0000
  H   H14       1.0  0.19956  0.46769  0.14936  1.0000
  C   C15       1.0  0.15491  0.35564  0.34204  1.0000
  C   C16       1.0  0.19147  0.37461  0.34232  1.0000
  C   C17       1.0  0.19196  0.31955  0.34231  1.0000
  C   C18       1.0  0.15539  0.30147  0.34202  1.0000
  N   N5        1.0  0.18624  0.27489  0.48850  1.0000
  O   O5        1.0  0.20346  0.28513  0.55999  1.0000
  O   O6        1.0  0.16287  0.24398  0.49836  1.0000
  H   H15       1.0  0.18877  0.91571  0.21949  1.0000
  H   H16       1.0  0.19956  0.96769  0.14936  1.0000
  C   C19       1.0  0.15491  0.85564  0.34204  1.0000
  C   C20       1.0  0.19147  0.87461  0.34232  1.0000
  C   C21       1.0  0.19196  0.81956  0.34231  1.0000
  C   C22       1.0  0.15539  0.80147  0.34202  1.0000
  N   N6        1.0  0.18624  0.77489  0.48850  1.0000
  O   O7        1.0  0.20346  0.78513  0.55999  1.0000
  O   O8        1.0  0.16287  0.74398  0.49836  1.0000
  C   C23       1.0  0.30286  0.20821  0.33949  1.0000
  C   C24       1.0  0.27620  0.20123  0.27656  1.0000
  C   C25       1.0  0.25908  0.22069  0.27925  1.0000
  C   C26       1.0  0.26819  0.24776  0.34164  1.0000
  C   C27       1.0  0.24967  0.26627  0.33927  1.0000
  C   C28       1.0  0.25300  0.28898  0.26778  1.0000
  C   C29       1.0  0.23346  0.30602  0.27106  1.0000
  H   H17       1.0  0.23578  0.32227  0.21948  1.0000
  H   H18       1.0  0.23991  0.21522  0.23336  1.0000
  N   N7        1.0  0.27474  0.29554  0.19697  1.0000
  H   H19       1.0  0.28962  0.28554  0.19276  1.0000
  H   H20       1.0  0.27688  0.31140  0.14920  1.0000
  N   N8        1.0  0.26779  0.17583  0.20921  1.0000
  O   O9        1.0  0.23667  0.15238  0.21402  1.0000
  O   O10       1.0  0.27355  0.18876  0.13172  1.0000
  C   C30       1.0  0.30282  0.09685  0.33951  1.0000
  C   C31       1.0  0.30979  0.07717  0.27658  1.0000
  C   C32       1.0  0.29033  0.04059  0.27926  1.0000
  C   C33       1.0  0.26327  0.02263  0.34168  1.0000
  C   C34       1.0  0.24476  0.48561  0.33931  1.0000
  C   C35       1.0  0.22205  0.46623  0.26781  1.0000
  C   C36       1.0  0.20501  0.42964  0.27108  1.0000
  H   H21       1.0  0.29580  0.02688  0.23340  1.0000
  N   N9        1.0  0.21550  0.48141  0.19698  1.0000
  H   H22       1.0  0.22542  0.00628  0.19295  1.0000
  N   N10       1.0  0.33520  0.09417  0.20924  1.0000
  O   O11       1.0  0.35864  0.08648  0.21406  1.0000
  O   O12       1.0  0.32227  0.08699  0.13175  1.0000
  C   C37       1.0  0.41418  0.20817  0.33950  1.0000
  C   C38       1.0  0.43386  0.23483  0.27656  1.0000
  C   C39       1.0  0.47043  0.25194  0.27925  1.0000
  C   C40       1.0  0.48840  0.24284  0.34165  1.0000
  H   H23       1.0  0.48414  0.27112  0.23337  1.0000
  H   H24       1.0  0.50475  0.22141  0.19277  1.0000
  N   N11       1.0  0.41686  0.24324  0.20921  1.0000
  O   O13       1.0  0.42454  0.27436  0.21402  1.0000
  O   O14       1.0  0.42404  0.23748  0.13173  1.0000
  C   C41       1.0  0.20956  0.35612  0.34204  1.0000
  H   H25       1.0  0.23603  0.36953  0.34196  1.0000
  C   C42       1.0  0.37698  0.18965  0.34003  1.0000
  C   C43       1.0  0.35808  0.15304  0.34062  1.0000
  C   C44       1.0  0.32149  0.13405  0.34003  1.0000
  C   C45       1.0  0.30378  0.15295  0.34061  1.0000
  C   C46       1.0  0.32138  0.18954  0.34002  1.0000
  C   C47       1.0  0.35799  0.20725  0.34060  1.0000
  H   H26       1.0  0.27734  0.13968  0.34150  1.0000
  H   H27       1.0  0.37117  0.23369  0.34149  1.0000
  H   H28       1.0  0.37135  0.13986  0.34151  1.0000
  C   C48       1.0  0.29511  0.25523  0.40439  1.0000
  C   C49       1.0  0.31161  0.23516  0.40240  1.0000
  H   H29       1.0  0.33066  0.24040  0.44847  1.0000
  C   C50       1.0  0.21074  0.30135  0.34282  1.0000
  C   C51       1.0  0.20763  0.27881  0.41395  1.0000
  C   C52       1.0  0.22689  0.26150  0.41091  1.0000
  H   H30       1.0  0.22436  0.24534  0.46288  1.0000
  N   N12       1.0  0.30617  0.28140  0.46529  1.0000
  H   H31       1.0  0.32504  0.28650  0.50658  1.0000
  H   H32       1.0  0.29679  0.29685  0.46712  1.0000
  C   C53       1.0  0.25580  0.04208  0.40442  1.0000
  C   C54       1.0  0.27587  0.07866  0.40242  1.0000
  H   H33       1.0  0.27062  0.09247  0.44848  1.0000
  C   C55       1.0  0.20968  0.41160  0.34284  1.0000
  C   C56       1.0  0.23221  0.43102  0.41397  1.0000
  C   C57       1.0  0.24952  0.46759  0.41095  1.0000
  H   H34       1.0  0.26569  0.48123  0.46291  1.0000
  N   N13       1.0  0.22962  0.02698  0.46531  1.0000
  H   H35       1.0  0.22458  0.04075  0.50674  1.0000
  H   H36       1.0  0.21422  0.50215  0.46730  1.0000
  N   N14       1.0  0.23613  0.41355  0.48852  1.0000
  O   O15       1.0  0.22589  0.42053  0.56001  1.0000
  O   O16       1.0  0.26704  0.42109  0.49838  1.0000
  C   C58       1.0  0.46895  0.21592  0.40440  1.0000
  C   C59       1.0  0.43237  0.19942  0.40242  1.0000
  H   H37       1.0  0.41856  0.18037  0.44849  1.0000
  N   N15       1.0  0.48406  0.20486  0.46529  1.0000
  H   H38       1.0  0.47027  0.18599  0.50659  1.0000
  C   C60       1.0  0.30286  0.70821  0.33949  1.0000
  C   C61       1.0  0.27620  0.70123  0.27656  1.0000
  C   C62       1.0  0.25908  0.72069  0.27925  1.0000
  C   C63       1.0  0.26819  0.74776  0.34164  1.0000
  C   C64       1.0  0.24967  0.76627  0.33927  1.0000
  C   C65       1.0  0.25300  0.78898  0.26778  1.0000
  C   C66       1.0  0.23346  0.80602  0.27106  1.0000
  H   H39       1.0  0.23578  0.82227  0.21948  1.0000
  H   H40       1.0  0.23991  0.71523  0.23336  1.0000
  N   N16       1.0  0.27474  0.79554  0.19697  1.0000
  H   H41       1.0  0.28962  0.78554  0.19276  1.0000
  H   H42       1.0  0.27688  0.81140  0.14920  1.0000
  N   N17       1.0  0.26779  0.67582  0.20921  1.0000
  O   O17       1.0  0.23667  0.65238  0.21402  1.0000
  O   O18       1.0  0.27355  0.68877  0.13172  1.0000
  C   C67       1.0  0.30281  0.59685  0.33951  1.0000
  C   C68       1.0  0.30979  0.57717  0.27658  1.0000
  C   C69       1.0  0.29033  0.54059  0.27926  1.0000
  C   C70       1.0  0.26327  0.52263  0.34168  1.0000
  C   C71       1.0  0.24476  0.98561  0.33931  1.0000
  C   C72       1.0  0.22205  0.96623  0.26781  1.0000
  C   C73       1.0  0.20501  0.92964  0.27108  1.0000
  H   H43       1.0  0.29580  0.52688  0.23340  1.0000
  N   N18       1.0  0.21550  0.98141  0.19698  1.0000
  H   H44       1.0  0.22542  0.50628  0.19295  1.0000
  N   N19       1.0  0.33520  0.59417  0.20924  1.0000
  O   O19       1.0  0.35864  0.58648  0.21406  1.0000
  O   O20       1.0  0.32227  0.58699  0.13175  1.0000
  C   C74       1.0  0.41418  0.70817  0.33950  1.0000
  C   C75       1.0  0.43386  0.73483  0.27656  1.0000
  C   C76       1.0  0.47043  0.75194  0.27925  1.0000
  C   C77       1.0  0.48840  0.74284  0.34165  1.0000
  H   H45       1.0  0.48414  0.77112  0.23337  1.0000
  H   H46       1.0  0.50475  0.72141  0.19277  1.0000
  N   N20       1.0  0.41686  0.74323  0.20921  1.0000
  O   O21       1.0  0.42454  0.77436  0.21402  1.0000
  O   O22       1.0  0.42404  0.73747  0.13173  1.0000
  C   C78       1.0  0.20956  0.85612  0.34204  1.0000
  H   H47       1.0  0.23603  0.86953  0.34196  1.0000
  C   C79       1.0  0.37698  0.68965  0.34003  1.0000
  C   C80       1.0  0.35808  0.65304  0.34062  1.0000
  C   C81       1.0  0.32149  0.63405  0.34003  1.0000
  C   C82       1.0  0.30378  0.65295  0.34061  1.0000
  C   C83       1.0  0.32138  0.68954  0.34002  1.0000
  C   C84       1.0  0.35799  0.70725  0.34060  1.0000
  H   H48       1.0  0.27734  0.63968  0.34150  1.0000
  H   H49       1.0  0.37117  0.73369  0.34149  1.0000
  H   H50       1.0  0.37135  0.63986  0.34151  1.0000
  C   C85       1.0  0.29511  0.75523  0.40439  1.0000
  C   C86       1.0  0.31161  0.73515  0.40240  1.0000
  H   H51       1.0  0.33066  0.74040  0.44847  1.0000
  C   C87       1.0  0.21074  0.80135  0.34282  1.0000
  C   C88       1.0  0.20763  0.77881  0.41395  1.0000
  C   C89       1.0  0.22689  0.76150  0.41091  1.0000
  H   H52       1.0  0.22436  0.74534  0.46288  1.0000
  N   N21       1.0  0.30617  0.78140  0.46529  1.0000
  H   H53       1.0  0.32504  0.78649  0.50658  1.0000
  H   H54       1.0  0.29679  0.79685  0.46712  1.0000
  C   C90       1.0  0.25580  0.54208  0.40442  1.0000
  C   C91       1.0  0.27587  0.57866  0.40242  1.0000
  H   H55       1.0  0.27062  0.59247  0.44848  1.0000
  C   C92       1.0  0.20968  0.91160  0.34284  1.0000
  C   C93       1.0  0.23221  0.93102  0.41397  1.0000
  C   C94       1.0  0.24952  0.96759  0.41095  1.0000
  H   H56       1.0  0.26569  0.98123  0.46291  1.0000
  N   N22       1.0  0.22962  0.52698  0.46531  1.0000
  H   H57       1.0  0.22458  0.54075  0.50674  1.0000
  H   H58       1.0  0.21422  0.00215  0.46730  1.0000
  N   N23       1.0  0.23613  0.91355  0.48852  1.0000
  O   O23       1.0  0.22589  0.92053  0.56001  1.0000
  O   O24       1.0  0.26705  0.92109  0.49838  1.0000
  C   C95       1.0  0.46895  0.71592  0.40440  1.0000
  C   C96       1.0  0.43237  0.69942  0.40242  1.0000
  H   H59       1.0  0.41856  0.68037  0.44849  1.0000
  N   N24       1.0  0.48405  0.70486  0.46529  1.0000
  H   H60       1.0  0.47027  0.68598  0.50659  1.0000
  C   C97       1.0  0.80286  0.20821  0.33949  1.0000
  C   C98       1.0  0.77620  0.20123  0.27656  1.0000
  C   C99       1.0  0.75908  0.22069  0.27925  1.0000
  C   C100      1.0  0.76819  0.24776  0.34164  1.0000
  C   C101      1.0  0.74967  0.26627  0.33927  1.0000
  C   C102      1.0  0.75300  0.28898  0.26778  1.0000
  C   C103      1.0  0.73346  0.30602  0.27106  1.0000
  H   H61       1.0  0.73578  0.32227  0.21948  1.0000
  H   H62       1.0  0.73991  0.21522  0.23336  1.0000
  N   N25       1.0  0.77474  0.29554  0.19697  1.0000
  H   H63       1.0  0.78962  0.28554  0.19276  1.0000
  H   H64       1.0  0.77688  0.31140  0.14920  1.0000
  N   N26       1.0  0.76779  0.17583  0.20921  1.0000
  O   O25       1.0  0.73667  0.15238  0.21402  1.0000
  O   O26       1.0  0.77355  0.18876  0.13172  1.0000
  C   C104      1.0  0.80282  0.09685  0.33951  1.0000
  C   C105      1.0  0.80979  0.07717  0.27658  1.0000
  C   C106      1.0  0.79033  0.04059  0.27926  1.0000
  C   C107      1.0  0.76327  0.02263  0.34168  1.0000
  C   C108      1.0  0.74476  0.48561  0.33931  1.0000
  C   C109      1.0  0.72205  0.46623  0.26781  1.0000
  C   C110      1.0  0.70501  0.42964  0.27108  1.0000
  H   H65       1.0  0.68876  0.41571  0.21949  1.0000
  H   H66       1.0  0.79580  0.02688  0.23340  1.0000
  N   N27       1.0  0.71550  0.48141  0.19698  1.0000
  H   H67       1.0  0.72541  0.00628  0.19295  1.0000
  H   H68       1.0  0.69956  0.46769  0.14936  1.0000
  N   N28       1.0  0.83520  0.09417  0.20924  1.0000
  O   O27       1.0  0.85864  0.08648  0.21406  1.0000
  O   O28       1.0  0.82227  0.08699  0.13175  1.0000
  C   C111      1.0  0.91418  0.20817  0.33950  1.0000
  C   C112      1.0  0.93386  0.23483  0.27656  1.0000
  C   C113      1.0  0.97044  0.25194  0.27925  1.0000
  C   C114      1.0  0.98839  0.24284  0.34165  1.0000
  C   C115      1.0  0.52542  0.26136  0.33928  1.0000
  C   C116      1.0  0.54480  0.25802  0.26779  1.0000
  C   C117      1.0  0.58139  0.27757  0.27106  1.0000
  H   H69       1.0  0.59532  0.27525  0.21948  1.0000
  H   H70       1.0  0.98414  0.27112  0.23337  1.0000
  N   N29       1.0  0.52962  0.23628  0.19697  1.0000
  H   H71       1.0  0.00475  0.22141  0.19277  1.0000
  H   H72       1.0  0.54334  0.23414  0.14921  1.0000
  N   N30       1.0  0.91686  0.24324  0.20921  1.0000
  O   O29       1.0  0.92454  0.27436  0.21402  1.0000
  O   O30       1.0  0.92404  0.23748  0.13173  1.0000
  C   C118      1.0  0.63642  0.31907  0.34231  1.0000
  C   C119      1.0  0.65491  0.35564  0.34204  1.0000
  C   C120      1.0  0.69147  0.37461  0.34232  1.0000
  C   C121      1.0  0.70956  0.35612  0.34204  1.0000
  C   C122      1.0  0.69196  0.31955  0.34231  1.0000
  C   C123      1.0  0.65539  0.30147  0.34202  1.0000
  H   H73       1.0  0.73603  0.36953  0.34196  1.0000
  H   H74       1.0  0.64232  0.27500  0.34194  1.0000
  H   H75       1.0  0.64150  0.36870  0.34196  1.0000
  C   C124      1.0  0.87698  0.18965  0.34003  1.0000
  C   C125      1.0  0.85808  0.15304  0.34062  1.0000
  C   C126      1.0  0.82149  0.13405  0.34003  1.0000
  C   C127      1.0  0.80378  0.15295  0.34061  1.0000
  C   C128      1.0  0.82138  0.18954  0.34002  1.0000
  C   C129      1.0  0.85799  0.20725  0.34060  1.0000
  H   H76       1.0  0.77734  0.13968  0.34150  1.0000
  H   H77       1.0  0.87116  0.23369  0.34149  1.0000
  H   H78       1.0  0.87135  0.13986  0.34151  1.0000
  C   C130      1.0  0.79511  0.25523  0.40439  1.0000
  C   C131      1.0  0.81161  0.23516  0.40240  1.0000
  H   H79       1.0  0.83066  0.24040  0.44847  1.0000
  C   C132      1.0  0.71074  0.30135  0.34282  1.0000
  C   C133      1.0  0.70763  0.27881  0.41395  1.0000
  C   C134      1.0  0.72689  0.26150  0.41091  1.0000
  H   H80       1.0  0.72436  0.24534  0.46288  1.0000
  N   N31       1.0  0.80617  0.28140  0.46529  1.0000
  H   H81       1.0  0.82504  0.28650  0.50658  1.0000
  H   H82       1.0  0.79679  0.29685  0.46712  1.0000
  N   N32       1.0  0.68624  0.27489  0.48850  1.0000
  O   O31       1.0  0.70346  0.28513  0.55999  1.0000
  O   O32       1.0  0.66287  0.24398  0.49836  1.0000
  C   C135      1.0  0.75580  0.04208  0.40442  1.0000
  C   C136      1.0  0.77587  0.07866  0.40242  1.0000
  H   H83       1.0  0.77062  0.09247  0.44848  1.0000
  C   C137      1.0  0.70968  0.41160  0.34284  1.0000
  C   C138      1.0  0.73221  0.43102  0.41397  1.0000
  C   C139      1.0  0.74952  0.46759  0.41095  1.0000
  H   H84       1.0  0.76569  0.48123  0.46291  1.0000
  N   N33       1.0  0.72962  0.02698  0.46531  1.0000
  H   H85       1.0  0.72458  0.04075  0.50674  1.0000
  H   H86       1.0  0.71422  0.50215  0.46730  1.0000
  N   N34       1.0  0.73613  0.41355  0.48852  1.0000
  O   O33       1.0  0.72589  0.42053  0.56001  1.0000
  O   O34       1.0  0.76704  0.42109  0.49838  1.0000
  C   C140      1.0  0.96895  0.21592  0.40440  1.0000
  C   C141      1.0  0.93237  0.19942  0.40242  1.0000
  H   H87       1.0  0.91856  0.18037  0.44849  1.0000
  C   C142      1.0  0.59943  0.30029  0.34282  1.0000
  C   C143      1.0  0.58000  0.30339  0.41395  1.0000
  C   C144      1.0  0.54344  0.28414  0.41092  1.0000
  H   H88       1.0  0.52980  0.28666  0.46289  1.0000
  N   N35       1.0  0.98405  0.20486  0.46529  1.0000
  H   H89       1.0  0.97028  0.18599  0.50659  1.0000
  H   H90       1.0  0.50888  0.21423  0.46713  1.0000
  N   N36       1.0  0.59747  0.32478  0.48850  1.0000
  O   O35       1.0  0.59049  0.30756  0.56000  1.0000
  O   O36       1.0  0.58993  0.34815  0.49838  1.0000
  C   C145      1.0  0.80286  0.70821  0.33949  1.0000
  C   C146      1.0  0.77620  0.70123  0.27656  1.0000
  C   C147      1.0  0.75908  0.72069  0.27925  1.0000
  C   C148      1.0  0.76818  0.74776  0.34164  1.0000
  C   C149      1.0  0.74967  0.76627  0.33927  1.0000
  C   C150      1.0  0.75301  0.78898  0.26778  1.0000
  C   C151      1.0  0.73345  0.80602  0.27106  1.0000
  H   H91       1.0  0.73577  0.82227  0.21948  1.0000
  H   H92       1.0  0.73991  0.71523  0.23336  1.0000
  N   N37       1.0  0.77474  0.79554  0.19697  1.0000
  H   H93       1.0  0.78962  0.78554  0.19276  1.0000
  H   H94       1.0  0.77688  0.81140  0.14920  1.0000
  N   N38       1.0  0.76779  0.67582  0.20921  1.0000
  O   O37       1.0  0.73667  0.65238  0.21402  1.0000
  O   O38       1.0  0.77355  0.68877  0.13172  1.0000
  C   C152      1.0  0.80281  0.59685  0.33951  1.0000
  C   C153      1.0  0.80980  0.57717  0.27658  1.0000
  C   C154      1.0  0.79033  0.54059  0.27926  1.0000
  C   C155      1.0  0.76327  0.52263  0.34168  1.0000
  C   C156      1.0  0.74476  0.98561  0.33931  1.0000
  C   C157      1.0  0.72205  0.96623  0.26781  1.0000
  C   C158      1.0  0.70501  0.92964  0.27108  1.0000
  H   H95       1.0  0.68876  0.91571  0.21949  1.0000
  H   H96       1.0  0.79580  0.52688  0.23340  1.0000
  N   N39       1.0  0.71550  0.98141  0.19698  1.0000
  H   H97       1.0  0.72542  0.50628  0.19295  1.0000
  H   H98       1.0  0.69956  0.96769  0.14936  1.0000
  N   N40       1.0  0.83520  0.59417  0.20924  1.0000
  O   O39       1.0  0.85864  0.58648  0.21406  1.0000
  O   O40       1.0  0.82227  0.58699  0.13175  1.0000
  C   C159      1.0  0.91418  0.70817  0.33950  1.0000
  C   C160      1.0  0.93386  0.73483  0.27656  1.0000
  C   C161      1.0  0.97043  0.75194  0.27925  1.0000
  C   C162      1.0  0.98840  0.74284  0.34165  1.0000
  C   C163      1.0  0.52542  0.76136  0.33928  1.0000
  C   C164      1.0  0.54480  0.75802  0.26779  1.0000
  C   C165      1.0  0.58139  0.77757  0.27106  1.0000
  H   H99       1.0  0.59532  0.77525  0.21948  1.0000
  H   H100      1.0  0.98414  0.77112  0.23337  1.0000
  N   N41       1.0  0.52962  0.73628  0.19697  1.0000
  H   H101      1.0  0.00475  0.72141  0.19277  1.0000
  H   H102      1.0  0.54334  0.73414  0.14921  1.0000
  N   N42       1.0  0.91686  0.74323  0.20921  1.0000
  O   O41       1.0  0.92454  0.77436  0.21402  1.0000
  O   O42       1.0  0.92404  0.73747  0.13173  1.0000
  C   C166      1.0  0.63642  0.81907  0.34231  1.0000
  C   C167      1.0  0.65491  0.85564  0.34204  1.0000
  C   C168      1.0  0.69147  0.87461  0.34232  1.0000
  C   C169      1.0  0.70956  0.85612  0.34204  1.0000
  C   C170      1.0  0.69196  0.81956  0.34231  1.0000
  C   C171      1.0  0.65539  0.80147  0.34202  1.0000
  H   H103      1.0  0.73603  0.86953  0.34196  1.0000
  H   H104      1.0  0.64232  0.77500  0.34194  1.0000
  H   H105      1.0  0.64150  0.86870  0.34196  1.0000
  C   C172      1.0  0.87698  0.68965  0.34003  1.0000
  C   C173      1.0  0.85808  0.65304  0.34062  1.0000
  C   C174      1.0  0.82149  0.63405  0.34003  1.0000
  C   C175      1.0  0.80378  0.65295  0.34061  1.0000
  C   C176      1.0  0.82138  0.68954  0.34002  1.0000
  C   C177      1.0  0.85799  0.70725  0.34060  1.0000
  H   H106      1.0  0.77734  0.63968  0.34150  1.0000
  H   H107      1.0  0.87117  0.73369  0.34149  1.0000
  H   H108      1.0  0.87135  0.63986  0.34151  1.0000
  C   C178      1.0  0.79511  0.75523  0.40439  1.0000
  C   C179      1.0  0.81161  0.73515  0.40240  1.0000
  H   H109      1.0  0.83066  0.74040  0.44847  1.0000
  C   C180      1.0  0.71074  0.80135  0.34282  1.0000
  C   C181      1.0  0.70763  0.77881  0.41395  1.0000
  C   C182      1.0  0.72689  0.76150  0.41091  1.0000
  H   H110      1.0  0.72436  0.74534  0.46288  1.0000
  N   N43       1.0  0.80617  0.78140  0.46529  1.0000
  H   H111      1.0  0.82504  0.78649  0.50658  1.0000
  H   H112      1.0  0.79679  0.79685  0.46712  1.0000
  N   N44       1.0  0.68624  0.77489  0.48850  1.0000
  O   O43       1.0  0.70346  0.78513  0.55999  1.0000
  O   O44       1.0  0.66287  0.74398  0.49836  1.0000
  C   C183      1.0  0.75580  0.54208  0.40442  1.0000
  C   C184      1.0  0.77587  0.57866  0.40242  1.0000
  H   H113      1.0  0.77063  0.59247  0.44848  1.0000
  C   C185      1.0  0.70968  0.91160  0.34284  1.0000
  C   C186      1.0  0.73221  0.93102  0.41397  1.0000
  C   C187      1.0  0.74952  0.96759  0.41095  1.0000
  H   H114      1.0  0.76569  0.98123  0.46291  1.0000
  N   N45       1.0  0.72962  0.52698  0.46531  1.0000
  H   H115      1.0  0.72458  0.54075  0.50674  1.0000
  H   H116      1.0  0.71422  0.00215  0.46730  1.0000
  N   N46       1.0  0.73613  0.91355  0.48852  1.0000
  O   O45       1.0  0.72589  0.92053  0.56001  1.0000
  O   O46       1.0  0.76705  0.92109  0.49838  1.0000
  C   C188      1.0  0.96895  0.71592  0.40440  1.0000
  C   C189      1.0  0.93237  0.69942  0.40242  1.0000
  H   H117      1.0  0.91856  0.68037  0.44849  1.0000
  C   C190      1.0  0.59943  0.80028  0.34282  1.0000
  C   C191      1.0  0.58000  0.80339  0.41395  1.0000
  C   C192      1.0  0.54344  0.78414  0.41092  1.0000
  H   H118      1.0  0.52980  0.78666  0.46289  1.0000
  N   N47       1.0  0.98405  0.70486  0.46529  1.0000
  H   H119      1.0  0.97027  0.68598  0.50659  1.0000
  H   H120      1.0  0.50888  0.71423  0.46713  1.0000
  N   N48       1.0  0.59747  0.82478  0.48850  1.0000
  O   O47       1.0  0.59049  0.80756  0.56000  1.0000
  O   O48       1.0  0.58993  0.84815  0.49838  1.0000
