data_image0
_chemical_formula_structural       H2C6H2C6H2NC18H12NC18H14C6H2C6H2NC18H12NC18H12C2HC2HC2HC2H3C4HC4HNC18H12NC18H14C4HC4HNC18H12NC18H12
_chemical_formula_sum              "H120 C192 N8"
_cell_length_a       43.4813
_cell_length_b       24.9836
_cell_length_c       14.5144
_cell_angle_alpha    93.0039
_cell_angle_beta     88.2746
_cell_angle_gamma    90.0227

_space_group_name_H-M_alt    "P 1"
_space_group_IT_number       1

loop_
  _space_group_symop_operation_xyz
  'x, y, z'

loop_
  _atom_site_type_symbol
  _atom_site_label
  _atom_site_symmetry_multiplicity
  _atom_site_fract_x
  _atom_site_fract_y
  _atom_site_fract_z
  _atom_site_occupancy
  H   H1        1.0  0.03789  0.12261  0.38341  1.0000
  H   H2        1.0  0.49007  0.45607  0.38337  1.0000
  C   C1        1.0  0.03120  0.03896  0.37078  1.0000
  C   C2        1.0  0.04904  0.08697  0.37907  1.0000
  C   C3        1.0  0.08180  0.08922  0.37594  1.0000
  C   C4        1.0  0.09704  0.03900  0.37078  1.0000
  C   C5        1.0  0.08189  0.48875  0.36561  1.0000
  C   C6        1.0  0.04920  0.49097  0.36247  1.0000
  H   H3        1.0  0.03813  0.45532  0.35821  1.0000
  H   H4        1.0  0.12041  0.03901  0.37078  1.0000
  C   C7        1.0  0.49701  0.03895  0.37079  1.0000
  C   C8        1.0  0.47918  0.08644  0.36247  1.0000
  C   C9        1.0  0.44642  0.08884  0.36561  1.0000
  C   C10       1.0  0.43118  0.03891  0.37076  1.0000
  C   C11       1.0  0.44632  0.48901  0.37592  1.0000
  C   C12       1.0  0.47901  0.49145  0.37908  1.0000
  H   H5        1.0  0.49034  0.12183  0.35823  1.0000
  H   H6        1.0  0.40781  0.03890  0.37076  1.0000
  N   N1        1.0  0.14839  0.28903  0.37073  1.0000
  C   C13       1.0  0.13292  0.24032  0.37501  1.0000
  C   C14       1.0  0.18066  0.28904  0.37075  1.0000
  C   C15       1.0  0.13301  0.33773  0.36645  1.0000
  C   C16       1.0  0.10404  0.34197  0.32448  1.0000
  C   C17       1.0  0.08740  0.39043  0.32483  1.0000
  C   C18       1.0  0.09902  0.43936  0.36386  1.0000
  C   C19       1.0  0.12887  0.43573  0.40093  1.0000
  C   C20       1.0  0.14531  0.38705  0.40152  1.0000
  C   C21       1.0  0.14591  0.19102  0.33985  1.0000
  C   C22       1.0  0.12948  0.14230  0.34054  1.0000
  C   C23       1.0  0.09889  0.13863  0.37768  1.0000
  C   C24       1.0  0.08650  0.18754  0.41677  1.0000
  C   C25       1.0  0.10311  0.23604  0.41701  1.0000
  C   C26       1.0  0.19846  0.30377  0.29285  1.0000
  C   C27       1.0  0.23098  0.30335  0.29267  1.0000
  C   C28       1.0  0.24744  0.28897  0.37074  1.0000
  C   C29       1.0  0.22939  0.27464  0.44882  1.0000
  C   C30       1.0  0.19687  0.27428  0.44865  1.0000
  H   H7        1.0  0.13989  0.10994  0.30697  1.0000
  H   H8        1.0  0.16713  0.19050  0.30745  1.0000
  H   H9        1.0  0.09314  0.26879  0.45096  1.0000
  H   H10       1.0  0.06556  0.18835  0.45067  1.0000
  H   H11       1.0  0.09474  0.30920  0.29059  1.0000
  H   H12       1.0  0.06715  0.38959  0.29091  1.0000
  H   H13       1.0  0.18764  0.31455  0.23499  1.0000
  H   H14       1.0  0.24264  0.31489  0.23475  1.0000
  H   H15       1.0  0.23987  0.26306  0.50673  1.0000
  H   H16       1.0  0.18489  0.26349  0.50649  1.0000
  H   H17       1.0  0.16586  0.38757  0.43402  1.0000
  H   H18       1.0  0.13862  0.46810  0.43452  1.0000
  N   N2        1.0  0.37983  0.28888  0.37075  1.0000
  C   C31       1.0  0.39521  0.33786  0.37499  1.0000
  C   C32       1.0  0.34756  0.28887  0.37076  1.0000
  C   C33       1.0  0.39529  0.23993  0.36650  1.0000
  C   C34       1.0  0.42511  0.23314  0.32454  1.0000
  C   C35       1.0  0.44174  0.18469  0.32487  1.0000
  C   C36       1.0  0.42933  0.13813  0.36387  1.0000
  C   C37       1.0  0.39872  0.14400  0.40086  1.0000
  C   C38       1.0  0.38230  0.19274  0.40160  1.0000
  C   C39       1.0  0.38292  0.38501  0.33983  1.0000
  C   C40       1.0  0.39935  0.43376  0.34048  1.0000
  C   C41       1.0  0.42919  0.43970  0.37764  1.0000
  C   C42       1.0  0.44081  0.39316  0.41667  1.0000
  C   C43       1.0  0.42417  0.34470  0.41704  1.0000
  C   C44       1.0  0.33133  0.26953  0.29277  1.0000
  C   C45       1.0  0.29881  0.26994  0.29259  1.0000
  C   C46       1.0  0.28079  0.28893  0.37075  1.0000
  C   C47       1.0  0.29726  0.30789  0.44891  1.0000
  C   C48       1.0  0.32978  0.30824  0.44874  1.0000
  H   H19       1.0  0.38960  0.46410  0.30698  1.0000
  H   H20       1.0  0.36235  0.38356  0.30745  1.0000
  H   H21       1.0  0.43346  0.31402  0.45098  1.0000
  H   H22       1.0  0.46104  0.39444  0.45071  1.0000
  H   H23       1.0  0.43509  0.26383  0.29061  1.0000
  H   H24       1.0  0.46267  0.18347  0.29096  1.0000
  H   H25       1.0  0.34331  0.25532  0.23486  1.0000
  H   H26       1.0  0.28832  0.25497  0.23460  1.0000
  H   H27       1.0  0.28561  0.32290  0.50689  1.0000
  H   H28       1.0  0.34061  0.32246  0.50665  1.0000
  H   H29       1.0  0.36106  0.19418  0.43393  1.0000
  H   H30       1.0  0.38830  0.11369  0.43448  1.0000
  H   H31       1.0  0.53789  0.12261  0.38341  1.0000
  H   H32       1.0  0.99007  0.45607  0.38337  1.0000
  C   C49       1.0  0.53120  0.03896  0.37078  1.0000
  C   C50       1.0  0.54904  0.08697  0.37907  1.0000
  C   C51       1.0  0.58179  0.08922  0.37594  1.0000
  C   C52       1.0  0.59704  0.03900  0.37078  1.0000
  C   C53       1.0  0.58189  0.48875  0.36561  1.0000
  C   C54       1.0  0.54920  0.49097  0.36247  1.0000
  H   H33       1.0  0.53813  0.45532  0.35821  1.0000
  H   H34       1.0  0.62041  0.03901  0.37078  1.0000
  C   C55       1.0  0.99701  0.03895  0.37079  1.0000
  C   C56       1.0  0.97918  0.08644  0.36247  1.0000
  C   C57       1.0  0.94642  0.08884  0.36561  1.0000
  C   C58       1.0  0.93118  0.03891  0.37076  1.0000
  C   C59       1.0  0.94632  0.48901  0.37592  1.0000
  C   C60       1.0  0.97901  0.49145  0.37908  1.0000
  H   H35       1.0  0.99034  0.12183  0.35823  1.0000
  H   H36       1.0  0.90781  0.03890  0.37076  1.0000
  N   N3        1.0  0.64839  0.28903  0.37073  1.0000
  C   C61       1.0  0.63292  0.24032  0.37501  1.0000
  C   C62       1.0  0.68066  0.28904  0.37075  1.0000
  C   C63       1.0  0.63301  0.33773  0.36645  1.0000
  C   C64       1.0  0.60404  0.34197  0.32448  1.0000
  C   C65       1.0  0.58740  0.39043  0.32483  1.0000
  C   C66       1.0  0.59902  0.43936  0.36386  1.0000
  C   C67       1.0  0.62887  0.43573  0.40093  1.0000
  C   C68       1.0  0.64531  0.38705  0.40152  1.0000
  C   C69       1.0  0.64591  0.19102  0.33985  1.0000
  C   C70       1.0  0.62948  0.14230  0.34054  1.0000
  C   C71       1.0  0.59888  0.13863  0.37768  1.0000
  C   C72       1.0  0.58649  0.18754  0.41677  1.0000
  C   C73       1.0  0.60311  0.23604  0.41701  1.0000
  C   C74       1.0  0.69846  0.30377  0.29285  1.0000
  C   C75       1.0  0.73098  0.30335  0.29267  1.0000
  C   C76       1.0  0.74743  0.28897  0.37074  1.0000
  C   C77       1.0  0.72940  0.27464  0.44882  1.0000
  C   C78       1.0  0.69687  0.27428  0.44865  1.0000
  H   H37       1.0  0.63989  0.10994  0.30697  1.0000
  H   H38       1.0  0.66713  0.19050  0.30745  1.0000
  H   H39       1.0  0.59314  0.26879  0.45096  1.0000
  H   H40       1.0  0.56556  0.18835  0.45067  1.0000
  H   H41       1.0  0.59474  0.30920  0.29059  1.0000
  H   H42       1.0  0.56715  0.38959  0.29091  1.0000
  H   H43       1.0  0.68764  0.31455  0.23499  1.0000
  H   H44       1.0  0.74264  0.31489  0.23475  1.0000
  H   H45       1.0  0.73987  0.26306  0.50673  1.0000
  H   H46       1.0  0.68489  0.26349  0.50649  1.0000
  H   H47       1.0  0.66586  0.38757  0.43402  1.0000
  H   H48       1.0  0.63862  0.46810  0.43452  1.0000
  N   N4        1.0  0.87983  0.28888  0.37075  1.0000
  C   C79       1.0  0.89521  0.33786  0.37499  1.0000
  C   C80       1.0  0.84756  0.28887  0.37076  1.0000
  C   C81       1.0  0.89529  0.23993  0.36650  1.0000
  C   C82       1.0  0.92511  0.23314  0.32454  1.0000
  C   C83       1.0  0.94174  0.18469  0.32487  1.0000
  C   C84       1.0  0.92933  0.13813  0.36387  1.0000
  C   C85       1.0  0.89872  0.14400  0.40086  1.0000
  C   C86       1.0  0.88230  0.19274  0.40160  1.0000
  C   C87       1.0  0.88293  0.38501  0.33983  1.0000
  C   C88       1.0  0.89935  0.43376  0.34048  1.0000
  C   C89       1.0  0.92919  0.43970  0.37764  1.0000
  C   C90       1.0  0.94081  0.39316  0.41667  1.0000
  C   C91       1.0  0.92417  0.34470  0.41704  1.0000
  C   C92       1.0  0.83133  0.26953  0.29277  1.0000
  C   C93       1.0  0.79881  0.26994  0.29259  1.0000
  C   C94       1.0  0.78079  0.28893  0.37075  1.0000
  C   C95       1.0  0.79726  0.30789  0.44891  1.0000
  C   C96       1.0  0.82978  0.30824  0.44874  1.0000
  H   H49       1.0  0.88959  0.46410  0.30698  1.0000
  H   H50       1.0  0.86235  0.38356  0.30745  1.0000
  H   H51       1.0  0.93346  0.31402  0.45098  1.0000
  H   H52       1.0  0.96104  0.39444  0.45071  1.0000
  H   H53       1.0  0.93509  0.26383  0.29061  1.0000
  H   H54       1.0  0.96267  0.18347  0.29096  1.0000
  H   H55       1.0  0.84331  0.25532  0.23486  1.0000
  H   H56       1.0  0.78832  0.25497  0.23460  1.0000
  H   H57       1.0  0.78561  0.32290  0.50689  1.0000
  H   H58       1.0  0.84061  0.32246  0.50665  1.0000
  H   H59       1.0  0.86106  0.19418  0.43393  1.0000
  H   H60       1.0  0.88830  0.11369  0.43448  1.0000
  C   C97       1.0  0.03120  0.53896  0.37078  1.0000
  C   C98       1.0  0.09704  0.53900  0.37078  1.0000
  H   H61       1.0  0.12041  0.53901  0.37078  1.0000
  C   C99       1.0  0.49701  0.53895  0.37079  1.0000
  C   C100      1.0  0.43118  0.53892  0.37076  1.0000
  H   H62       1.0  0.40781  0.53890  0.37076  1.0000
  C   C101      1.0  0.53120  0.53896  0.37078  1.0000
  C   C102      1.0  0.59704  0.53900  0.37078  1.0000
  H   H63       1.0  0.62041  0.53901  0.37078  1.0000
  C   C103      1.0  0.99701  0.53895  0.37079  1.0000
  C   C104      1.0  0.93118  0.53892  0.37076  1.0000
  H   H64       1.0  0.90781  0.53890  0.37076  1.0000
  H   H65       1.0  0.03789  0.62261  0.38341  1.0000
  H   H66       1.0  0.49007  0.95607  0.38337  1.0000
  C   C105      1.0  0.04904  0.58697  0.37907  1.0000
  C   C106      1.0  0.08180  0.58922  0.37594  1.0000
  C   C107      1.0  0.08189  0.98876  0.36561  1.0000
  C   C108      1.0  0.04920  0.99097  0.36247  1.0000
  H   H67       1.0  0.03813  0.95532  0.35821  1.0000
  C   C109      1.0  0.47918  0.58644  0.36247  1.0000
  C   C110      1.0  0.44642  0.58884  0.36561  1.0000
  C   C111      1.0  0.44632  0.98901  0.37592  1.0000
  C   C112      1.0  0.47901  0.99145  0.37908  1.0000
  H   H68       1.0  0.49034  0.62183  0.35823  1.0000
  N   N5        1.0  0.14839  0.78903  0.37073  1.0000
  C   C113      1.0  0.13292  0.74032  0.37501  1.0000
  C   C114      1.0  0.18066  0.78904  0.37075  1.0000
  C   C115      1.0  0.13301  0.83772  0.36645  1.0000
  C   C116      1.0  0.10404  0.84197  0.32448  1.0000
  C   C117      1.0  0.08740  0.89043  0.32483  1.0000
  C   C118      1.0  0.09902  0.93936  0.36386  1.0000
  C   C119      1.0  0.12887  0.93573  0.40093  1.0000
  C   C120      1.0  0.14531  0.88705  0.40152  1.0000
  C   C121      1.0  0.14591  0.69102  0.33985  1.0000
  C   C122      1.0  0.12948  0.64230  0.34054  1.0000
  C   C123      1.0  0.09889  0.63863  0.37768  1.0000
  C   C124      1.0  0.08650  0.68755  0.41677  1.0000
  C   C125      1.0  0.10311  0.73604  0.41701  1.0000
  C   C126      1.0  0.19846  0.80377  0.29285  1.0000
  C   C127      1.0  0.23098  0.80335  0.29267  1.0000
  C   C128      1.0  0.24743  0.78898  0.37074  1.0000
  C   C129      1.0  0.22940  0.77464  0.44882  1.0000
  C   C130      1.0  0.19687  0.77428  0.44865  1.0000
  H   H69       1.0  0.13989  0.60993  0.30697  1.0000
  H   H70       1.0  0.16713  0.69051  0.30745  1.0000
  H   H71       1.0  0.09314  0.76879  0.45096  1.0000
  H   H72       1.0  0.06556  0.68835  0.45067  1.0000
  H   H73       1.0  0.09474  0.80920  0.29059  1.0000
  H   H74       1.0  0.06715  0.88959  0.29091  1.0000
  H   H75       1.0  0.18764  0.81455  0.23499  1.0000
  H   H76       1.0  0.24264  0.81489  0.23475  1.0000
  H   H77       1.0  0.23988  0.76306  0.50673  1.0000
  H   H78       1.0  0.18489  0.76349  0.50649  1.0000
  H   H79       1.0  0.16586  0.88757  0.43402  1.0000
  H   H80       1.0  0.13862  0.96810  0.43452  1.0000
  N   N6        1.0  0.37983  0.78888  0.37075  1.0000
  C   C131      1.0  0.39521  0.83786  0.37499  1.0000
  C   C132      1.0  0.34756  0.78887  0.37076  1.0000
  C   C133      1.0  0.39529  0.73993  0.36650  1.0000
  C   C134      1.0  0.42511  0.73314  0.32454  1.0000
  C   C135      1.0  0.44174  0.68469  0.32487  1.0000
  C   C136      1.0  0.42933  0.63813  0.36387  1.0000
  C   C137      1.0  0.39872  0.64400  0.40086  1.0000
  C   C138      1.0  0.38230  0.69274  0.40160  1.0000
  C   C139      1.0  0.38293  0.88501  0.33983  1.0000
  C   C140      1.0  0.39935  0.93376  0.34048  1.0000
  C   C141      1.0  0.42919  0.93970  0.37764  1.0000
  C   C142      1.0  0.44081  0.89316  0.41667  1.0000
  C   C143      1.0  0.42417  0.84470  0.41704  1.0000
  C   C144      1.0  0.33133  0.76953  0.29277  1.0000
  C   C145      1.0  0.29881  0.76994  0.29259  1.0000
  C   C146      1.0  0.28079  0.78894  0.37075  1.0000
  C   C147      1.0  0.29726  0.80789  0.44891  1.0000
  C   C148      1.0  0.32978  0.80825  0.44874  1.0000
  H   H81       1.0  0.38959  0.96410  0.30698  1.0000
  H   H82       1.0  0.36235  0.88356  0.30745  1.0000
  H   H83       1.0  0.43346  0.81402  0.45098  1.0000
  H   H84       1.0  0.46104  0.89444  0.45071  1.0000
  H   H85       1.0  0.43509  0.76383  0.29061  1.0000
  H   H86       1.0  0.46267  0.68347  0.29096  1.0000
  H   H87       1.0  0.34331  0.75532  0.23486  1.0000
  H   H88       1.0  0.28832  0.75497  0.23460  1.0000
  H   H89       1.0  0.28561  0.82290  0.50689  1.0000
  H   H90       1.0  0.34061  0.82246  0.50665  1.0000
  H   H91       1.0  0.36107  0.69418  0.43393  1.0000
  H   H92       1.0  0.38830  0.61369  0.43448  1.0000
  H   H93       1.0  0.53789  0.62261  0.38341  1.0000
  H   H94       1.0  0.99007  0.95607  0.38337  1.0000
  C   C149      1.0  0.54904  0.58697  0.37907  1.0000
  C   C150      1.0  0.58180  0.58922  0.37594  1.0000
  C   C151      1.0  0.58189  0.98876  0.36561  1.0000
  C   C152      1.0  0.54920  0.99097  0.36247  1.0000
  H   H95       1.0  0.53813  0.95532  0.35821  1.0000
  C   C153      1.0  0.97918  0.58644  0.36247  1.0000
  C   C154      1.0  0.94642  0.58884  0.36561  1.0000
  C   C155      1.0  0.94632  0.98901  0.37592  1.0000
  C   C156      1.0  0.97901  0.99145  0.37908  1.0000
  H   H96       1.0  0.99034  0.62183  0.35823  1.0000
  N   N7        1.0  0.64839  0.78903  0.37073  1.0000
  C   C157      1.0  0.63292  0.74032  0.37501  1.0000
  C   C158      1.0  0.68066  0.78904  0.37075  1.0000
  C   C159      1.0  0.63301  0.83772  0.36645  1.0000
  C   C160      1.0  0.60404  0.84197  0.32448  1.0000
  C   C161      1.0  0.58740  0.89043  0.32483  1.0000
  C   C162      1.0  0.59902  0.93936  0.36386  1.0000
  C   C163      1.0  0.62887  0.93573  0.40093  1.0000
  C   C164      1.0  0.64531  0.88705  0.40152  1.0000
  C   C165      1.0  0.64591  0.69102  0.33985  1.0000
  C   C166      1.0  0.62947  0.64230  0.34054  1.0000
  C   C167      1.0  0.59889  0.63863  0.37768  1.0000
  C   C168      1.0  0.58650  0.68755  0.41677  1.0000
  C   C169      1.0  0.60311  0.73604  0.41701  1.0000
  C   C170      1.0  0.69846  0.80377  0.29285  1.0000
  C   C171      1.0  0.73098  0.80335  0.29267  1.0000
  C   C172      1.0  0.74744  0.78898  0.37074  1.0000
  C   C173      1.0  0.72939  0.77464  0.44882  1.0000
  C   C174      1.0  0.69687  0.77428  0.44865  1.0000
  H   H97       1.0  0.63989  0.60993  0.30697  1.0000
  H   H98       1.0  0.66713  0.69051  0.30745  1.0000
  H   H99       1.0  0.59314  0.76879  0.45096  1.0000
  H   H100      1.0  0.56556  0.68835  0.45067  1.0000
  H   H101      1.0  0.59474  0.80920  0.29059  1.0000
  H   H102      1.0  0.56715  0.88959  0.29091  1.0000
  H   H103      1.0  0.68764  0.81455  0.23499  1.0000
  H   H104      1.0  0.74264  0.81489  0.23475  1.0000
  H   H105      1.0  0.73987  0.76306  0.50673  1.0000
  H   H106      1.0  0.68489  0.76349  0.50649  1.0000
  H   H107      1.0  0.66586  0.88757  0.43402  1.0000
  H   H108      1.0  0.63862  0.96810  0.43452  1.0000
  N   N8        1.0  0.87983  0.78888  0.37075  1.0000
  C   C175      1.0  0.89521  0.83786  0.37499  1.0000
  C   C176      1.0  0.84756  0.78887  0.37076  1.0000
  C   C177      1.0  0.89529  0.73993  0.36650  1.0000
  C   C178      1.0  0.92511  0.73314  0.32454  1.0000
  C   C179      1.0  0.94174  0.68469  0.32487  1.0000
  C   C180      1.0  0.92933  0.63813  0.36387  1.0000
  C   C181      1.0  0.89872  0.64400  0.40086  1.0000
  C   C182      1.0  0.88230  0.69274  0.40160  1.0000
  C   C183      1.0  0.88292  0.88501  0.33983  1.0000
  C   C184      1.0  0.89935  0.93376  0.34048  1.0000
  C   C185      1.0  0.92919  0.93970  0.37764  1.0000
  C   C186      1.0  0.94081  0.89316  0.41667  1.0000
  C   C187      1.0  0.92417  0.84470  0.41704  1.0000
  C   C188      1.0  0.83133  0.76953  0.29277  1.0000
  C   C189      1.0  0.79881  0.76994  0.29259  1.0000
  C   C190      1.0  0.78079  0.78894  0.37075  1.0000
  C   C191      1.0  0.79726  0.80789  0.44891  1.0000
  C   C192      1.0  0.82978  0.80825  0.44874  1.0000
  H   H109      1.0  0.88959  0.96410  0.30698  1.0000
  H   H110      1.0  0.86235  0.88356  0.30745  1.0000
  H   H111      1.0  0.93346  0.81402  0.45098  1.0000
  H   H112      1.0  0.96104  0.89444  0.45071  1.0000
  H   H113      1.0  0.93509  0.76383  0.29061  1.0000
  H   H114      1.0  0.96267  0.68347  0.29096  1.0000
  H   H115      1.0  0.84331  0.75532  0.23486  1.0000
  H   H116      1.0  0.78832  0.75497  0.23460  1.0000
  H   H117      1.0  0.78561  0.82290  0.50689  1.0000
  H   H118      1.0  0.84061  0.82246  0.50665  1.0000
  H   H119      1.0  0.86106  0.69418  0.43393  1.0000
  H   H120      1.0  0.88830  0.61369  0.43448  1.0000
