data_image0
_chemical_formula_structural       C4NC4NH4N2C2HC4N2HCHC2HC4N2HCHC2HC2H3N2C2NCHNCHCHC2NCHNCHCHC4NC4NH4N2C2HC4N2HCHC2HC4N2HCHC2HC2H3N2C2NCHNCHCHC2NCHNCHCHC4NC4NH4N2C2HC4N2HCHC2HC4N2HCHC2HC2H3N2C2NCHNCHCHC2NCHNCHCHC4NC4NH4N2C2HC4N2HCHC2HC4N2HCHC2HC2H3N2C2NCHNCHCHC2NCHNCHCH
_chemical_formula_sum              "C144 N56 H80"
_cell_length_a       38.7236
_cell_length_b       38.7236
_cell_length_c       15.0547
_cell_angle_alpha    90
_cell_angle_beta     90
_cell_angle_gamma    90

_space_group_name_H-M_alt    "P 1"
_space_group_IT_number       1

loop_
  _space_group_symop_operation_xyz
  'x, y, z'

loop_
  _atom_site_type_symbol
  _atom_site_label
  _atom_site_symmetry_multiplicity
  _atom_site_fract_x
  _atom_site_fract_y
  _atom_site_fract_z
  _atom_site_occupancy
  C   C1        1.0  0.00776  0.48660  0.30861  1.0000
  C   C2        1.0  0.05809  0.43569  0.25448  1.0000
  C   C3        1.0  0.06624  0.47146  0.25328  1.0000
  C   C4        1.0  0.04127  0.49602  0.27932  1.0000
  N   N1        1.0  0.08179  0.41160  0.22824  1.0000
  C   C5        1.0  0.48283  0.01158  0.33689  1.0000
  C   C6        1.0  0.44692  0.00451  0.33450  1.0000
  C   C7        1.0  0.42165  0.02900  0.35927  1.0000
  C   C8        1.0  0.43196  0.06208  0.39022  1.0000
  N   N2        1.0  0.40789  0.08589  0.41592  1.0000
  H   H1        1.0  0.38339  0.08062  0.41717  1.0000
  H   H2        1.0  0.10419  0.41810  0.20445  1.0000
  H   H3        1.0  0.04764  0.02144  0.27389  1.0000
  H   H4        1.0  0.43860  0.48198  0.30701  1.0000
  N   N3        1.0  0.38750  0.02274  0.34746  1.0000
  N   N4        1.0  0.09923  0.48078  0.23557  1.0000
  C   C9        1.0  0.02904  0.28305  0.34676  1.0000
  C   C10       1.0  0.02665  0.31856  0.32827  1.0000
  H   H5        1.0  0.04832  0.33126  0.30721  1.0000
  C   C11       1.0  0.00171  0.22961  0.39293  1.0000
  C   C12       1.0  0.00611  0.15754  0.41316  1.0000
  C   C13       1.0  0.03597  0.17689  0.39136  1.0000
  C   C14       1.0  0.03382  0.21288  0.37946  1.0000
  N   N5        1.0  0.06121  0.23195  0.35160  1.0000
  N   N6        1.0  0.05896  0.26517  0.33622  1.0000
  H   H6        1.0  0.05881  0.16468  0.37755  1.0000
  C   C15       1.0  0.00706  0.12119  0.41069  1.0000
  H   H7        1.0  0.02958  0.10901  0.39418  1.0000
  C   C16       1.0  0.20810  0.97657  0.22687  1.0000
  C   C17       1.0  0.17211  0.97801  0.21592  1.0000
  H   H8        1.0  0.15929  0.95573  0.20041  1.0000
  C   C18       1.0  0.26171  0.00439  0.26950  1.0000
  C   C19       1.0  0.33281  0.99827  0.30529  1.0000
  C   C20       1.0  0.31382  0.96927  0.27547  1.0000
  C   C21       1.0  0.27826  0.97206  0.25799  1.0000
  N   N7        1.0  0.25920  0.94450  0.23141  1.0000
  N   N8        1.0  0.22593  0.94661  0.21701  1.0000
  H   H9        1.0  0.32571  0.94589  0.26667  1.0000
  C   C22       1.0  0.36857  0.99542  0.32025  1.0000
  H   H10       1.0  0.38060  0.97247  0.30732  1.0000
  C   C23       1.0  0.00064  0.45069  0.31098  1.0000
  C   C24       1.0  0.02506  0.42543  0.28585  1.0000
  H   H11       1.0  0.47813  0.44236  0.33860  1.0000
  C   C25       1.0  0.46775  0.07017  0.39162  1.0000
  C   C26       1.0  0.49228  0.04510  0.36597  1.0000
  H   H12       1.0  0.01772  0.05136  0.37167  1.0000
  H   H13       1.0  0.41441  0.10836  0.43927  1.0000
  H   H14       1.0  0.07645  0.38711  0.22673  1.0000
  N   N9        1.0  0.47719  0.10316  0.40923  1.0000
  N   N10       1.0  0.01886  0.39129  0.29766  1.0000
  C   C27       1.0  0.99498  0.33639  0.33972  1.0000
  C   C28       1.0  0.96621  0.31710  0.36962  1.0000
  N   N11       1.0  0.96916  0.28283  0.38648  1.0000
  C   C29       1.0  0.99925  0.26528  0.37646  1.0000
  H   H15       1.0  0.94270  0.32853  0.37934  1.0000
  N   N12       1.0  0.97387  0.21074  0.41798  1.0000
  C   C30       1.0  0.97515  0.17606  0.42909  1.0000
  H   H16       1.0  0.95274  0.16372  0.44562  1.0000
  C   C31       1.0  0.99174  0.37215  0.32515  1.0000
  H   H17       1.0  0.96873  0.38401  0.33852  1.0000
  C   C32       1.0  0.15385  0.00920  0.23110  1.0000
  C   C33       1.0  0.17349  0.03895  0.25187  1.0000
  N   N13       1.0  0.20818  0.03671  0.26341  1.0000
  C   C34       1.0  0.22602  0.00680  0.25279  1.0000
  H   H18       1.0  0.16179  0.06213  0.26423  1.0000
  N   N14       1.0  0.28043  0.03181  0.29826  1.0000
  C   C35       1.0  0.31467  0.02976  0.31638  1.0000
  H   H19       1.0  0.32689  0.05169  0.33720  1.0000
  C   C36       1.0  0.11751  0.01047  0.23391  1.0000
  H   H20       1.0  0.10556  0.03319  0.24993  1.0000
  C   C37       1.0  0.00776  0.98660  0.30861  1.0000
  C   C38       1.0  0.05809  0.93569  0.25448  1.0000
  C   C39       1.0  0.06624  0.97146  0.25328  1.0000
  C   C40       1.0  0.04127  0.99602  0.27932  1.0000
  N   N15       1.0  0.08179  0.91160  0.22824  1.0000
  C   C41       1.0  0.48283  0.51158  0.33689  1.0000
  C   C42       1.0  0.44692  0.50451  0.33450  1.0000
  C   C43       1.0  0.42165  0.52900  0.35927  1.0000
  C   C44       1.0  0.43196  0.56208  0.39022  1.0000
  N   N16       1.0  0.40789  0.58589  0.41592  1.0000
  H   H21       1.0  0.38339  0.58062  0.41717  1.0000
  H   H22       1.0  0.10419  0.91810  0.20445  1.0000
  H   H23       1.0  0.04764  0.52144  0.27389  1.0000
  H   H24       1.0  0.43860  0.98198  0.30701  1.0000
  N   N17       1.0  0.38750  0.52274  0.34746  1.0000
  N   N18       1.0  0.09923  0.98078  0.23557  1.0000
  C   C45       1.0  0.02904  0.78305  0.34676  1.0000
  C   C46       1.0  0.02665  0.81856  0.32827  1.0000
  H   H25       1.0  0.04832  0.83126  0.30721  1.0000
  C   C47       1.0  0.00171  0.72961  0.39293  1.0000
  C   C48       1.0  0.00611  0.65754  0.41316  1.0000
  C   C49       1.0  0.03597  0.67690  0.39136  1.0000
  C   C50       1.0  0.03382  0.71288  0.37946  1.0000
  N   N19       1.0  0.06121  0.73195  0.35160  1.0000
  N   N20       1.0  0.05896  0.76517  0.33622  1.0000
  H   H26       1.0  0.05881  0.66468  0.37755  1.0000
  C   C51       1.0  0.00706  0.62119  0.41069  1.0000
  H   H27       1.0  0.02958  0.60901  0.39418  1.0000
  C   C52       1.0  0.20810  0.47657  0.22687  1.0000
  C   C53       1.0  0.17211  0.47801  0.21592  1.0000
  H   H28       1.0  0.15929  0.45573  0.20041  1.0000
  C   C54       1.0  0.26171  0.50439  0.26950  1.0000
  C   C55       1.0  0.33281  0.49827  0.30529  1.0000
  C   C56       1.0  0.31382  0.46927  0.27547  1.0000
  C   C57       1.0  0.27826  0.47206  0.25799  1.0000
  N   N21       1.0  0.25920  0.44450  0.23141  1.0000
  N   N22       1.0  0.22593  0.44661  0.21701  1.0000
  H   H29       1.0  0.32571  0.44589  0.26667  1.0000
  C   C58       1.0  0.36857  0.49542  0.32025  1.0000
  H   H30       1.0  0.38060  0.47247  0.30732  1.0000
  C   C59       1.0  0.00064  0.95069  0.31098  1.0000
  C   C60       1.0  0.02506  0.92543  0.28585  1.0000
  H   H31       1.0  0.47813  0.94236  0.33860  1.0000
  C   C61       1.0  0.46775  0.57017  0.39162  1.0000
  C   C62       1.0  0.49228  0.54510  0.36597  1.0000
  H   H32       1.0  0.01772  0.55136  0.37167  1.0000
  H   H33       1.0  0.41441  0.60835  0.43927  1.0000
  H   H34       1.0  0.07645  0.88711  0.22673  1.0000
  N   N23       1.0  0.47719  0.60316  0.40923  1.0000
  N   N24       1.0  0.01886  0.89129  0.29766  1.0000
  C   C63       1.0  0.99498  0.83639  0.33972  1.0000
  C   C64       1.0  0.96621  0.81710  0.36962  1.0000
  N   N25       1.0  0.96916  0.78283  0.38648  1.0000
  C   C65       1.0  0.99925  0.76528  0.37646  1.0000
  H   H35       1.0  0.94270  0.82853  0.37934  1.0000
  N   N26       1.0  0.97387  0.71074  0.41798  1.0000
  C   C66       1.0  0.97515  0.67606  0.42909  1.0000
  H   H36       1.0  0.95274  0.66373  0.44562  1.0000
  C   C67       1.0  0.99174  0.87215  0.32515  1.0000
  H   H37       1.0  0.96873  0.88401  0.33852  1.0000
  C   C68       1.0  0.15385  0.50920  0.23110  1.0000
  C   C69       1.0  0.17349  0.53895  0.25187  1.0000
  N   N27       1.0  0.20818  0.53671  0.26341  1.0000
  C   C70       1.0  0.22602  0.50680  0.25279  1.0000
  H   H38       1.0  0.16179  0.56213  0.26423  1.0000
  N   N28       1.0  0.28043  0.53181  0.29826  1.0000
  C   C71       1.0  0.31467  0.52977  0.31638  1.0000
  H   H39       1.0  0.32689  0.55170  0.33720  1.0000
  C   C72       1.0  0.11751  0.51047  0.23391  1.0000
  H   H40       1.0  0.10556  0.53319  0.24993  1.0000
  C   C73       1.0  0.50776  0.48660  0.30861  1.0000
  C   C74       1.0  0.55809  0.43569  0.25448  1.0000
  C   C75       1.0  0.56624  0.47146  0.25328  1.0000
  C   C76       1.0  0.54127  0.49602  0.27932  1.0000
  N   N29       1.0  0.58179  0.41160  0.22824  1.0000
  C   C77       1.0  0.98283  0.01158  0.33689  1.0000
  C   C78       1.0  0.94692  0.00451  0.33450  1.0000
  C   C79       1.0  0.92165  0.02900  0.35927  1.0000
  C   C80       1.0  0.93196  0.06208  0.39022  1.0000
  N   N30       1.0  0.90789  0.08589  0.41592  1.0000
  H   H41       1.0  0.88339  0.08062  0.41717  1.0000
  H   H42       1.0  0.60419  0.41810  0.20445  1.0000
  H   H43       1.0  0.54765  0.02144  0.27389  1.0000
  H   H44       1.0  0.93860  0.48198  0.30701  1.0000
  N   N31       1.0  0.88751  0.02274  0.34746  1.0000
  N   N32       1.0  0.59923  0.48078  0.23557  1.0000
  C   C81       1.0  0.52904  0.28305  0.34676  1.0000
  C   C82       1.0  0.52665  0.31856  0.32827  1.0000
  H   H45       1.0  0.54832  0.33126  0.30721  1.0000
  C   C83       1.0  0.50171  0.22961  0.39293  1.0000
  C   C84       1.0  0.50611  0.15754  0.41316  1.0000
  C   C85       1.0  0.53597  0.17689  0.39136  1.0000
  C   C86       1.0  0.53382  0.21288  0.37946  1.0000
  N   N33       1.0  0.56121  0.23195  0.35160  1.0000
  N   N34       1.0  0.55896  0.26517  0.33622  1.0000
  H   H46       1.0  0.55881  0.16468  0.37755  1.0000
  C   C87       1.0  0.50706  0.12119  0.41069  1.0000
  H   H47       1.0  0.52958  0.10901  0.39418  1.0000
  C   C88       1.0  0.70810  0.97657  0.22687  1.0000
  C   C89       1.0  0.67211  0.97801  0.21592  1.0000
  H   H48       1.0  0.65929  0.95573  0.20041  1.0000
  C   C90       1.0  0.76171  0.00439  0.26950  1.0000
  C   C91       1.0  0.83281  0.99827  0.30529  1.0000
  C   C92       1.0  0.81382  0.96927  0.27547  1.0000
  C   C93       1.0  0.77826  0.97206  0.25799  1.0000
  N   N35       1.0  0.75920  0.94450  0.23141  1.0000
  N   N36       1.0  0.72593  0.94661  0.21701  1.0000
  H   H49       1.0  0.82571  0.94589  0.26667  1.0000
  C   C94       1.0  0.86857  0.99542  0.32025  1.0000
  H   H50       1.0  0.88060  0.97247  0.30732  1.0000
  C   C95       1.0  0.50064  0.45069  0.31098  1.0000
  C   C96       1.0  0.52506  0.42543  0.28585  1.0000
  H   H51       1.0  0.97813  0.44236  0.33860  1.0000
  C   C97       1.0  0.96775  0.07017  0.39162  1.0000
  C   C98       1.0  0.99228  0.04510  0.36597  1.0000
  H   H52       1.0  0.51772  0.05136  0.37167  1.0000
  H   H53       1.0  0.91441  0.10836  0.43927  1.0000
  H   H54       1.0  0.57645  0.38711  0.22673  1.0000
  N   N37       1.0  0.97719  0.10316  0.40923  1.0000
  N   N38       1.0  0.51886  0.39129  0.29766  1.0000
  C   C99       1.0  0.49498  0.33639  0.33972  1.0000
  C   C100      1.0  0.46621  0.31710  0.36962  1.0000
  N   N39       1.0  0.46916  0.28283  0.38648  1.0000
  C   C101      1.0  0.49925  0.26528  0.37646  1.0000
  H   H55       1.0  0.44270  0.32853  0.37934  1.0000
  N   N40       1.0  0.47387  0.21074  0.41798  1.0000
  C   C102      1.0  0.47515  0.17606  0.42909  1.0000
  H   H56       1.0  0.45274  0.16372  0.44562  1.0000
  C   C103      1.0  0.49174  0.37215  0.32515  1.0000
  H   H57       1.0  0.46873  0.38401  0.33852  1.0000
  C   C104      1.0  0.65385  0.00920  0.23110  1.0000
  C   C105      1.0  0.67349  0.03895  0.25187  1.0000
  N   N41       1.0  0.70818  0.03671  0.26341  1.0000
  C   C106      1.0  0.72602  0.00680  0.25279  1.0000
  H   H58       1.0  0.66179  0.06213  0.26423  1.0000
  N   N42       1.0  0.78043  0.03181  0.29826  1.0000
  C   C107      1.0  0.81467  0.02976  0.31638  1.0000
  H   H59       1.0  0.82689  0.05169  0.33720  1.0000
  C   C108      1.0  0.61750  0.01047  0.23391  1.0000
  H   H60       1.0  0.60556  0.03319  0.24993  1.0000
  C   C109      1.0  0.50776  0.98660  0.30861  1.0000
  C   C110      1.0  0.55809  0.93569  0.25448  1.0000
  C   C111      1.0  0.56624  0.97146  0.25328  1.0000
  C   C112      1.0  0.54127  0.99602  0.27932  1.0000
  N   N43       1.0  0.58179  0.91160  0.22824  1.0000
  C   C113      1.0  0.98283  0.51158  0.33689  1.0000
  C   C114      1.0  0.94692  0.50451  0.33450  1.0000
  C   C115      1.0  0.92165  0.52900  0.35927  1.0000
  C   C116      1.0  0.93196  0.56208  0.39022  1.0000
  N   N44       1.0  0.90789  0.58589  0.41592  1.0000
  H   H61       1.0  0.88339  0.58062  0.41717  1.0000
  H   H62       1.0  0.60419  0.91810  0.20445  1.0000
  H   H63       1.0  0.54765  0.52144  0.27389  1.0000
  H   H64       1.0  0.93860  0.98198  0.30701  1.0000
  N   N45       1.0  0.88751  0.52274  0.34746  1.0000
  N   N46       1.0  0.59923  0.98078  0.23557  1.0000
  C   C117      1.0  0.52904  0.78305  0.34676  1.0000
  C   C118      1.0  0.52665  0.81856  0.32827  1.0000
  H   H65       1.0  0.54832  0.83126  0.30721  1.0000
  C   C119      1.0  0.50171  0.72961  0.39293  1.0000
  C   C120      1.0  0.50611  0.65754  0.41316  1.0000
  C   C121      1.0  0.53597  0.67690  0.39136  1.0000
  C   C122      1.0  0.53382  0.71288  0.37946  1.0000
  N   N47       1.0  0.56121  0.73195  0.35160  1.0000
  N   N48       1.0  0.55896  0.76517  0.33622  1.0000
  H   H66       1.0  0.55881  0.66468  0.37755  1.0000
  C   C123      1.0  0.50706  0.62119  0.41069  1.0000
  H   H67       1.0  0.52958  0.60901  0.39418  1.0000
  C   C124      1.0  0.70810  0.47657  0.22687  1.0000
  C   C125      1.0  0.67211  0.47801  0.21592  1.0000
  H   H68       1.0  0.65929  0.45573  0.20041  1.0000
  C   C126      1.0  0.76171  0.50439  0.26950  1.0000
  C   C127      1.0  0.83281  0.49827  0.30529  1.0000
  C   C128      1.0  0.81382  0.46927  0.27547  1.0000
  C   C129      1.0  0.77826  0.47206  0.25799  1.0000
  N   N49       1.0  0.75920  0.44450  0.23141  1.0000
  N   N50       1.0  0.72593  0.44661  0.21701  1.0000
  H   H69       1.0  0.82571  0.44589  0.26667  1.0000
  C   C130      1.0  0.86857  0.49542  0.32025  1.0000
  H   H70       1.0  0.88060  0.47247  0.30732  1.0000
  C   C131      1.0  0.50064  0.95069  0.31098  1.0000
  C   C132      1.0  0.52506  0.92543  0.28585  1.0000
  H   H71       1.0  0.97813  0.94236  0.33860  1.0000
  C   C133      1.0  0.96775  0.57017  0.39162  1.0000
  C   C134      1.0  0.99228  0.54510  0.36597  1.0000
  H   H72       1.0  0.51772  0.55136  0.37167  1.0000
  H   H73       1.0  0.91441  0.60835  0.43927  1.0000
  H   H74       1.0  0.57645  0.88711  0.22673  1.0000
  N   N51       1.0  0.97719  0.60316  0.40923  1.0000
  N   N52       1.0  0.51886  0.89129  0.29766  1.0000
  C   C135      1.0  0.49498  0.83639  0.33972  1.0000
  C   C136      1.0  0.46621  0.81710  0.36962  1.0000
  N   N53       1.0  0.46916  0.78283  0.38648  1.0000
  C   C137      1.0  0.49925  0.76528  0.37646  1.0000
  H   H75       1.0  0.44270  0.82853  0.37934  1.0000
  N   N54       1.0  0.47387  0.71074  0.41798  1.0000
  C   C138      1.0  0.47515  0.67606  0.42909  1.0000
  H   H76       1.0  0.45274  0.66373  0.44562  1.0000
  C   C139      1.0  0.49174  0.87215  0.32515  1.0000
  H   H77       1.0  0.46873  0.88401  0.33852  1.0000
  C   C140      1.0  0.65385  0.50920  0.23110  1.0000
  C   C141      1.0  0.67349  0.53895  0.25187  1.0000
  N   N55       1.0  0.70818  0.53671  0.26341  1.0000
  C   C142      1.0  0.72602  0.50680  0.25279  1.0000
  H   H78       1.0  0.66179  0.56213  0.26423  1.0000
  N   N56       1.0  0.78043  0.53181  0.29826  1.0000
  C   C143      1.0  0.81467  0.52977  0.31638  1.0000
  H   H79       1.0  0.82689  0.55170  0.33720  1.0000
  C   C144      1.0  0.61750  0.51047  0.23391  1.0000
  H   H80       1.0  0.60556  0.53319  0.24993  1.0000
