data_image0
_chemical_formula_structural       OHC6HC2HOHC2H2C4HC4HO2H2C2H2C4HC4HO2H2C2H2NC2HN2C2HN2C2HN2C2HN2C2HN2C2HNC2HC2HC2H2C2HC2HC2H2C2HC2HC2H2CNC2O2HNCNC2O2HNCNC2O2HNCNC2O2HNCNC2O2HNCNC2O2HN
_chemical_formula_sum              "O18 H42 C78 N24"
_cell_length_a       31.6353
_cell_length_b       31.6353
_cell_length_c       14.9571
_cell_angle_alpha    90
_cell_angle_beta     90
_cell_angle_gamma    120

_space_group_name_H-M_alt    "P 1"
_space_group_IT_number       1

loop_
  _space_group_symop_operation_xyz
  'x, y, z'

loop_
  _atom_site_type_symbol
  _atom_site_label
  _atom_site_symmetry_multiplicity
  _atom_site_fract_x
  _atom_site_fract_y
  _atom_site_fract_z
  _atom_site_occupancy
  O   O1        1.0  0.01915  0.58605  0.25485  1.0000
  H   H1        1.0  0.01357  0.60718  0.29574  1.0000
  C   C1        1.0  0.02785  0.51924  0.31230  1.0000
  C   C2        1.0  0.04689  0.57063  0.29884  1.0000
  C   C3        1.0  0.97645  0.48370  0.31239  1.0000
  C   C4        1.0  0.87737  0.41451  0.34908  1.0000
  C   C5        1.0  0.90800  0.39696  0.31871  1.0000
  C   C6        1.0  0.95740  0.43232  0.29891  1.0000
  H   H2        1.0  0.84130  0.39022  0.35967  1.0000
  C   C7        1.0  0.09630  0.60596  0.31858  1.0000
  C   C8        1.0  0.12694  0.58839  0.34874  1.0000
  H   H3        1.0  0.16299  0.61267  0.35957  1.0000
  O   O2        1.0  0.98511  0.41691  0.25471  1.0000
  H   H4        1.0  0.99074  0.39578  0.29550  1.0000
  C   C9        1.0  0.88797  0.34580  0.30769  1.0000
  C   C10       1.0  0.11636  0.65714  0.30761  1.0000
  H   H5        1.0  0.90759  0.33169  0.27926  1.0000
  H   H6        1.0  0.09672  0.67127  0.27931  1.0000
  C   C11       1.0  0.51987  0.49345  0.31246  1.0000
  C   C12       1.0  0.58910  0.46363  0.34914  1.0000
  C   C13       1.0  0.60662  0.51179  0.31870  1.0000
  C   C14       1.0  0.57125  0.52580  0.29890  1.0000
  H   H7        1.0  0.61339  0.45186  0.35987  1.0000
  C   C15       1.0  0.48431  0.50927  0.31247  1.0000
  C   C16       1.0  0.43293  0.47689  0.29891  1.0000
  C   C17       1.0  0.39755  0.49093  0.31849  1.0000
  C   C18       1.0  0.41507  0.53917  0.34848  1.0000
  H   H8        1.0  0.39075  0.55093  0.35894  1.0000
  O   O3        1.0  0.58660  0.56890  0.25469  1.0000
  O   O4        1.0  0.41754  0.43371  0.25497  1.0000
  H   H9        1.0  0.60776  0.59568  0.29544  1.0000
  H   H10       1.0  0.39643  0.40701  0.29589  1.0000
  C   C19       1.0  0.65779  0.54292  0.30761  1.0000
  C   C20       1.0  0.34638  0.45975  0.30755  1.0000
  H   H11       1.0  0.67188  0.57664  0.27914  1.0000
  H   H12       1.0  0.33229  0.42597  0.27932  1.0000
  C   C21       1.0  0.51011  0.02715  0.31241  1.0000
  C   C22       1.0  0.53994  0.12620  0.34934  1.0000
  C   C23       1.0  0.49179  0.09557  0.31881  1.0000
  C   C24       1.0  0.47777  0.04619  0.29893  1.0000
  H   H13       1.0  0.55168  0.16224  0.36014  1.0000
  C   C25       1.0  0.49426  0.97577  0.31229  1.0000
  C   C26       1.0  0.52662  0.95674  0.29885  1.0000
  C   C27       1.0  0.51258  0.90735  0.31866  1.0000
  C   C28       1.0  0.46439  0.87672  0.34893  1.0000
  H   H14       1.0  0.45264  0.84069  0.35991  1.0000
  O   O5        1.0  0.43468  0.01849  0.25465  1.0000
  O   O6        1.0  0.56978  0.98449  0.25481  1.0000
  H   H15       1.0  0.40789  0.01283  0.29540  1.0000
  H   H16       1.0  0.59650  0.99009  0.29567  1.0000
  C   C29       1.0  0.46066  0.11561  0.30773  1.0000
  C   C30       1.0  0.54372  0.88731  0.30771  1.0000
  H   H17       1.0  0.42692  0.09597  0.27930  1.0000
  H   H18       1.0  0.57750  0.90697  0.27946  1.0000
  N   N1        1.0  0.22930  0.43633  0.30994  1.0000
  C   C31       1.0  0.18637  0.43668  0.31403  1.0000
  C   C32       1.0  0.18570  0.47683  0.35356  1.0000
  H   H19       1.0  0.15621  0.40994  0.28233  1.0000
  N   N2        1.0  0.14678  0.48405  0.34783  1.0000
  N   N3        1.0  0.56720  0.79371  0.31023  1.0000
  C   C33       1.0  0.56692  0.75046  0.31442  1.0000
  C   C34       1.0  0.52667  0.70957  0.35354  1.0000
  H   H20       1.0  0.59370  0.74707  0.28283  1.0000
  N   N4        1.0  0.51946  0.66344  0.34777  1.0000
  N   N5        1.0  0.20996  0.77417  0.30986  1.0000
  C   C35       1.0  0.25324  0.81712  0.31386  1.0000
  C   C36       1.0  0.29406  0.81787  0.35354  1.0000
  H   H21       1.0  0.25662  0.84730  0.28235  1.0000
  N   N6        1.0  0.34019  0.85682  0.34787  1.0000
  N   N7        1.0  0.77485  0.56639  0.30987  1.0000
  C   C37       1.0  0.81783  0.56613  0.31402  1.0000
  C   C38       1.0  0.81855  0.52602  0.35364  1.0000
  H   H22       1.0  0.84793  0.59278  0.28207  1.0000
  N   N8        1.0  0.85749  0.51883  0.34791  1.0000
  N   N9        1.0  0.43719  0.20922  0.31008  1.0000
  C   C39       1.0  0.43752  0.25250  0.31414  1.0000
  C   C40       1.0  0.47765  0.29332  0.35371  1.0000
  H   H23       1.0  0.41069  0.25588  0.28275  1.0000
  N   N10       1.0  0.48481  0.33945  0.34817  1.0000
  N   N11       1.0  0.79438  0.22875  0.31002  1.0000
  C   C41       1.0  0.75111  0.18579  0.31409  1.0000
  C   C42       1.0  0.71029  0.18508  0.35372  1.0000
  H   H24       1.0  0.74770  0.15566  0.28231  1.0000
  N   N12       1.0  0.66416  0.14614  0.34806  1.0000
  C   C43       1.0  0.94169  0.49808  0.33604  1.0000
  C   C44       1.0  0.89225  0.46442  0.35326  1.0000
  H   H25       1.0  0.95268  0.53339  0.35170  1.0000
  C   C45       1.0  0.11204  0.53848  0.35303  1.0000
  C   C46       1.0  0.06260  0.50482  0.33576  1.0000
  H   H26       1.0  0.05159  0.46954  0.35174  1.0000
  C   C47       1.0  0.14802  0.52595  0.37313  1.0000
  C   C48       1.0  0.85626  0.47696  0.37332  1.0000
  H   H27       1.0  0.18113  0.55396  0.39398  1.0000
  H   H28       1.0  0.82317  0.44891  0.39419  1.0000
  C   C49       1.0  0.50550  0.44432  0.33607  1.0000
  C   C50       1.0  0.53920  0.42860  0.35344  1.0000
  H   H29       1.0  0.47023  0.42004  0.35212  1.0000
  C   C51       1.0  0.46497  0.57420  0.35281  1.0000
  C   C52       1.0  0.49866  0.55841  0.33594  1.0000
  H   H30       1.0  0.53397  0.58274  0.35158  1.0000
  C   C53       1.0  0.47747  0.62273  0.37256  1.0000
  C   C54       1.0  0.52667  0.38009  0.37363  1.0000
  H   H31       1.0  0.44941  0.62784  0.39312  1.0000
  H   H32       1.0  0.55473  0.37506  0.39451  1.0000
  C   C55       1.0  0.55923  0.06191  0.33611  1.0000
  C   C56       1.0  0.57498  0.11133  0.35345  1.0000
  H   H33       1.0  0.58358  0.05094  0.35172  1.0000
  C   C57       1.0  0.42936  0.89159  0.35316  1.0000
  C   C58       1.0  0.44510  0.94101  0.33578  1.0000
  H   H34       1.0  0.42082  0.95201  0.35173  1.0000
  C   C59       1.0  0.38084  0.85561  0.37333  1.0000
  C   C60       1.0  0.62350  0.14734  0.37351  1.0000
  H   H35       1.0  0.37581  0.82253  0.39426  1.0000
  H   H36       1.0  0.62858  0.18043  0.39444  1.0000
  C   C61       1.0  0.27160  0.47203  0.34664  1.0000
  N   N13       1.0  0.22817  0.51135  0.39114  1.0000
  C   C62       1.0  0.27070  0.51088  0.39191  1.0000
  C   C63       1.0  0.31043  0.54868  0.43433  1.0000
  O   O7        1.0  0.31598  0.58989  0.43093  1.0000
  O   O8        1.0  0.32730  0.53757  0.49892  1.0000
  H   H37       1.0  0.35077  0.55901  0.53420  1.0000
  N   N14       1.0  0.31497  0.47434  0.33484  1.0000
  C   C64       1.0  0.53137  0.80022  0.34658  1.0000
  N   N15       1.0  0.49200  0.71743  0.39074  1.0000
  C   C65       1.0  0.49241  0.76040  0.39148  1.0000
  C   C66       1.0  0.45442  0.76231  0.43333  1.0000
  O   O9        1.0  0.41341  0.72639  0.42920  1.0000
  O   O10       1.0  0.46568  0.78915  0.49957  1.0000
  H   H38       1.0  0.44428  0.79095  0.53532  1.0000
  N   N16       1.0  0.52906  0.84129  0.33487  1.0000
  C   C67       1.0  0.20341  0.73189  0.34658  1.0000
  N   N17       1.0  0.28616  0.77540  0.39106  1.0000
  C   C68       1.0  0.24319  0.73282  0.39175  1.0000
  C   C69       1.0  0.24125  0.69307  0.43418  1.0000
  O   O11       1.0  0.27698  0.68765  0.42973  1.0000
  O   O12       1.0  0.21366  0.67638  0.49923  1.0000
  H   H39       1.0  0.21186  0.65300  0.53446  1.0000
  N   N18       1.0  0.16236  0.68849  0.33490  1.0000
  C   C70       1.0  0.73259  0.53070  0.34669  1.0000
  N   N19       1.0  0.77611  0.49152  0.39136  1.0000
  C   C71       1.0  0.73356  0.49194  0.39216  1.0000
  C   C72       1.0  0.69388  0.45417  0.43471  1.0000
  O   O13       1.0  0.68835  0.41296  0.43139  1.0000
  O   O14       1.0  0.67708  0.46533  0.49936  1.0000
  H   H40       1.0  0.65365  0.44391  0.53473  1.0000
  N   N20       1.0  0.68919  0.52834  0.33498  1.0000
  C   C73       1.0  0.47296  0.20268  0.34665  1.0000
  N   N21       1.0  0.51223  0.28542  0.39114  1.0000
  C   C74       1.0  0.51184  0.24245  0.39180  1.0000
  C   C75       1.0  0.54975  0.24049  0.43389  1.0000
  O   O15       1.0  0.59075  0.27642  0.43007  1.0000
  O   O16       1.0  0.53834  0.21354  0.49999  1.0000
  H   H41       1.0  0.55967  0.21170  0.53588  1.0000
  N   N22       1.0  0.47527  0.16162  0.33496  1.0000
  C   C76       1.0  0.80095  0.27102  0.34684  1.0000
  N   N23       1.0  0.71822  0.22751  0.39143  1.0000
  C   C77       1.0  0.76121  0.27006  0.39222  1.0000
  C   C78       1.0  0.76312  0.30976  0.43474  1.0000
  O   O17       1.0  0.72744  0.31529  0.43142  1.0000
  O   O18       1.0  0.79110  0.32659  0.49935  1.0000
  H   H42       1.0  0.79311  0.35003  0.53468  1.0000
  N   N24       1.0  0.84199  0.31442  0.33508  1.0000
