data_image0
_chemical_formula_structural       CNHCNCHNCHNCNCNCNC18H12CNCNCNC18H12C2NCNH2C2NCNH2C2NH2
_chemical_formula_sum              "C54 N15 H33"
_cell_length_a       29.3358
_cell_length_b       29.3358
_cell_length_c       14.9381
_cell_angle_alpha    90
_cell_angle_beta     90
_cell_angle_gamma    120

_space_group_name_H-M_alt    "P 1"
_space_group_IT_number       1

loop_
  _space_group_symop_operation_xyz
  'x, y, z'

loop_
  _atom_site_type_symbol
  _atom_site_label
  _atom_site_symmetry_multiplicity
  _atom_site_fract_x
  _atom_site_fract_y
  _atom_site_fract_z
  _atom_site_occupancy
  C   C1        1.0  0.02827  0.51465  0.25746  1.0000
  N   N1        1.0  0.03133  0.51618  0.41612  1.0000
  H   H1        1.0  0.04604  0.52354  0.19608  1.0000
  C   C2        1.0  0.05786  0.52945  0.33719  1.0000
  N   N2        1.0  0.51718  0.48801  0.26302  1.0000
  C   C3        1.0  0.49053  0.51465  0.25746  1.0000
  H   H2        1.0  0.48164  0.52354  0.19607  1.0000
  N   N3        1.0  0.51718  0.03021  0.26303  1.0000
  C   C4        1.0  0.49053  0.97691  0.25746  1.0000
  H   H3        1.0  0.48164  0.95914  0.19607  1.0000
  N   N4        1.0  0.97497  0.48800  0.26303  1.0000
  C   C5        1.0  0.36363  0.72312  0.33820  1.0000
  N   N5        1.0  0.38913  0.69508  0.33818  1.0000
  C   C6        1.0  0.36363  0.64155  0.33820  1.0000
  N   N6        1.0  0.31010  0.61605  0.33818  1.0000
  C   C7        1.0  0.28206  0.64155  0.33820  1.0000
  N   N7        1.0  0.31010  0.69508  0.33818  1.0000
  C   C8        1.0  0.39175  0.61343  0.33802  1.0000
  C   C9        1.0  0.44759  0.64027  0.33791  1.0000
  C   C10       1.0  0.47537  0.61265  0.33759  1.0000
  C   C11       1.0  0.44803  0.55715  0.33721  1.0000
  C   C12       1.0  0.39254  0.52981  0.33759  1.0000
  C   C13       1.0  0.36491  0.55759  0.33791  1.0000
  C   C14       1.0  0.39175  0.77936  0.33802  1.0000
  C   C15       1.0  0.44759  0.80835  0.33791  1.0000
  C   C16       1.0  0.47537  0.86376  0.33759  1.0000
  C   C17       1.0  0.44803  0.89191  0.33720  1.0000
  C   C18       1.0  0.39254  0.86376  0.33759  1.0000
  C   C19       1.0  0.36491  0.80835  0.33791  1.0000
  C   C20       1.0  0.22582  0.61343  0.33802  1.0000
  C   C21       1.0  0.19683  0.64027  0.33791  1.0000
  C   C22       1.0  0.14142  0.61265  0.33759  1.0000
  C   C23       1.0  0.11327  0.55715  0.33720  1.0000
  C   C24       1.0  0.14142  0.52981  0.33759  1.0000
  C   C25       1.0  0.19683  0.55759  0.33791  1.0000
  H   H4        1.0  0.51568  0.88335  0.33754  1.0000
  H   H5        1.0  0.46896  0.78948  0.33806  1.0000
  H   H6        1.0  0.37182  0.88335  0.33754  1.0000
  H   H7        1.0  0.32467  0.78948  0.33806  1.0000
  H   H8        1.0  0.21570  0.68051  0.33806  1.0000
  H   H9        1.0  0.12183  0.63336  0.33753  1.0000
  H   H10       1.0  0.21570  0.53622  0.33806  1.0000
  H   H11       1.0  0.12183  0.48951  0.33754  1.0000
  H   H12       1.0  0.32467  0.53622  0.33806  1.0000
  H   H13       1.0  0.37182  0.48951  0.33754  1.0000
  H   H14       1.0  0.51567  0.63336  0.33754  1.0000
  H   H15       1.0  0.46896  0.68051  0.33806  1.0000
  C   C26       1.0  0.64258  0.28102  0.33571  1.0000
  N   N8        1.0  0.61709  0.30906  0.33576  1.0000
  C   C27       1.0  0.64258  0.36260  0.33571  1.0000
  N   N9        1.0  0.69612  0.38809  0.33576  1.0000
  C   C28       1.0  0.72416  0.36260  0.33571  1.0000
  N   N10       1.0  0.69612  0.30906  0.33576  1.0000
  C   C29       1.0  0.61446  0.39072  0.33625  1.0000
  C   C30       1.0  0.55863  0.36388  0.33677  1.0000
  C   C31       1.0  0.53084  0.39150  0.33812  1.0000
  C   C32       1.0  0.55819  0.44699  0.33895  1.0000
  C   C33       1.0  0.61368  0.47434  0.33811  1.0000
  C   C34       1.0  0.64130  0.44655  0.33677  1.0000
  C   C35       1.0  0.61446  0.22478  0.33625  1.0000
  C   C36       1.0  0.55863  0.19578  0.33678  1.0000
  C   C37       1.0  0.53084  0.14038  0.33812  1.0000
  C   C38       1.0  0.55819  0.11223  0.33896  1.0000
  C   C39       1.0  0.61368  0.14038  0.33812  1.0000
  C   C40       1.0  0.64130  0.19578  0.33677  1.0000
  C   C41       1.0  0.78040  0.39072  0.33624  1.0000
  C   C42       1.0  0.80940  0.36388  0.33677  1.0000
  C   C43       1.0  0.86480  0.39150  0.33812  1.0000
  C   C44       1.0  0.89295  0.44699  0.33897  1.0000
  C   C45       1.0  0.86480  0.47434  0.33810  1.0000
  C   C46       1.0  0.80940  0.44655  0.33676  1.0000
  H   H16       1.0  0.49055  0.12079  0.33901  1.0000
  H   H17       1.0  0.53726  0.21465  0.33656  1.0000
  H   H18       1.0  0.63439  0.12079  0.33901  1.0000
  H   H19       1.0  0.68154  0.21465  0.33657  1.0000
  H   H20       1.0  0.79053  0.32364  0.33656  1.0000
  H   H21       1.0  0.88439  0.37079  0.33901  1.0000
  H   H22       1.0  0.79053  0.46792  0.33656  1.0000
  H   H23       1.0  0.88439  0.51464  0.33901  1.0000
  H   H24       1.0  0.68154  0.46792  0.33657  1.0000
  H   H25       1.0  0.63439  0.51464  0.33901  1.0000
  H   H26       1.0  0.49055  0.37079  0.33901  1.0000
  H   H27       1.0  0.53726  0.32364  0.33657  1.0000
  C   C47       1.0  0.53045  0.47474  0.34208  1.0000
  C   C48       1.0  0.47574  0.52945  0.33719  1.0000
  N   N11       1.0  0.48900  0.51618  0.41612  1.0000
  C   C49       1.0  0.51573  0.48945  0.42289  1.0000
  N   N12       1.0  0.52653  0.47864  0.50577  1.0000
  H   H28       1.0  0.54548  0.45970  0.51464  1.0000
  H   H29       1.0  0.51540  0.48978  0.55875  1.0000
  C   C50       1.0  0.53045  0.05675  0.34208  1.0000
  C   C51       1.0  0.47574  0.94732  0.33719  1.0000
  N   N13       1.0  0.48900  0.97385  0.41612  1.0000
  C   C52       1.0  0.51573  0.02732  0.42289  1.0000
  N   N14       1.0  0.52654  0.04893  0.50577  1.0000
  H   H30       1.0  0.54548  0.08682  0.51464  1.0000
  H   H31       1.0  0.51540  0.02665  0.55875  1.0000
  C   C53       1.0  0.94843  0.47474  0.34209  1.0000
  C   C54       1.0  0.97786  0.48945  0.42289  1.0000
  N   N15       1.0  0.95626  0.47865  0.50577  1.0000
  H   H32       1.0  0.91837  0.45970  0.51465  1.0000
  H   H33       1.0  0.97853  0.48978  0.55876  1.0000
