data_image0
_chemical_formula_structural       C20NC3H3NHC2NC3H3NHC2NC3H3NHC2NC3H3NHC2NC3H3NHC2NC3H3NHC5NH3NHC5NH3NHC5NH3NHC5NH3NHC5NH3NHC5NH3NHC2NC3H3NHC2NC3H3NHC2NC3H3NHC2NC3H3NHC2NC3H3NHC2NC3H3NHCN2CNC2O3CN2CNC2O3CN2CNC2O3CN2CNC2O3CN2CNC2O3CN2CNC2O3NCNCNC3O3NCNCNC3O3NCNCNC3O3NCNCNC3O3NCNCNC3O3NCNCNC3O3C5NH3NHC5NH3NHC5NH3NHC5NH3NHC5NH3NHC5NH3NHC2NC3H3NHC2NC3H3NHC2NC3H3NHC2NC3H3NHC2NC3H3NHC2NC3H3NHC5NH3NHC5NH3NHC5NH3NHC5NH3NHC5NH3NHC5NH3NH
_chemical_formula_sum              "C252 N108 H144 O36"
_cell_length_a       78.4845
_cell_length_b       78.4844
_cell_length_c       15.0486
_cell_angle_alpha    90
_cell_angle_beta     90
_cell_angle_gamma    120

_space_group_name_H-M_alt    "P 1"
_space_group_IT_number       1

loop_
  _space_group_symop_operation_xyz
  'x, y, z'

loop_
  _atom_site_type_symbol
  _atom_site_label
  _atom_site_symmetry_multiplicity
  _atom_site_fract_x
  _atom_site_fract_y
  _atom_site_fract_z
  _atom_site_occupancy
  C   C1        1.0  0.10550  0.44414  0.38326  1.0000
  C   C2        1.0  0.15658  0.45898  0.33137  1.0000
  C   C3        1.0  0.56584  0.67459  0.38200  1.0000
  C   C4        1.0  0.55098  0.71085  0.33069  1.0000
  C   C5        1.0  0.33525  0.90435  0.38356  1.0000
  C   C6        1.0  0.29909  0.85334  0.32976  1.0000
  C   C7        1.0  0.89907  0.57141  0.38485  1.0000
  C   C8        1.0  0.84812  0.55672  0.33050  1.0000
  C   C9        1.0  0.43855  0.34070  0.38348  1.0000
  C   C10       1.0  0.45343  0.30448  0.33147  1.0000
  C   C11       1.0  0.66911  0.11095  0.38280  1.0000
  C   C12       1.0  0.70540  0.16202  0.33087  1.0000
  C   C13       1.0  0.47334  0.12943  0.28339  1.0000
  C   C14       1.0  0.65296  0.53646  0.28395  1.0000
  C   C15       1.0  0.88024  0.35698  0.28356  1.0000
  C   C16       1.0  0.53105  0.88571  0.28311  1.0000
  C   C17       1.0  0.35152  0.47877  0.28371  1.0000
  C   C18       1.0  0.12425  0.65855  0.28255  1.0000
  C   C19       1.0  0.26377  0.44118  0.32164  1.0000
  C   C20       1.0  0.22729  0.43985  0.33060  1.0000
  N   N1        1.0  0.23391  0.43592  0.25407  1.0000
  C   C21       1.0  0.25117  0.43603  0.24738  1.0000
  C   C22       1.0  0.20198  0.44436  0.25298  1.0000
  C   C23       1.0  0.18456  0.44526  0.25806  1.0000
  H   H1        1.0  0.20948  0.44763  0.19408  1.0000
  H   H2        1.0  0.17947  0.44878  0.20246  1.0000
  H   H3        1.0  0.25524  0.43317  0.18719  1.0000
  N   N2        1.0  0.28149  0.44211  0.31407  1.0000
  H   H4        1.0  0.28149  0.43122  0.28270  1.0000
  C   C24       1.0  0.56888  0.83591  0.32493  1.0000
  C   C25       1.0  0.57001  0.80066  0.33256  1.0000
  N   N3        1.0  0.57395  0.81130  0.25630  1.0000
  C   C26       1.0  0.57390  0.82849  0.25022  1.0000
  C   C27       1.0  0.56546  0.77092  0.25397  1.0000
  C   C28       1.0  0.56458  0.75261  0.25838  1.0000
  H   H5        1.0  0.56212  0.77520  0.19536  1.0000
  H   H6        1.0  0.56104  0.74406  0.20255  1.0000
  H   H7        1.0  0.57679  0.83551  0.19023  1.0000
  N   N4        1.0  0.56805  0.85278  0.31810  1.0000
  H   H8        1.0  0.57895  0.86365  0.28678  1.0000
  C   C29       1.0  0.17401  0.74617  0.32406  1.0000
  C   C30       1.0  0.20929  0.78254  0.33145  1.0000
  N   N5        1.0  0.19864  0.77583  0.25524  1.0000
  C   C31       1.0  0.18143  0.75860  0.24927  1.0000
  C   C32       1.0  0.23902  0.80771  0.25276  1.0000
  C   C33       1.0  0.25733  0.82515  0.25711  1.0000
  H   H9        1.0  0.23473  0.80010  0.19416  1.0000
  H   H10       1.0  0.26587  0.83017  0.20125  1.0000
  H   H11       1.0  0.17441  0.75446  0.18931  1.0000
  N   N6        1.0  0.15715  0.72848  0.31732  1.0000
  H   H12       1.0  0.14627  0.72850  0.28609  1.0000
  C   C34       1.0  0.74074  0.57406  0.32089  1.0000
  C   C35       1.0  0.77728  0.57551  0.32942  1.0000
  N   N7        1.0  0.77064  0.57951  0.25311  1.0000
  C   C36       1.0  0.75334  0.57934  0.24665  1.0000
  C   C37       1.0  0.80271  0.57128  0.25138  1.0000
  C   C38       1.0  0.82018  0.57047  0.25626  1.0000
  H   H13       1.0  0.79521  0.56802  0.19248  1.0000
  H   H14       1.0  0.82532  0.56705  0.20052  1.0000
  H   H15       1.0  0.74928  0.58227  0.18660  1.0000
  N   N8        1.0  0.72299  0.57310  0.31350  1.0000
  H   H16       1.0  0.72295  0.58399  0.28240  1.0000
  C   C39       1.0  0.43566  0.17950  0.32143  1.0000
  C   C40       1.0  0.43432  0.21465  0.33047  1.0000
  N   N9        1.0  0.43039  0.20410  0.25392  1.0000
  C   C41       1.0  0.43052  0.18696  0.24720  1.0000
  C   C42       1.0  0.43883  0.24447  0.25293  1.0000
  C   C43       1.0  0.43973  0.26279  0.25806  1.0000
  H   H17       1.0  0.44211  0.24025  0.19403  1.0000
  H   H18       1.0  0.44326  0.27141  0.20248  1.0000
  H   H19       1.0  0.42766  0.18004  0.18697  1.0000
  N   N10       1.0  0.43661  0.16272  0.31382  1.0000
  H   H20       1.0  0.42573  0.15183  0.28246  1.0000
  C   C44       1.0  0.83031  0.26928  0.32326  1.0000
  C   C45       1.0  0.79516  0.23280  0.33137  1.0000
  N   N11       1.0  0.80579  0.23947  0.25507  1.0000
  C   C46       1.0  0.82293  0.25675  0.24878  1.0000
  C   C47       1.0  0.76543  0.20751  0.25312  1.0000
  C   C48       1.0  0.74713  0.19007  0.25780  1.0000
  H   H21       1.0  0.76969  0.21508  0.19440  1.0000
  H   H22       1.0  0.73856  0.18501  0.20206  1.0000
  H   H23       1.0  0.82994  0.26084  0.18877  1.0000
  N   N12       1.0  0.84713  0.28700  0.31617  1.0000
  H   H24       1.0  0.85803  0.28699  0.28497  1.0000
  C   C49       1.0  0.13825  0.61083  0.23675  1.0000
  C   C50       1.0  0.13887  0.59324  0.24155  1.0000
  C   C51       1.0  0.14170  0.56854  0.33451  1.0000
  C   C52       1.0  0.14055  0.53195  0.34515  1.0000
  C   C53       1.0  0.14438  0.54246  0.26461  1.0000
  N   N13       1.0  0.14450  0.55980  0.26216  1.0000
  H   H25       1.0  0.14644  0.53688  0.20687  1.0000
  H   H26       1.0  0.13613  0.61546  0.17636  1.0000
  H   H27       1.0  0.13676  0.58526  0.18476  1.0000
  N   N14       1.0  0.14003  0.51426  0.34748  1.0000
  H   H28       1.0  0.14993  0.51328  0.31216  1.0000
  C   C54       1.0  0.39933  0.54040  0.23823  1.0000
  C   C55       1.0  0.41687  0.55865  0.24277  1.0000
  C   C56       1.0  0.44148  0.58634  0.33527  1.0000
  C   C57       1.0  0.47802  0.62184  0.34544  1.0000
  C   C58       1.0  0.46752  0.61506  0.26493  1.0000
  N   N15       1.0  0.45020  0.59782  0.26272  1.0000
  H   H29       1.0  0.47308  0.62266  0.20707  1.0000
  H   H30       1.0  0.39474  0.53356  0.17800  1.0000
  H   H31       1.0  0.42488  0.56446  0.18598  1.0000
  N   N16       1.0  0.49569  0.63902  0.34753  1.0000
  H   H32       1.0  0.49668  0.64988  0.31196  1.0000
  C   C59       1.0  0.46937  0.87179  0.23736  1.0000
  C   C60       1.0  0.45116  0.87114  0.24192  1.0000
  C   C61       1.0  0.42355  0.86825  0.33450  1.0000
  C   C62       1.0  0.38811  0.86941  0.34468  1.0000
  C   C63       1.0  0.39487  0.86566  0.26418  1.0000
  N   N17       1.0  0.41207  0.86552  0.26197  1.0000
  H   H33       1.0  0.38727  0.86364  0.20631  1.0000
  H   H34       1.0  0.47618  0.87395  0.17707  1.0000
  H   H35       1.0  0.44531  0.87326  0.18505  1.0000
  N   N18       1.0  0.37096  0.86996  0.34671  1.0000
  H   H36       1.0  0.36009  0.86009  0.31122  1.0000
  C   C64       1.0  0.86639  0.40478  0.23748  1.0000
  C   C65       1.0  0.86577  0.42236  0.24217  1.0000
  C   C66       1.0  0.86279  0.44701  0.33491  1.0000
  C   C67       1.0  0.86398  0.48362  0.34545  1.0000
  C   C68       1.0  0.86030  0.47318  0.26480  1.0000
  N   N19       1.0  0.86014  0.45582  0.26242  1.0000
  H   H37       1.0  0.85834  0.47880  0.20696  1.0000
  H   H38       1.0  0.86862  0.40019  0.17719  1.0000
  H   H39       1.0  0.86797  0.43038  0.18542  1.0000
  N   N20       1.0  0.86454  0.50133  0.34766  1.0000
  H   H40       1.0  0.85474  0.50239  0.31194  1.0000
  C   C69       1.0  0.60512  0.47484  0.23804  1.0000
  C   C70       1.0  0.58755  0.45662  0.24269  1.0000
  C   C71       1.0  0.56291  0.42898  0.33534  1.0000
  C   C72       1.0  0.52635  0.39351  0.34571  1.0000
  C   C73       1.0  0.53685  0.40026  0.26516  1.0000
  N   N21       1.0  0.55417  0.41748  0.26285  1.0000
  H   H41       1.0  0.53126  0.39265  0.20733  1.0000
  H   H42       1.0  0.60972  0.48166  0.17776  1.0000
  H   H43       1.0  0.57954  0.45081  0.18593  1.0000
  N   N22       1.0  0.50867  0.37633  0.34790  1.0000
  H   H44       1.0  0.50770  0.36547  0.31243  1.0000
  C   C74       1.0  0.53499  0.14329  0.23807  1.0000
  C   C75       1.0  0.55324  0.14401  0.24272  1.0000
  C   C76       1.0  0.58093  0.14712  0.33538  1.0000
  C   C77       1.0  0.61643  0.14609  0.34579  1.0000
  C   C78       1.0  0.60965  0.14977  0.26520  1.0000
  N   N23       1.0  0.59241  0.14985  0.26287  1.0000
  H   H45       1.0  0.61725  0.15178  0.20736  1.0000
  H   H46       1.0  0.52815  0.14102  0.17781  1.0000
  H   H47       1.0  0.55906  0.14180  0.18599  1.0000
  N   N24       1.0  0.63361  0.14559  0.34800  1.0000
  H   H48       1.0  0.64446  0.15543  0.31235  1.0000
  C   C79       1.0  0.95255  0.36130  0.26938  1.0000
  C   C80       1.0  0.99213  0.37538  0.31796  1.0000
  N   N25       1.0  0.98694  0.37782  0.23459  1.0000
  C   C81       1.0  0.96812  0.37115  0.20838  1.0000
  C   C82       1.0  0.02740  0.39060  0.27848  1.0000
  C   C83       1.0  0.04705  0.40332  0.30312  1.0000
  H   H49       1.0  0.02424  0.38588  0.21404  1.0000
  H   H50       1.0  0.05771  0.40791  0.25528  1.0000
  H   H51       1.0  0.96554  0.37422  0.14545  1.0000
  N   N26       1.0  0.93409  0.35769  0.24841  1.0000
  H   H52       1.0  0.93325  0.36849  0.22072  1.0000
  C   C84       1.0  0.64877  0.60450  0.26934  1.0000
  C   C85       1.0  0.63468  0.63001  0.31770  1.0000
  N   N27       1.0  0.63231  0.62241  0.23428  1.0000
  C   C86       1.0  0.63898  0.61026  0.20819  1.0000
  C   C87       1.0  0.61950  0.65007  0.27793  1.0000
  C   C88       1.0  0.60676  0.65700  0.30231  1.0000
  H   H53       1.0  0.62421  0.65159  0.21349  1.0000
  H   H54       1.0  0.60216  0.66302  0.25426  1.0000
  H   H55       1.0  0.63598  0.60466  0.14516  1.0000
  N   N28       1.0  0.65237  0.58965  0.24836  1.0000
  H   H56       1.0  0.64153  0.57799  0.22093  1.0000
  C   C89       1.0  0.40537  0.05719  0.26890  1.0000
  C   C90       1.0  0.37988  0.01765  0.31811  1.0000
  N   N29       1.0  0.38743  0.02278  0.23459  1.0000
  C   C91       1.0  0.39957  0.04157  0.20807  1.0000
  C   C92       1.0  0.35974  0.98237  0.27919  1.0000
  C   C93       1.0  0.35276  0.96272  0.30407  1.0000
  H   H57       1.0  0.35822  0.98549  0.21464  1.0000
  H   H58       1.0  0.34674  0.95205  0.25626  1.0000
  H   H59       1.0  0.40514  0.04411  0.14501  1.0000
  N   N30       1.0  0.42020  0.07563  0.24761  1.0000
  H   H60       1.0  0.43186  0.07645  0.22025  1.0000
  C   C94       1.0  0.05188  0.65400  0.26892  1.0000
  C   C95       1.0  0.01235  0.63992  0.31845  1.0000
  N   N31       1.0  0.01746  0.63749  0.23489  1.0000
  C   C96       1.0  0.03625  0.64417  0.20819  1.0000
  C   C97       1.0  0.97704  0.62471  0.27971  1.0000
  C   C98       1.0  0.95741  0.61206  0.30481  1.0000
  H   H61       1.0  0.98014  0.62935  0.21514  1.0000
  H   H62       1.0  0.94671  0.60742  0.25713  1.0000
  H   H63       1.0  0.03877  0.64112  0.14513  1.0000
  N   N32       1.0  0.07034  0.65769  0.24744  1.0000
  H   H64       1.0  0.07118  0.64685  0.22014  1.0000
  C   C99       1.0  0.35569  0.41075  0.26886  1.0000
  C   C100      1.0  0.36977  0.38526  0.31766  1.0000
  N   N33       1.0  0.37223  0.39288  0.23428  1.0000
  C   C101      1.0  0.36555  0.40502  0.20795  1.0000
  C   C102      1.0  0.38500  0.36521  0.27838  1.0000
  C   C103      1.0  0.39772  0.35828  0.30314  1.0000
  H   H65       1.0  0.38029  0.36365  0.21392  1.0000
  H   H66       1.0  0.40232  0.35221  0.25535  1.0000
  H   H67       1.0  0.36864  0.41067  0.14502  1.0000
  N   N34       1.0  0.35211  0.42560  0.24782  1.0000
  H   H68       1.0  0.36292  0.43724  0.22021  1.0000
  C   C104      1.0  0.59894  0.95800  0.26790  1.0000
  C   C105      1.0  0.62436  0.99757  0.31689  1.0000
  N   N35       1.0  0.61681  0.99240  0.23338  1.0000
  C   C106      1.0  0.60470  0.97360  0.20699  1.0000
  C   C107      1.0  0.64445  0.03285  0.27767  1.0000
  C   C108      1.0  0.65141  0.05250  0.30241  1.0000
  H   H69       1.0  0.64599  0.02970  0.21317  1.0000
  H   H70       1.0  0.65746  0.06316  0.25454  1.0000
  H   H71       1.0  0.59913  0.97103  0.14391  1.0000
  N   N36       1.0  0.58414  0.93954  0.24662  1.0000
  H   H72       1.0  0.57244  0.93870  0.21957  1.0000
  C   C109      1.0  0.12412  0.47904  0.37655  1.0000
  N   N37       1.0  0.10681  0.46205  0.38932  1.0000
  N   N38       1.0  0.12202  0.44354  0.36327  1.0000
  C   C110      1.0  0.13961  0.46014  0.35084  1.0000
  N   N39       1.0  0.14037  0.47778  0.35690  1.0000
  C   C111      1.0  0.08726  0.42645  0.38719  1.0000
  C   C112      1.0  0.12490  0.49740  0.38200  1.0000
  O   O1        1.0  0.17283  0.47570  0.30457  1.0000
  O   O2        1.0  0.10891  0.49744  0.41583  1.0000
  O   O3        1.0  0.08672  0.40977  0.35919  1.0000
  C   C113      1.0  0.53094  0.65835  0.37603  1.0000
  N   N40       1.0  0.54794  0.65802  0.38845  1.0000
  N   N41       1.0  0.56644  0.69172  0.36205  1.0000
  C   C114      1.0  0.54983  0.69271  0.34998  1.0000
  N   N42       1.0  0.53219  0.67585  0.35641  1.0000
  C   C115      1.0  0.58353  0.67404  0.38574  1.0000
  C   C116      1.0  0.51257  0.64078  0.38196  1.0000
  O   O4        1.0  0.53424  0.71039  0.30445  1.0000
  O   O5        1.0  0.51256  0.62477  0.41579  1.0000
  O   O6        1.0  0.60019  0.69016  0.35753  1.0000
  C   C117      1.0  0.35156  0.88577  0.37624  1.0000
  N   N43       1.0  0.35184  0.90304  0.38966  1.0000
  N   N44       1.0  0.31816  0.88785  0.36287  1.0000
  C   C118      1.0  0.31720  0.87030  0.34977  1.0000
  N   N45       1.0  0.33409  0.86955  0.35593  1.0000
  C   C119      1.0  0.33574  0.92255  0.38824  1.0000
  C   C120      1.0  0.36916  0.88501  0.38178  1.0000
  O   O7        1.0  0.29958  0.83708  0.30342  1.0000
  O   O8        1.0  0.38513  0.90095  0.41616  1.0000
  O   O9        1.0  0.31958  0.92308  0.36045  1.0000
  C   C121      1.0  0.88040  0.53653  0.37755  1.0000
  N   N46       1.0  0.89770  0.55349  0.39102  1.0000
  N   N47       1.0  0.88261  0.57207  0.36401  1.0000
  C   C122      1.0  0.86503  0.55550  0.35083  1.0000
  N   N48       1.0  0.86422  0.53784  0.35707  1.0000
  C   C123      1.0  0.91731  0.58909  0.38950  1.0000
  C   C124      1.0  0.87957  0.51813  0.38316  1.0000
  O   O10       1.0  0.83188  0.54001  0.30360  1.0000
  O   O11       1.0  0.89548  0.51806  0.41757  1.0000
  O   O12       1.0  0.91790  0.60582  0.36203  1.0000
  C   C125      1.0  0.47345  0.35698  0.37690  1.0000
  N   N49       1.0  0.45645  0.35729  0.38964  1.0000
  N   N50       1.0  0.43796  0.32358  0.36342  1.0000
  C   C126      1.0  0.45457  0.32261  0.35101  1.0000
  N   N51       1.0  0.47220  0.33949  0.35717  1.0000
  C   C127      1.0  0.42085  0.34123  0.38738  1.0000
  C   C128      1.0  0.49181  0.37457  0.38247  1.0000
  O   O13       1.0  0.47015  0.30496  0.30469  1.0000
  O   O14       1.0  0.49183  0.39057  0.41651  1.0000
  O   O15       1.0  0.40418  0.32509  0.35935  1.0000
  C   C129      1.0  0.65291  0.12965  0.37671  1.0000
  N   N52       1.0  0.65256  0.11232  0.38927  1.0000
  N   N53       1.0  0.68624  0.12746  0.36266  1.0000
  C   C130      1.0  0.68726  0.14507  0.35044  1.0000
  N   N54       1.0  0.67041  0.14587  0.35690  1.0000
  C   C131      1.0  0.66853  0.09270  0.38657  1.0000
  C   C132      1.0  0.63535  0.13047  0.38261  1.0000
  O   O16       1.0  0.70495  0.17830  0.30449  1.0000
  O   O17       1.0  0.61934  0.11449  0.41656  1.0000
  O   O18       1.0  0.68464  0.09213  0.35841  1.0000
  N   N55       1.0  0.45636  0.11214  0.27018  1.0000
  C   C133      1.0  0.43845  0.11082  0.27612  1.0000
  N   N56       1.0  0.43784  0.12732  0.29644  1.0000
  C   C134      1.0  0.45443  0.14489  0.30931  1.0000
  N   N57       1.0  0.47207  0.14566  0.30335  1.0000
  C   C135      1.0  0.42076  0.09260  0.27179  1.0000
  C   C136      1.0  0.45327  0.16185  0.32911  1.0000
  C   C137      1.0  0.49171  0.13021  0.27804  1.0000
  O   O19       1.0  0.46998  0.17808  0.35609  1.0000
  O   O20       1.0  0.49177  0.11426  0.24389  1.0000
  O   O21       1.0  0.40406  0.09204  0.29948  1.0000
  N   N58       1.0  0.65266  0.55346  0.27110  1.0000
  C   C138      1.0  0.66925  0.57135  0.27722  1.0000
  N   N59       1.0  0.68637  0.57194  0.29728  1.0000
  C   C139      1.0  0.68734  0.55533  0.30978  1.0000
  N   N60       1.0  0.67045  0.53770  0.30367  1.0000
  C   C140      1.0  0.66873  0.58905  0.27300  1.0000
  C   C141      1.0  0.70546  0.55646  0.32916  1.0000
  C   C142      1.0  0.63537  0.51809  0.27830  1.0000
  O   O22       1.0  0.70498  0.53974  0.35583  1.0000
  O   O23       1.0  0.61937  0.51808  0.24439  1.0000
  O   O24       1.0  0.68487  0.60574  0.30092  1.0000
  N   N61       1.0  0.89755  0.35730  0.27053  1.0000
  C   C143      1.0  0.89890  0.34074  0.27697  1.0000
  N   N62       1.0  0.88242  0.32364  0.29766  1.0000
  C   C144      1.0  0.86484  0.32264  0.31039  1.0000
  N   N63       1.0  0.86404  0.33949  0.30390  1.0000
  C   C145      1.0  0.91713  0.34129  0.27274  1.0000
  C   C146      1.0  0.84791  0.30452  0.33054  1.0000
  C   C147      1.0  0.87943  0.37455  0.27773  1.0000
  O   O25       1.0  0.83163  0.30498  0.35685  1.0000
  O   O26       1.0  0.89537  0.39053  0.24341  1.0000
  O   O27       1.0  0.91770  0.32516  0.30066  1.0000
  N   N64       1.0  0.54802  0.90300  0.26951  1.0000
  C   C148      1.0  0.56594  0.90438  0.27605  1.0000
  N   N65       1.0  0.56659  0.88795  0.29738  1.0000
  C   C149      1.0  0.55002  0.87038  0.31071  1.0000
  N   N66       1.0  0.53236  0.86955  0.30408  1.0000
  C   C150      1.0  0.58361  0.92261  0.27117  1.0000
  C   C151      1.0  0.55124  0.85349  0.33143  1.0000
  C   C152      1.0  0.51266  0.88487  0.27714  1.0000
  O   O28       1.0  0.53451  0.83722  0.35788  1.0000
  O   O29       1.0  0.51260  0.90077  0.24239  1.0000
  O   O30       1.0  0.60035  0.92322  0.29883  1.0000
  N   N67       1.0  0.35180  0.46178  0.27045  1.0000
  C   C153      1.0  0.33520  0.44388  0.27637  1.0000
  N   N68       1.0  0.31809  0.44329  0.29671  1.0000
  C   C154      1.0  0.31714  0.45990  0.30964  1.0000
  N   N69       1.0  0.33403  0.47753  0.30370  1.0000
  C   C155      1.0  0.33570  0.42618  0.27193  1.0000
  C   C156      1.0  0.29903  0.45876  0.32943  1.0000
  C   C157      1.0  0.36912  0.49713  0.27834  1.0000
  O   O31       1.0  0.29953  0.47548  0.35640  1.0000
  O   O32       1.0  0.38511  0.49717  0.24413  1.0000
  O   O33       1.0  0.31956  0.40950  0.29988  1.0000
  N   N70       1.0  0.10693  0.65819  0.26934  1.0000
  C   C158      1.0  0.10553  0.67471  0.27601  1.0000
  N   N71       1.0  0.12197  0.69182  0.29711  1.0000
  C   C159      1.0  0.13956  0.69285  0.31006  1.0000
  N   N72       1.0  0.14041  0.67603  0.30330  1.0000
  C   C160      1.0  0.08728  0.67412  0.27159  1.0000
  C   C161      1.0  0.15646  0.71097  0.33060  1.0000
  C   C162      1.0  0.12512  0.64101  0.27648  1.0000
  O   O34       1.0  0.17275  0.71052  0.35689  1.0000
  O   O35       1.0  0.10922  0.62503  0.24189  1.0000
  O   O36       1.0  0.08666  0.69024  0.29937  1.0000
  C   C163      1.0  0.25733  0.44510  0.40268  1.0000
  C   C164      1.0  0.23905  0.44426  0.40777  1.0000
  C   C165      1.0  0.20928  0.43989  0.33014  1.0000
  C   C166      1.0  0.17419  0.44133  0.33907  1.0000
  C   C167      1.0  0.18160  0.43615  0.41331  1.0000
  N   N73       1.0  0.19872  0.43595  0.40662  1.0000
  H   H73       1.0  0.17464  0.43323  0.47343  1.0000
  H   H74       1.0  0.26594  0.44858  0.45830  1.0000
  H   H75       1.0  0.23482  0.44752  0.46671  1.0000
  N   N74       1.0  0.15742  0.44231  0.34658  1.0000
  H   H76       1.0  0.14651  0.43141  0.37779  1.0000
  C   C168      1.0  0.56494  0.82547  0.40571  1.0000
  C   C169      1.0  0.56569  0.80797  0.41013  1.0000
  C   C170      1.0  0.56995  0.78261  0.33145  1.0000
  C   C171      1.0  0.56857  0.74610  0.33899  1.0000
  C   C172      1.0  0.57378  0.75860  0.41356  1.0000
  N   N75       1.0  0.57395  0.77590  0.40755  1.0000
  H   H77       1.0  0.57676  0.75450  0.47343  1.0000
  H   H78       1.0  0.56152  0.83057  0.46159  1.0000
  H   H79       1.0  0.56243  0.80041  0.46887  1.0000
  N   N76       1.0  0.56767  0.72837  0.34583  1.0000
  H   H80       1.0  0.57856  0.72831  0.37684  1.0000
  C   C173      1.0  0.18448  0.75270  0.40478  1.0000
  C   C174      1.0  0.20199  0.77094  0.40910  1.0000
  C   C175      1.0  0.22735  0.80053  0.33026  1.0000
  C   C176      1.0  0.26385  0.83568  0.33769  1.0000
  C   C177      1.0  0.25135  0.82838  0.41230  1.0000
  N   N77       1.0  0.23406  0.81124  0.40634  1.0000
  H   H81       1.0  0.25546  0.83546  0.47216  1.0000
  H   H82       1.0  0.17938  0.74419  0.46070  1.0000
  H   H83       1.0  0.20955  0.77524  0.46781  1.0000
  N   N78       1.0  0.28156  0.85252  0.34444  1.0000
  H   H84       1.0  0.28155  0.86342  0.37560  1.0000
  C   C178      1.0  0.74718  0.57007  0.40171  1.0000
  C   C179      1.0  0.76550  0.57098  0.40662  1.0000
  C   C180      1.0  0.79533  0.57557  0.32875  1.0000
  C   C181      1.0  0.83053  0.57435  0.33728  1.0000
  C   C182      1.0  0.82305  0.57937  0.41177  1.0000
  N   N79       1.0  0.80588  0.57947  0.40526  1.0000
  H   H85       1.0  0.83000  0.58225  0.47191  1.0000
  H   H86       1.0  0.73857  0.56649  0.45734  1.0000
  H   H87       1.0  0.76973  0.56765  0.46537  1.0000
  N   N80       1.0  0.84737  0.57348  0.34456  1.0000
  H   H88       1.0  0.85823  0.58433  0.37614  1.0000
  C   C183      1.0  0.43956  0.18984  0.40251  1.0000
  C   C184      1.0  0.43872  0.20729  0.40763  1.0000
  C   C185      1.0  0.43435  0.23269  0.33005  1.0000
  C   C186      1.0  0.43579  0.26922  0.33906  1.0000
  C   C187      1.0  0.43059  0.25661  0.41327  1.0000
  N   N81       1.0  0.43040  0.23931  0.40654  1.0000
  H   H89       1.0  0.42767  0.26065  0.47340  1.0000
  H   H90       1.0  0.44304  0.18471  0.45812  1.0000
  H   H91       1.0  0.44197  0.21476  0.46659  1.0000
  N   N82       1.0  0.43675  0.28696  0.34662  1.0000
  H   H92       1.0  0.42585  0.28696  0.37782  1.0000
  C   C188      1.0  0.81988  0.26280  0.40407  1.0000
  C   C189      1.0  0.80243  0.24450  0.40875  1.0000
  C   C190      1.0  0.77714  0.21478  0.33050  1.0000
  C   C191      1.0  0.74065  0.17963  0.33860  1.0000
  C   C192      1.0  0.75318  0.18700  0.41307  1.0000
  N   N83       1.0  0.77046  0.20414  0.40678  1.0000
  H   H93       1.0  0.74910  0.17997  0.47306  1.0000
  H   H94       1.0  0.82495  0.27137  0.45982  1.0000
  H   H95       1.0  0.79487  0.24024  0.46751  1.0000
  N   N84       1.0  0.72292  0.16283  0.34574  1.0000
  H   H96       1.0  0.72286  0.15189  0.37685  1.0000
  C   C193      1.0  0.14069  0.62208  0.31393  1.0000
  C   C194      1.0  0.14173  0.58658  0.32461  1.0000
  N   N85       1.0  0.14435  0.59803  0.39713  1.0000
  C   C195      1.0  0.14426  0.61526  0.39469  1.0000
  C   C196      1.0  0.13859  0.55890  0.41740  1.0000
  C   C197      1.0  0.13790  0.54067  0.42217  1.0000
  H   H97       1.0  0.13632  0.56470  0.47405  1.0000
  H   H98       1.0  0.13560  0.53383  0.48244  1.0000
  H   H99       1.0  0.14617  0.62283  0.45255  1.0000
  N   N86       1.0  0.14019  0.63926  0.31160  1.0000
  H   H100      1.0  0.14996  0.65007  0.34768  1.0000
  C   C198      1.0  0.38804  0.53168  0.31543  1.0000
  C   C199      1.0  0.42347  0.56829  0.32560  1.0000
  N   N87       1.0  0.41200  0.55954  0.39815  1.0000
  C   C200      1.0  0.39479  0.54220  0.39592  1.0000
  C   C201      1.0  0.45111  0.59297  0.41811  1.0000
  C   C202      1.0  0.46933  0.61055  0.42264  1.0000
  H   H101      1.0  0.44533  0.58495  0.47489  1.0000
  H   H102      1.0  0.47617  0.61515  0.48287  1.0000
  H   H103      1.0  0.38721  0.53660  0.45381  1.0000
  N   N88       1.0  0.37090  0.51397  0.31338  1.0000
  H   H104      1.0  0.36002  0.51298  0.34878  1.0000
  C   C203      1.0  0.47814  0.86933  0.31465  1.0000
  C   C204      1.0  0.44157  0.86823  0.32483  1.0000
  N   N89       1.0  0.45036  0.86559  0.39745  1.0000
  C   C205      1.0  0.46768  0.86569  0.39524  1.0000
  C   C206      1.0  0.41695  0.87131  0.41733  1.0000
  C   C207      1.0  0.39940  0.87198  0.42187  1.0000
  H   H105      1.0  0.42496  0.87351  0.47412  1.0000
  H   H106      1.0  0.39481  0.87424  0.48211  1.0000
  H   H107      1.0  0.47331  0.86378  0.45320  1.0000
  N   N90       1.0  0.49584  0.86987  0.31263  1.0000
  H   H108      1.0  0.49688  0.86008  0.34857  1.0000
  C   C208      1.0  0.86382  0.39348  0.31461  1.0000
  C   C209      1.0  0.86276  0.42897  0.32509  1.0000
  N   N91       1.0  0.86002  0.41747  0.39755  1.0000
  C   C210      1.0  0.86011  0.40024  0.39520  1.0000
  C   C211      1.0  0.86577  0.45659  0.41788  1.0000
  C   C212      1.0  0.86647  0.47484  0.42260  1.0000
  H   H109      1.0  0.86792  0.45075  0.47464  1.0000
  H   H110      1.0  0.86867  0.48163  0.48293  1.0000
  H   H111      1.0  0.85810  0.39263  0.45304  1.0000
  N   N92       1.0  0.86433  0.37630  0.31242  1.0000
  H   H112      1.0  0.85448  0.36546  0.34805  1.0000
  C   C213      1.0  0.61642  0.48356  0.31519  1.0000
  C   C214      1.0  0.58094  0.44701  0.32559  1.0000
  N   N93       1.0  0.59243  0.45576  0.39809  1.0000
  C   C215      1.0  0.60965  0.47309  0.39577  1.0000
  C   C216      1.0  0.55329  0.42238  0.41822  1.0000
  C   C217      1.0  0.53507  0.40481  0.42285  1.0000
  H   H113      1.0  0.55909  0.43041  0.47497  1.0000
  H   H114      1.0  0.52824  0.40022  0.48311  1.0000
  H   H115      1.0  0.61726  0.47868  0.45361  1.0000
  N   N94       1.0  0.63361  0.50123  0.31295  1.0000
  H   H116      1.0  0.64446  0.50222  0.34858  1.0000
  C   C218      1.0  0.52626  0.14586  0.31520  1.0000
  C   C219      1.0  0.56288  0.14708  0.32560  1.0000
  N   N95       1.0  0.55411  0.14980  0.39806  1.0000
  C   C220      1.0  0.53676  0.14965  0.39573  1.0000
  C   C221      1.0  0.58755  0.14414  0.41830  1.0000
  C   C222      1.0  0.60513  0.14352  0.42296  1.0000
  H   H117      1.0  0.57953  0.14193  0.47505  1.0000
  H   H118      1.0  0.60974  0.14130  0.48324  1.0000
  H   H119      1.0  0.53115  0.15164  0.45358  1.0000
  N   N96       1.0  0.50854  0.14528  0.31305  1.0000
  H   H120      1.0  0.50753  0.15516  0.34840  1.0000
  C   C223      1.0  0.95736  0.35837  0.35650  1.0000
  C   C224      1.0  0.97702  0.36535  0.38112  1.0000
  C   C225      1.0  0.01229  0.38548  0.34163  1.0000
  C   C226      1.0  0.05184  0.41104  0.39030  1.0000
  C   C227      1.0  0.03626  0.40527  0.45128  1.0000
  N   N97       1.0  0.01746  0.39309  0.42505  1.0000
  H   H121      1.0  0.03883  0.41086  0.51433  1.0000
  H   H122      1.0  0.94672  0.35228  0.40440  1.0000
  H   H123      1.0  0.98020  0.36378  0.44552  1.0000
  N   N98       1.0  0.07029  0.42588  0.41137  1.0000
  H   H124      1.0  0.07112  0.43751  0.43918  1.0000
  C   C228      1.0  0.65163  0.61221  0.35651  1.0000
  C   C229      1.0  0.64465  0.62489  0.38101  1.0000
  C   C230      1.0  0.62458  0.64007  0.34121  1.0000
  C   C231      1.0  0.59898  0.65406  0.38936  1.0000
  C   C232      1.0  0.60472  0.64426  0.45050  1.0000
  N   N99       1.0  0.61692  0.63763  0.42450  1.0000
  H   H125      1.0  0.59909  0.64123  0.51346  1.0000
  H   H126      1.0  0.65765  0.60759  0.40450  1.0000
  H   H127      1.0  0.64615  0.62959  0.44548  1.0000
  N   N100      1.0  0.58410  0.65765  0.41002  1.0000
  H   H128      1.0  0.57250  0.64688  0.43813  1.0000
  C   C233      1.0  0.39768  0.05245  0.35614  1.0000
  C   C234      1.0  0.38502  0.03281  0.38108  1.0000
  C   C235      1.0  0.36979  0.99752  0.34213  1.0000
  C   C236      1.0  0.35570  0.95796  0.39129  1.0000
  C   C237      1.0  0.36556  0.97358  0.45207  1.0000
  N   N101      1.0  0.37223  0.99237  0.42559  1.0000
  H   H129      1.0  0.36862  0.97103  0.51508  1.0000
  H   H130      1.0  0.40233  0.06312  0.40394  1.0000
  H   H131      1.0  0.38036  0.02968  0.44561  1.0000
  N   N102      1.0  0.35213  0.93952  0.41247  1.0000
  H   H132      1.0  0.36298  0.93872  0.43973  1.0000
  C   C238      1.0  0.04716  0.65692  0.35624  1.0000
  C   C239      1.0  0.02753  0.64995  0.38129  1.0000
  C   C240      1.0  0.99222  0.62983  0.34254  1.0000
  C   C241      1.0  0.95270  0.60439  0.39208  1.0000
  C   C242      1.0  0.96834  0.61016  0.45275  1.0000
  N   N103      1.0  0.98712  0.62229  0.42610  1.0000
  H   H133      1.0  0.96582  0.60462  0.51586  1.0000
  H   H134      1.0  0.05785  0.66301  0.40391  1.0000
  H   H135      1.0  0.02442  0.65149  0.44586  1.0000
  N   N104      1.0  0.93425  0.58960  0.41362  1.0000
  H   H136      1.0  0.93342  0.57790  0.44057  1.0000
  C   C243      1.0  0.35274  0.40301  0.35599  1.0000
  C   C244      1.0  0.35972  0.39033  0.38072  1.0000
  C   C245      1.0  0.37987  0.37521  0.34146  1.0000
  C   C246      1.0  0.40542  0.36122  0.39033  1.0000
  C   C247      1.0  0.39964  0.37103  0.45124  1.0000
  N   N105      1.0  0.38746  0.37765  0.42491  1.0000
  H   H137      1.0  0.40522  0.37406  0.51431  1.0000
  H   H138      1.0  0.34665  0.40757  0.40382  1.0000
  H   H139      1.0  0.35813  0.38559  0.44514  1.0000
  N   N106      1.0  0.42027  0.35762  0.41152  1.0000
  H   H140      1.0  0.43189  0.36842  0.43933  1.0000
  C   C248      1.0  0.60659  0.96279  0.35518  1.0000
  C   C249      1.0  0.61924  0.98245  0.38000  1.0000
  C   C250      1.0  0.63442  0.01772  0.34071  1.0000
  C   C251      1.0  0.64847  0.05728  0.38958  1.0000
  C   C252      1.0  0.63862  0.04168  0.45046  1.0000
  N   N107      1.0  0.63198  0.02288  0.42413  1.0000
  H   H141      1.0  0.63560  0.04424  0.51350  1.0000
  H   H142      1.0  0.60198  0.95213  0.40301  1.0000
  H   H143      1.0  0.62391  0.98560  0.44451  1.0000
  N   N108      1.0  0.65210  0.07574  0.41061  1.0000
  H   H144      1.0  0.64133  0.07658  0.43862  1.0000
