data_image0
_chemical_formula_structural       C4OC4OH4N2C4H2C2H2CHC4H2C2H2CHC2HC2HN2C6H4CHC6H4CHC4OC4OH4N2C4H2C2H2CHC4H2C2H2CHC2HC2HN2C6H4CHC6H4CHC4OC4OH4N2C4H2C2H2CHC4H2C2H2CHC2HC2HN2C6H4CHC6H4CHC4OC4OH4N2C4H2C2H2CHC4H2C2H2CHC2HC2HN2C6H4CHC6H4CH
_chemical_formula_sum              "C160 O8 H104 N16"
_cell_length_a       39.386
_cell_length_b       39.386
_cell_length_c       15.066
_cell_angle_alpha    90
_cell_angle_beta     90
_cell_angle_gamma    90

_space_group_name_H-M_alt    "P 1"
_space_group_IT_number       1

loop_
  _space_group_symop_operation_xyz
  'x, y, z'

loop_
  _atom_site_type_symbol
  _atom_site_label
  _atom_site_symmetry_multiplicity
  _atom_site_fract_x
  _atom_site_fract_y
  _atom_site_fract_z
  _atom_site_occupancy
  C   C1        1.0  0.00909  0.48435  0.31452  1.0000
  C   C2        1.0  0.05965  0.43469  0.26897  1.0000
  C   C3        1.0  0.06816  0.46940  0.27018  1.0000
  C   C4        1.0  0.04288  0.49349  0.29106  1.0000
  O   O1        1.0  0.08385  0.41105  0.24898  1.0000
  C   C5        1.0  0.48429  0.00914  0.34061  1.0000
  C   C6        1.0  0.44893  0.00178  0.34345  1.0000
  C   C7        1.0  0.42427  0.02630  0.36630  1.0000
  C   C8        1.0  0.43463  0.05962  0.38680  1.0000
  O   O2        1.0  0.41100  0.08377  0.40720  1.0000
  H   H1        1.0  0.09442  0.40454  0.30563  1.0000
  H   H2        1.0  0.40433  0.09434  0.35067  1.0000
  H   H3        1.0  0.04964  0.01831  0.28650  1.0000
  H   H4        1.0  0.44020  0.47890  0.32211  1.0000
  N   N1        1.0  0.39046  0.02053  0.36307  1.0000
  N   N2        1.0  0.10130  0.47734  0.25913  1.0000
  C   C9        1.0  0.50563  0.15497  0.39012  1.0000
  C   C10       1.0  0.50266  0.22780  0.36782  1.0000
  C   C11       1.0  0.53261  0.20878  0.34959  1.0000
  C   C12       1.0  0.53427  0.17340  0.36129  1.0000
  H   H5        1.0  0.55345  0.21979  0.32160  1.0000
  H   H6        1.0  0.05600  0.16100  0.34263  1.0000
  C   C13       1.0  0.02746  0.31912  0.32129  1.0000
  C   C14       1.0  0.02962  0.28407  0.33760  1.0000
  H   H7        1.0  0.04959  0.33248  0.31426  1.0000
  H   H8        1.0  0.05353  0.27440  0.34341  1.0000
  C   C15       1.0  0.00639  0.11924  0.39001  1.0000
  H   H9        1.0  0.02819  0.10706  0.37133  1.0000
  C   C16       1.0  0.33570  0.49554  0.33867  1.0000
  C   C17       1.0  0.26343  0.50018  0.30669  1.0000
  C   C18       1.0  0.28072  0.46847  0.31136  1.0000
  C   C19       1.0  0.31587  0.46613  0.32632  1.0000
  H   H10       1.0  0.26799  0.44599  0.30686  1.0000
  H   H11       1.0  0.32683  0.94255  0.32844  1.0000
  C   C20       1.0  0.17338  0.97603  0.24429  1.0000
  C   C21       1.0  0.20876  0.97471  0.25539  1.0000
  H   H12       1.0  0.16126  0.95485  0.22088  1.0000
  H   H13       1.0  0.22032  0.95279  0.23575  1.0000
  C   C22       1.0  0.37111  0.99278  0.34907  1.0000
  H   H14       1.0  0.38245  0.96949  0.34402  1.0000
  C   C23       1.0  0.00180  0.44898  0.31218  1.0000
  C   C24       1.0  0.02636  0.42431  0.28966  1.0000
  H   H15       1.0  0.47895  0.44026  0.33376  1.0000
  C   C25       1.0  0.46932  0.06818  0.38508  1.0000
  C   C26       1.0  0.49341  0.04295  0.36382  1.0000
  H   H16       1.0  0.01823  0.04974  0.36809  1.0000
  N   N3        1.0  0.47725  0.10132  0.39622  1.0000
  N   N4        1.0  0.02065  0.39051  0.29356  1.0000
  C   C27       1.0  0.47611  0.17342  0.41248  1.0000
  C   C28       1.0  0.47487  0.20884  0.40223  1.0000
  C   C29       1.0  0.50036  0.26356  0.35146  1.0000
  C   C30       1.0  0.46865  0.28085  0.34690  1.0000
  C   C31       1.0  0.46631  0.31599  0.33175  1.0000
  C   C32       1.0  0.49571  0.33580  0.31908  1.0000
  H   H17       1.0  0.44617  0.26813  0.35147  1.0000
  H   H18       1.0  0.44272  0.32694  0.32956  1.0000
  H   H19       1.0  0.45490  0.16126  0.43559  1.0000
  H   H20       1.0  0.45298  0.22038  0.42213  1.0000
  C   C33       1.0  0.49292  0.37118  0.30808  1.0000
  H   H21       1.0  0.46963  0.38251  0.31303  1.0000
  C   C34       1.0  0.31901  0.52728  0.33656  1.0000
  C   C35       1.0  0.28394  0.52943  0.32049  1.0000
  C   C36       1.0  0.22768  0.50248  0.29003  1.0000
  C   C37       1.0  0.20866  0.53247  0.30786  1.0000
  C   C38       1.0  0.17333  0.53419  0.29540  1.0000
  C   C39       1.0  0.15492  0.50560  0.26612  1.0000
  H   H22       1.0  0.21964  0.55330  0.33598  1.0000
  H   H23       1.0  0.16091  0.55597  0.31362  1.0000
  H   H24       1.0  0.33236  0.54942  0.34347  1.0000
  H   H25       1.0  0.27426  0.55334  0.31467  1.0000
  C   C40       1.0  0.11919  0.50651  0.26506  1.0000
  H   H26       1.0  0.10701  0.52827  0.28394  1.0000
  C   C41       1.0  0.00909  0.98435  0.31452  1.0000
  C   C42       1.0  0.05965  0.93469  0.26897  1.0000
  C   C43       1.0  0.06816  0.96940  0.27018  1.0000
  C   C44       1.0  0.04288  0.99349  0.29106  1.0000
  O   O3        1.0  0.08385  0.91105  0.24898  1.0000
  C   C45       1.0  0.48429  0.50914  0.34061  1.0000
  C   C46       1.0  0.44893  0.50178  0.34345  1.0000
  C   C47       1.0  0.42427  0.52630  0.36630  1.0000
  C   C48       1.0  0.43463  0.55962  0.38680  1.0000
  O   O4        1.0  0.41100  0.58377  0.40720  1.0000
  H   H27       1.0  0.09442  0.90454  0.30563  1.0000
  H   H28       1.0  0.40433  0.59434  0.35067  1.0000
  H   H29       1.0  0.04964  0.51831  0.28650  1.0000
  H   H30       1.0  0.44020  0.97890  0.32211  1.0000
  N   N5        1.0  0.39046  0.52053  0.36307  1.0000
  N   N6        1.0  0.10130  0.97734  0.25913  1.0000
  C   C49       1.0  0.50563  0.65497  0.39012  1.0000
  C   C50       1.0  0.50266  0.72780  0.36782  1.0000
  C   C51       1.0  0.53261  0.70878  0.34959  1.0000
  C   C52       1.0  0.53427  0.67340  0.36129  1.0000
  H   H31       1.0  0.55345  0.71980  0.32160  1.0000
  H   H32       1.0  0.05600  0.66100  0.34263  1.0000
  C   C53       1.0  0.02746  0.81912  0.32129  1.0000
  C   C54       1.0  0.02962  0.78407  0.33760  1.0000
  H   H33       1.0  0.04959  0.83247  0.31426  1.0000
  H   H34       1.0  0.05353  0.77440  0.34341  1.0000
  C   C55       1.0  0.00639  0.61924  0.39001  1.0000
  H   H35       1.0  0.02819  0.60706  0.37133  1.0000
  C   C56       1.0  0.33570  0.99554  0.33867  1.0000
  C   C57       1.0  0.26343  0.00018  0.30669  1.0000
  C   C58       1.0  0.28072  0.96847  0.31136  1.0000
  C   C59       1.0  0.31587  0.96613  0.32632  1.0000
  H   H36       1.0  0.26799  0.94599  0.30686  1.0000
  H   H37       1.0  0.32683  0.44254  0.32844  1.0000
  C   C60       1.0  0.17338  0.47602  0.24429  1.0000
  C   C61       1.0  0.20876  0.47471  0.25539  1.0000
  H   H38       1.0  0.16126  0.45485  0.22088  1.0000
  H   H39       1.0  0.22032  0.45279  0.23575  1.0000
  C   C62       1.0  0.37111  0.49278  0.34907  1.0000
  H   H40       1.0  0.38245  0.46949  0.34402  1.0000
  C   C63       1.0  0.00180  0.94898  0.31218  1.0000
  C   C64       1.0  0.02636  0.92431  0.28966  1.0000
  H   H41       1.0  0.47895  0.94026  0.33376  1.0000
  C   C65       1.0  0.46932  0.56818  0.38508  1.0000
  C   C66       1.0  0.49341  0.54295  0.36382  1.0000
  H   H42       1.0  0.01823  0.54974  0.36809  1.0000
  N   N7        1.0  0.47725  0.60132  0.39622  1.0000
  N   N8        1.0  0.02065  0.89051  0.29356  1.0000
  C   C67       1.0  0.47611  0.67342  0.41248  1.0000
  C   C68       1.0  0.47487  0.70884  0.40223  1.0000
  C   C69       1.0  0.50036  0.76356  0.35146  1.0000
  C   C70       1.0  0.46865  0.78085  0.34690  1.0000
  C   C71       1.0  0.46631  0.81599  0.33175  1.0000
  C   C72       1.0  0.49571  0.83580  0.31908  1.0000
  H   H43       1.0  0.44617  0.76813  0.35147  1.0000
  H   H44       1.0  0.44272  0.82694  0.32956  1.0000
  H   H45       1.0  0.45490  0.66126  0.43559  1.0000
  H   H46       1.0  0.45298  0.72038  0.42213  1.0000
  C   C73       1.0  0.49292  0.87118  0.30808  1.0000
  H   H47       1.0  0.46963  0.88251  0.31303  1.0000
  C   C74       1.0  0.31901  0.02728  0.33656  1.0000
  C   C75       1.0  0.28394  0.02943  0.32049  1.0000
  C   C76       1.0  0.22768  0.00248  0.29003  1.0000
  C   C77       1.0  0.20866  0.03247  0.30786  1.0000
  C   C78       1.0  0.17333  0.03419  0.29540  1.0000
  C   C79       1.0  0.15492  0.00560  0.26612  1.0000
  H   H48       1.0  0.21964  0.05330  0.33598  1.0000
  H   H49       1.0  0.16091  0.05597  0.31362  1.0000
  H   H50       1.0  0.33236  0.04942  0.34347  1.0000
  H   H51       1.0  0.27426  0.05334  0.31467  1.0000
  C   C80       1.0  0.11919  0.00651  0.26506  1.0000
  H   H52       1.0  0.10701  0.02827  0.28394  1.0000
  C   C81       1.0  0.50909  0.48435  0.31452  1.0000
  C   C82       1.0  0.55965  0.43469  0.26897  1.0000
  C   C83       1.0  0.56816  0.46940  0.27018  1.0000
  C   C84       1.0  0.54288  0.49349  0.29106  1.0000
  O   O5        1.0  0.58385  0.41105  0.24898  1.0000
  C   C85       1.0  0.98429  0.00914  0.34061  1.0000
  C   C86       1.0  0.94893  0.00178  0.34345  1.0000
  C   C87       1.0  0.92427  0.02630  0.36630  1.0000
  C   C88       1.0  0.93463  0.05962  0.38680  1.0000
  O   O6        1.0  0.91100  0.08377  0.40720  1.0000
  H   H53       1.0  0.59443  0.40454  0.30563  1.0000
  H   H54       1.0  0.90433  0.09434  0.35067  1.0000
  H   H55       1.0  0.54964  0.01831  0.28650  1.0000
  H   H56       1.0  0.94020  0.47890  0.32211  1.0000
  N   N9        1.0  0.89046  0.02053  0.36307  1.0000
  N   N10       1.0  0.60130  0.47734  0.25913  1.0000
  C   C89       1.0  0.00563  0.15497  0.39012  1.0000
  C   C90       1.0  0.00266  0.22780  0.36782  1.0000
  C   C91       1.0  0.03261  0.20878  0.34959  1.0000
  C   C92       1.0  0.03427  0.17340  0.36129  1.0000
  H   H57       1.0  0.05345  0.21979  0.32160  1.0000
  H   H58       1.0  0.55600  0.16100  0.34263  1.0000
  C   C93       1.0  0.52746  0.31912  0.32129  1.0000
  C   C94       1.0  0.52962  0.28407  0.33760  1.0000
  H   H59       1.0  0.54959  0.33248  0.31426  1.0000
  H   H60       1.0  0.55353  0.27440  0.34341  1.0000
  C   C95       1.0  0.50639  0.11924  0.39001  1.0000
  H   H61       1.0  0.52819  0.10706  0.37133  1.0000
  C   C96       1.0  0.83570  0.49554  0.33867  1.0000
  C   C97       1.0  0.76343  0.50018  0.30669  1.0000
  C   C98       1.0  0.78072  0.46847  0.31136  1.0000
  C   C99       1.0  0.81587  0.46613  0.32632  1.0000
  H   H62       1.0  0.76799  0.44599  0.30686  1.0000
  H   H63       1.0  0.82683  0.94255  0.32844  1.0000
  C   C100      1.0  0.67338  0.97603  0.24429  1.0000
  C   C101      1.0  0.70877  0.97471  0.25539  1.0000
  H   H64       1.0  0.66126  0.95485  0.22088  1.0000
  H   H65       1.0  0.72032  0.95279  0.23575  1.0000
  C   C102      1.0  0.87111  0.99278  0.34907  1.0000
  H   H66       1.0  0.88245  0.96949  0.34402  1.0000
  C   C103      1.0  0.50180  0.44898  0.31218  1.0000
  C   C104      1.0  0.52636  0.42431  0.28966  1.0000
  H   H67       1.0  0.97895  0.44026  0.33376  1.0000
  C   C105      1.0  0.96932  0.06818  0.38508  1.0000
  C   C106      1.0  0.99341  0.04295  0.36382  1.0000
  H   H68       1.0  0.51823  0.04974  0.36809  1.0000
  N   N11       1.0  0.97725  0.10132  0.39622  1.0000
  N   N12       1.0  0.52065  0.39051  0.29356  1.0000
  C   C107      1.0  0.97611  0.17342  0.41248  1.0000
  C   C108      1.0  0.97487  0.20884  0.40223  1.0000
  C   C109      1.0  0.00036  0.26356  0.35146  1.0000
  C   C110      1.0  0.96865  0.28085  0.34690  1.0000
  C   C111      1.0  0.96630  0.31599  0.33175  1.0000
  C   C112      1.0  0.99571  0.33580  0.31908  1.0000
  H   H69       1.0  0.94617  0.26813  0.35147  1.0000
  H   H70       1.0  0.94272  0.32694  0.32956  1.0000
  H   H71       1.0  0.95490  0.16126  0.43559  1.0000
  H   H72       1.0  0.95298  0.22038  0.42213  1.0000
  C   C113      1.0  0.99292  0.37118  0.30808  1.0000
  H   H73       1.0  0.96963  0.38251  0.31303  1.0000
  C   C114      1.0  0.81901  0.52728  0.33656  1.0000
  C   C115      1.0  0.78394  0.52943  0.32049  1.0000
  C   C116      1.0  0.72768  0.50248  0.29003  1.0000
  C   C117      1.0  0.70866  0.53247  0.30786  1.0000
  C   C118      1.0  0.67332  0.53419  0.29540  1.0000
  C   C119      1.0  0.65492  0.50560  0.26612  1.0000
  H   H74       1.0  0.71964  0.55330  0.33598  1.0000
  H   H75       1.0  0.66091  0.55597  0.31362  1.0000
  H   H76       1.0  0.83236  0.54942  0.34347  1.0000
  H   H77       1.0  0.77426  0.55334  0.31467  1.0000
  C   C120      1.0  0.61919  0.50651  0.26506  1.0000
  H   H78       1.0  0.60701  0.52827  0.28394  1.0000
  C   C121      1.0  0.50909  0.98435  0.31452  1.0000
  C   C122      1.0  0.55965  0.93469  0.26897  1.0000
  C   C123      1.0  0.56816  0.96940  0.27018  1.0000
  C   C124      1.0  0.54288  0.99349  0.29106  1.0000
  O   O7        1.0  0.58385  0.91105  0.24898  1.0000
  C   C125      1.0  0.98429  0.50914  0.34061  1.0000
  C   C126      1.0  0.94893  0.50178  0.34345  1.0000
  C   C127      1.0  0.92427  0.52630  0.36630  1.0000
  C   C128      1.0  0.93463  0.55962  0.38680  1.0000
  O   O8        1.0  0.91100  0.58377  0.40720  1.0000
  H   H79       1.0  0.59443  0.90454  0.30563  1.0000
  H   H80       1.0  0.90433  0.59434  0.35067  1.0000
  H   H81       1.0  0.54964  0.51831  0.28650  1.0000
  H   H82       1.0  0.94020  0.97890  0.32211  1.0000
  N   N13       1.0  0.89046  0.52053  0.36307  1.0000
  N   N14       1.0  0.60130  0.97734  0.25913  1.0000
  C   C129      1.0  0.00563  0.65497  0.39012  1.0000
  C   C130      1.0  0.00266  0.72780  0.36782  1.0000
  C   C131      1.0  0.03261  0.70878  0.34959  1.0000
  C   C132      1.0  0.03427  0.67340  0.36129  1.0000
  H   H83       1.0  0.05345  0.71980  0.32160  1.0000
  H   H84       1.0  0.55600  0.66100  0.34263  1.0000
  C   C133      1.0  0.52746  0.81912  0.32129  1.0000
  C   C134      1.0  0.52962  0.78407  0.33760  1.0000
  H   H85       1.0  0.54959  0.83247  0.31426  1.0000
  H   H86       1.0  0.55353  0.77440  0.34341  1.0000
  C   C135      1.0  0.50639  0.61924  0.39001  1.0000
  H   H87       1.0  0.52819  0.60706  0.37133  1.0000
  C   C136      1.0  0.83570  0.99554  0.33867  1.0000
  C   C137      1.0  0.76343  0.00018  0.30669  1.0000
  C   C138      1.0  0.78072  0.96847  0.31136  1.0000
  C   C139      1.0  0.81587  0.96613  0.32632  1.0000
  H   H88       1.0  0.76799  0.94599  0.30686  1.0000
  H   H89       1.0  0.82683  0.44254  0.32844  1.0000
  C   C140      1.0  0.67338  0.47602  0.24429  1.0000
  C   C141      1.0  0.70877  0.47471  0.25539  1.0000
  H   H90       1.0  0.66126  0.45485  0.22088  1.0000
  H   H91       1.0  0.72032  0.45279  0.23575  1.0000
  C   C142      1.0  0.87111  0.49278  0.34907  1.0000
  H   H92       1.0  0.88245  0.46949  0.34402  1.0000
  C   C143      1.0  0.50180  0.94898  0.31218  1.0000
  C   C144      1.0  0.52636  0.92431  0.28966  1.0000
  H   H93       1.0  0.97895  0.94026  0.33376  1.0000
  C   C145      1.0  0.96932  0.56818  0.38508  1.0000
  C   C146      1.0  0.99341  0.54295  0.36382  1.0000
  H   H94       1.0  0.51823  0.54974  0.36809  1.0000
  N   N15       1.0  0.97725  0.60132  0.39622  1.0000
  N   N16       1.0  0.52065  0.89051  0.29356  1.0000
  C   C147      1.0  0.97611  0.67342  0.41248  1.0000
  C   C148      1.0  0.97487  0.70884  0.40223  1.0000
  C   C149      1.0  0.00036  0.76356  0.35146  1.0000
  C   C150      1.0  0.96865  0.78085  0.34690  1.0000
  C   C151      1.0  0.96630  0.81599  0.33175  1.0000
  C   C152      1.0  0.99571  0.83580  0.31908  1.0000
  H   H95       1.0  0.94617  0.76813  0.35147  1.0000
  H   H96       1.0  0.94272  0.82694  0.32956  1.0000
  H   H97       1.0  0.95490  0.66126  0.43559  1.0000
  H   H98       1.0  0.95298  0.72038  0.42213  1.0000
  C   C153      1.0  0.99292  0.87118  0.30808  1.0000
  H   H99       1.0  0.96963  0.88251  0.31303  1.0000
  C   C154      1.0  0.81901  0.02728  0.33656  1.0000
  C   C155      1.0  0.78394  0.02943  0.32049  1.0000
  C   C156      1.0  0.72768  0.00248  0.29003  1.0000
  C   C157      1.0  0.70866  0.03247  0.30786  1.0000
  C   C158      1.0  0.67332  0.03419  0.29540  1.0000
  C   C159      1.0  0.65492  0.00560  0.26612  1.0000
  H   H100      1.0  0.71964  0.05330  0.33598  1.0000
  H   H101      1.0  0.66091  0.05597  0.31362  1.0000
  H   H102      1.0  0.83236  0.04942  0.34347  1.0000
  H   H103      1.0  0.77426  0.05334  0.31467  1.0000
  C   C160      1.0  0.61919  0.00651  0.26506  1.0000
  H   H104      1.0  0.60701  0.02827  0.28394  1.0000
