data_image0
_chemical_formula_structural       C3NC3NC5NC5NC20H18CHCHCHCHCNC2N2HCNC2N2HC8H12NC2HNHNC2HNH
_chemical_formula_sum              "C58 N14 H40"
_cell_length_a       25.2414
_cell_length_b       25.2431
_cell_length_c       15.0169
_cell_angle_alpha    90
_cell_angle_beta     90
_cell_angle_gamma    89.9623

_space_group_name_H-M_alt    "P 1"
_space_group_IT_number       1

loop_
  _space_group_symop_operation_xyz
  'x, y, z'

loop_
  _atom_site_type_symbol
  _atom_site_label
  _atom_site_symmetry_multiplicity
  _atom_site_fract_x
  _atom_site_fract_y
  _atom_site_fract_z
  _atom_site_occupancy
  C   C1        1.0  0.08038  0.85004  0.33845  1.0000
  C   C2        1.0  0.12368  0.88337  0.33836  1.0000
  C   C3        1.0  0.10533  0.93561  0.33576  1.0000
  N   N1        1.0  0.05179  0.93195  0.33297  1.0000
  C   C4        1.0  0.03458  0.88111  0.33510  1.0000
  C   C5        1.0  0.98191  0.86112  0.33506  1.0000
  C   C6        1.0  0.93538  0.89266  0.33195  1.0000
  N   N2        1.0  0.93208  0.94603  0.32923  1.0000
  C   C7        1.0  0.88130  0.96283  0.32679  1.0000
  C   C8        1.0  0.84994  0.91726  0.32797  1.0000
  C   C9        1.0  0.88330  0.87398  0.33097  1.0000
  C   C10       1.0  0.86268  0.01585  0.32384  1.0000
  C   C11       1.0  0.89548  0.06164  0.32382  1.0000
  N   N3        1.0  0.94901  0.06530  0.32697  1.0000
  C   C12       1.0  0.96622  0.11612  0.32449  1.0000
  C   C13       1.0  0.92043  0.14719  0.32060  1.0000
  C   C14       1.0  0.87715  0.11385  0.31973  1.0000
  C   C15       1.0  0.01887  0.13615  0.32560  1.0000
  C   C16       1.0  0.06540  0.10463  0.32907  1.0000
  N   N4        1.0  0.06874  0.05123  0.33071  1.0000
  C   C17       1.0  0.11952  0.03443  0.33367  1.0000
  C   C18       1.0  0.15082  0.08005  0.33430  1.0000
  C   C19       1.0  0.11748  0.12331  0.33073  1.0000
  C   C20       1.0  0.13815  0.98140  0.33632  1.0000
  C   C21       1.0  0.19390  0.97369  0.34226  1.0000
  C   C22       1.0  0.22610  0.97699  0.26555  1.0000
  C   C23       1.0  0.28125  0.97002  0.27221  1.0000
  C   C24       1.0  0.30524  0.95907  0.35529  1.0000
  C   C25       1.0  0.02575  0.19201  0.32083  1.0000
  C   C26       1.0  0.02339  0.21812  0.23775  1.0000
  C   C27       1.0  0.03057  0.27325  0.23264  1.0000
  C   C28       1.0  0.04098  0.30329  0.31012  1.0000
  C   C29       1.0  0.80692  0.02358  0.31897  1.0000
  C   C30       1.0  0.69574  0.03986  0.30839  1.0000
  C   C31       1.0  0.72535  0.02702  0.23144  1.0000
  C   C32       1.0  0.78043  0.01929  0.23646  1.0000
  C   C33       1.0  0.97500  0.80530  0.34113  1.0000
  C   C34       1.0  0.97891  0.77304  0.26459  1.0000
  C   C35       1.0  0.97197  0.71790  0.27129  1.0000
  C   C36       1.0  0.96052  0.69399  0.35424  1.0000
  H   H1        1.0  0.97519  0.69523  0.21504  1.0000
  H   H2        1.0  0.98697  0.78944  0.20373  1.0000
  H   H3        1.0  0.08272  0.80964  0.34098  1.0000
  H   H4        1.0  0.16215  0.87078  0.34064  1.0000
  H   H5        1.0  0.02859  0.96206  0.33087  1.0000
  H   H6        1.0  0.97219  0.03522  0.33033  1.0000
  H   H7        1.0  0.87095  0.83543  0.33212  1.0000
  H   H8        1.0  0.80951  0.91517  0.32703  1.0000
  H   H9        1.0  0.80101  0.01035  0.17966  1.0000
  H   H10       1.0  0.70696  0.02339  0.17101  1.0000
  H   H11       1.0  0.83871  0.12642  0.31634  1.0000
  H   H12       1.0  0.91811  0.18759  0.31805  1.0000
  H   H13       1.0  0.19123  0.08220  0.33648  1.0000
  H   H14       1.0  0.12983  0.16186  0.33010  1.0000
  H   H15       1.0  0.01632  0.19720  0.18056  1.0000
  H   H16       1.0  0.02838  0.29134  0.17177  1.0000
  H   H17       1.0  0.30387  0.97298  0.21588  1.0000
  H   H18       1.0  0.20968  0.98487  0.20464  1.0000
  C   C37       1.0  0.04761  0.36161  0.30405  1.0000
  H   H19       1.0  0.06951  0.37162  0.24347  1.0000
  C   C38       1.0  0.36362  0.95267  0.36143  1.0000
  H   H20       1.0  0.37586  0.92261  0.31310  1.0000
  C   C39       1.0  0.95386  0.63565  0.36037  1.0000
  H   H21       1.0  0.92382  0.62358  0.31192  1.0000
  C   C40       1.0  0.63743  0.04684  0.30244  1.0000
  H   H22       1.0  0.62757  0.06900  0.24205  1.0000
  C   C41       1.0  0.99747  0.44393  0.30961  1.0000
  N   N5        1.0  0.01193  0.53103  0.25305  1.0000
  C   C42       1.0  0.01053  0.47803  0.23787  1.0000
  C   C43       1.0  0.02048  0.46142  0.15774  1.0000
  N   N6        1.0  0.02917  0.44667  0.08688  1.0000
  N   N7        1.0  0.99510  0.38811  0.30552  1.0000
  H   H23       1.0  0.97220  0.37688  0.25222  1.0000
  C   C44       1.0  0.55492  0.99699  0.30839  1.0000
  N   N8        1.0  0.46752  0.01153  0.25310  1.0000
  C   C45       1.0  0.52046  0.01033  0.23726  1.0000
  C   C46       1.0  0.53671  0.02064  0.15706  1.0000
  N   N9        1.0  0.55114  0.02965  0.08614  1.0000
  N   N10       1.0  0.61071  0.99446  0.30345  1.0000
  H   H24       1.0  0.62162  0.97173  0.24976  1.0000
  C   C47       1.0  0.27276  0.95547  0.43176  1.0000
  C   C48       1.0  0.21769  0.96296  0.42545  1.0000
  C   C49       1.0  0.04292  0.27702  0.39324  1.0000
  C   C50       1.0  0.03537  0.22191  0.39864  1.0000
  C   C51       1.0  0.77748  0.03581  0.39626  1.0000
  C   C52       1.0  0.72243  0.04393  0.39090  1.0000
  C   C53       1.0  0.96383  0.78160  0.42422  1.0000
  C   C54       1.0  0.95647  0.72653  0.43057  1.0000
  H   H25       1.0  0.94861  0.71034  0.49160  1.0000
  H   H26       1.0  0.96089  0.80426  0.48055  1.0000
  H   H27       1.0  0.79590  0.03891  0.45677  1.0000
  H   H28       1.0  0.70190  0.05240  0.44790  1.0000
  H   H29       1.0  0.03707  0.20377  0.45955  1.0000
  H   H30       1.0  0.04961  0.29789  0.45054  1.0000
  H   H31       1.0  0.19510  0.96058  0.48194  1.0000
  H   H32       1.0  0.28903  0.94807  0.49291  1.0000
  H   H33       1.0  0.07135  0.37561  0.36035  1.0000
  H   H34       1.0  0.37524  0.93847  0.42749  1.0000
  H   H35       1.0  0.93951  0.62412  0.42638  1.0000
  H   H36       1.0  0.62345  0.07040  0.35896  1.0000
  N   N11       1.0  0.98691  0.46621  0.39003  1.0000
  C   C55       1.0  0.98846  0.51916  0.40481  1.0000
  C   C56       1.0  0.00142  0.55317  0.33353  1.0000
  H   H37       1.0  0.98062  0.53365  0.46692  1.0000
  N   N12       1.0  0.00489  0.60865  0.34136  1.0000
  H   H38       1.0  0.03219  0.61755  0.38988  1.0000
  N   N13       1.0  0.53303  0.98605  0.38896  1.0000
  C   C57       1.0  0.48014  0.98747  0.40444  1.0000
  C   C58       1.0  0.44577  0.00061  0.33372  1.0000
  H   H39       1.0  0.46595  0.97934  0.46663  1.0000
  N   N14       1.0  0.39029  0.00382  0.34222  1.0000
  H   H40       1.0  0.38143  0.03103  0.39092  1.0000
