data_image0
_chemical_formula_structural       C3NOCH3C3NOCH3C3NOCH3CNHCNHCNHC3NOCH3C3NOCH3C3NOCH3C3NOCH3C3NOCH3C3NOCH3CNHCNHCNHCNHCNHCNHC3NOCH3C3NOCH3C3NOCH3C3NOCH3C3NOCH3C3NOCH3C6H3C6H3C6H3C6H3C6H3C6H3C6H3C6H3C6H3C6H3C6H3C6H3C6H3C6H3C6H3C6H3CNHCNHCNHC3NOCH3C3NOCH3C3NOCH3CNHCNHCNHCNHCNHCNHC3NOCH3C3NOCH3C3NOCH3C3NOCH3C3NOCH3C3NOCH3CNHCNHCNHCNHCNHCNH
_chemical_formula_sum              "C216 N48 O24 H144"
_cell_length_a       41.9513
_cell_length_b       41.9513
_cell_length_c       14.8855
_cell_angle_alpha    90
_cell_angle_beta     90
_cell_angle_gamma    120

_space_group_name_H-M_alt    "P 1"
_space_group_IT_number       1

loop_
  _space_group_symop_operation_xyz
  'x, y, z'

loop_
  _atom_site_type_symbol
  _atom_site_label
  _atom_site_symmetry_multiplicity
  _atom_site_fract_x
  _atom_site_fract_y
  _atom_site_fract_z
  _atom_site_occupancy
  C   C1        1.0  0.03306  0.10615  0.28998  1.0000
  C   C2        1.0  0.00645  0.07382  0.33579  1.0000
  C   C3        1.0  0.00569  0.14197  0.33790  1.0000
  N   N1        1.0  0.03204  0.13821  0.29367  1.0000
  O   O1        1.0  0.06057  0.10700  0.23891  1.0000
  C   C4        1.0  0.05055  0.09798  0.14614  1.0000
  H   H1        1.0  0.02711  0.07013  0.13874  1.0000
  H   H2        1.0  0.07395  0.09924  0.11102  1.0000
  H   H3        1.0  0.04417  0.11764  0.11450  1.0000
  C   C5        1.0  0.90372  0.92886  0.28984  1.0000
  C   C6        1.0  0.93598  0.93468  0.33611  1.0000
  C   C7        1.0  0.86784  0.86580  0.33872  1.0000
  N   N2        1.0  0.87165  0.89579  0.29378  1.0000
  O   O2        1.0  0.90295  0.95538  0.23805  1.0000
  C   C8        1.0  0.91207  0.95411  0.14549  1.0000
  H   H4        1.0  0.93992  0.95847  0.13855  1.0000
  H   H5        1.0  0.91087  0.97616  0.10974  1.0000
  H   H6        1.0  0.89243  0.92798  0.11416  1.0000
  C   C9        1.0  0.08086  0.97678  0.29048  1.0000
  C   C10       1.0  0.07508  0.00329  0.33651  1.0000
  C   C11       1.0  0.14391  0.00394  0.33943  1.0000
  N   N3        1.0  0.11391  0.97774  0.29454  1.0000
  O   O3        1.0  0.05433  0.94947  0.23874  1.0000
  C   C12       1.0  0.05563  0.95979  0.14612  1.0000
  H   H7        1.0  0.05131  0.98330  0.13900  1.0000
  H   H8        1.0  0.03358  0.93654  0.11042  1.0000
  H   H9        1.0  0.08176  0.96623  0.11487  1.0000
  C   C13       1.0  0.12913  0.32855  0.29642  1.0000
  N   N4        1.0  0.10124  0.29273  0.29619  1.0000
  H   H10       1.0  0.15010  0.33609  0.25145  1.0000
  C   C14       1.0  0.68124  0.80245  0.29700  1.0000
  N   N5        1.0  0.71707  0.81041  0.29685  1.0000
  H   H11       1.0  0.67368  0.81578  0.25178  1.0000
  C   C15       1.0  0.20715  0.88062  0.29757  1.0000
  N   N6        1.0  0.19921  0.90851  0.29752  1.0000
  H   H12       1.0  0.19365  0.85963  0.25270  1.0000
  C   C16       1.0  0.34320  0.09889  0.27110  1.0000
  C   C17       1.0  0.35703  0.12820  0.33403  1.0000
  C   C18       1.0  0.28221  0.07179  0.33229  1.0000
  N   N7        1.0  0.30734  0.07191  0.27430  1.0000
  O   O4        1.0  0.36522  0.09510  0.20929  1.0000
  C   C19       1.0  0.36292  0.10804  0.12144  1.0000
  H   H13       1.0  0.33512  0.09223  0.09386  1.0000
  H   H14       1.0  0.38158  0.10447  0.07710  1.0000
  H   H15       1.0  0.37135  0.13727  0.12249  1.0000
  C   C20       1.0  0.76318  0.66637  0.27106  1.0000
  C   C21       1.0  0.77885  0.65262  0.33366  1.0000
  C   C22       1.0  0.79730  0.72747  0.33155  1.0000
  N   N8        1.0  0.77210  0.70224  0.27403  1.0000
  O   O5        1.0  0.73719  0.64430  0.20966  1.0000
  C   C23       1.0  0.75233  0.64578  0.12211  1.0000
  H   H16       1.0  0.76487  0.67348  0.09362  1.0000
  H   H17       1.0  0.72994  0.62722  0.07802  1.0000
  H   H18       1.0  0.77266  0.63675  0.12405  1.0000
  C   C24       1.0  0.91115  0.24721  0.27165  1.0000
  C   C25       1.0  0.88147  0.23100  0.33346  1.0000
  C   C26       1.0  0.93796  0.21264  0.33036  1.0000
  N   N9        1.0  0.93811  0.23831  0.27417  1.0000
  O   O6        1.0  0.91551  0.27382  0.21170  1.0000
  C   C27       1.0  0.90006  0.25925  0.12494  1.0000
  H   H19       1.0  0.91341  0.24534  0.09385  1.0000
  H   H20       1.0  0.90462  0.28216  0.08187  1.0000
  H   H21       1.0  0.87041  0.24024  0.12915  1.0000
  C   C28       1.0  0.31185  0.46564  0.27978  1.0000
  C   C29       1.0  0.33494  0.49428  0.34023  1.0000
  C   C30       1.0  0.25810  0.45826  0.35164  1.0000
  N   N10       1.0  0.27465  0.44872  0.28739  1.0000
  O   O7        1.0  0.32537  0.45365  0.21212  1.0000
  C   C31       1.0  0.33063  0.47321  0.12915  1.0000
  H   H22       1.0  0.30466  0.46979  0.10369  1.0000
  H   H23       1.0  0.34140  0.46187  0.07967  1.0000
  H   H24       1.0  0.35054  0.50252  0.13677  1.0000
  C   C32       1.0  0.54397  0.84788  0.27988  1.0000
  C   C33       1.0  0.51532  0.84233  0.34031  1.0000
  C   C34       1.0  0.55148  0.80163  0.35196  1.0000
  N   N11       1.0  0.56094  0.82766  0.28760  1.0000
  O   O8        1.0  0.55590  0.87334  0.21212  1.0000
  C   C35       1.0  0.53636  0.85897  0.12917  1.0000
  H   H25       1.0  0.53985  0.83644  0.10383  1.0000
  H   H26       1.0  0.54766  0.88105  0.07961  1.0000
  H   H27       1.0  0.50704  0.84950  0.13675  1.0000
  C   C36       1.0  0.16147  0.69787  0.28027  1.0000
  C   C37       1.0  0.16703  0.67476  0.34062  1.0000
  C   C38       1.0  0.20785  0.75161  0.35218  1.0000
  N   N12       1.0  0.18175  0.73507  0.28795  1.0000
  O   O9        1.0  0.13595  0.68437  0.21263  1.0000
  C   C39       1.0  0.15025  0.67917  0.12958  1.0000
  H   H28       1.0  0.17277  0.70516  0.10416  1.0000
  H   H29       1.0  0.12813  0.66841  0.08012  1.0000
  H   H30       1.0  0.15968  0.65929  0.13705  1.0000
  C   C40       1.0  0.50977  0.31576  0.29109  1.0000
  N   N13       1.0  0.49195  0.27852  0.29100  1.0000
  H   H31       1.0  0.53121  0.32963  0.24752  1.0000
  C   C41       1.0  0.81386  0.50004  0.29067  1.0000
  N   N14       1.0  0.79442  0.51784  0.29053  1.0000
  H   H32       1.0  0.80631  0.47858  0.24716  1.0000
  C   C42       1.0  0.69373  0.19555  0.28950  1.0000
  N   N15       1.0  0.73097  0.21503  0.28951  1.0000
  H   H33       1.0  0.67984  0.20306  0.24581  1.0000
  C   C43       1.0  0.17343  0.54699  0.29468  1.0000
  N   N16       1.0  0.18001  0.51845  0.29283  1.0000
  H   H34       1.0  0.18789  0.56864  0.25205  1.0000
  C   C44       1.0  0.46283  0.62831  0.29491  1.0000
  N   N17       1.0  0.49140  0.66342  0.29309  1.0000
  H   H35       1.0  0.44122  0.62114  0.25214  1.0000
  C   C45       1.0  0.38120  0.83610  0.29489  1.0000
  N   N18       1.0  0.34610  0.82959  0.29309  1.0000
  H   H36       1.0  0.38836  0.82165  0.25216  1.0000
  C   C46       1.0  0.51470  0.12700  0.27253  1.0000
  C   C47       1.0  0.54553  0.14264  0.33164  1.0000
  C   C48       1.0  0.48764  0.15762  0.34743  1.0000
  N   N19       1.0  0.48705  0.13464  0.28267  1.0000
  O   O10       1.0  0.51077  0.10338  0.20441  1.0000
  C   C49       1.0  0.52622  0.12187  0.12084  1.0000
  H   H37       1.0  0.51336  0.13759  0.09816  1.0000
  H   H38       1.0  0.52107  0.10109  0.07021  1.0000
  H   H39       1.0  0.55597  0.14013  0.12625  1.0000
  C   C50       1.0  0.62008  0.49471  0.27289  1.0000
  C   C51       1.0  0.60494  0.46398  0.33231  1.0000
  C   C52       1.0  0.67777  0.52196  0.34782  1.0000
  N   N20       1.0  0.65537  0.52241  0.28289  1.0000
  O   O11       1.0  0.60038  0.49849  0.20457  1.0000
  C   C53       1.0  0.60347  0.48292  0.12124  1.0000
  H   H40       1.0  0.63204  0.49578  0.09858  1.0000
  H   H41       1.0  0.58780  0.48793  0.07043  1.0000
  H   H42       1.0  0.59203  0.45318  0.12698  1.0000
  C   C54       1.0  0.88225  0.38952  0.27372  1.0000
  C   C55       1.0  0.86664  0.40469  0.33291  1.0000
  C   C56       1.0  0.85158  0.33181  0.34849  1.0000
  N   N21       1.0  0.87458  0.35422  0.28380  1.0000
  O   O12       1.0  0.90588  0.40920  0.20561  1.0000
  C   C57       1.0  0.88740  0.40611  0.12201  1.0000
  H   H43       1.0  0.87170  0.37752  0.09939  1.0000
  H   H44       1.0  0.90818  0.42173  0.07137  1.0000
  H   H45       1.0  0.86912  0.41758  0.12733  1.0000
  C   C58       1.0  0.98876  0.52442  0.24748  1.0000
  C   C59       1.0  0.96829  0.53038  0.31427  1.0000
  C   C60       1.0  0.04416  0.56852  0.31672  1.0000
  N   N22       1.0  0.02586  0.54285  0.25254  1.0000
  O   O13       1.0  0.97273  0.49840  0.18158  1.0000
  C   C61       1.0  0.96748  0.51328  0.09956  1.0000
  H   H46       1.0  0.94887  0.52416  0.10938  1.0000
  H   H47       1.0  0.95513  0.49117  0.05029  1.0000
  H   H48       1.0  0.99364  0.53487  0.07227  1.0000
  C   C62       1.0  0.48503  0.46606  0.24690  1.0000
  C   C63       1.0  0.47918  0.43971  0.31382  1.0000
  C   C64       1.0  0.44104  0.47742  0.31646  1.0000
  N   N23       1.0  0.46662  0.48474  0.25210  1.0000
  O   O14       1.0  0.51104  0.47609  0.18095  1.0000
  C   C65       1.0  0.49617  0.45589  0.09900  1.0000
  H   H49       1.0  0.48538  0.42642  0.10893  1.0000
  H   H50       1.0  0.51828  0.46568  0.04969  1.0000
  H   H51       1.0  0.47452  0.46037  0.07172  1.0000
  C   C66       1.0  0.54328  0.02053  0.24673  1.0000
  C   C67       1.0  0.56970  0.04107  0.31348  1.0000
  C   C68       1.0  0.53202  0.96522  0.31634  1.0000
  N   N24       1.0  0.52463  0.98344  0.25201  1.0000
  O   O15       1.0  0.53324  0.03648  0.18072  1.0000
  C   C69       1.0  0.55346  0.04180  0.09879  1.0000
  H   H52       1.0  0.58292  0.06050  0.10873  1.0000
  H   H53       1.0  0.54365  0.05409  0.04944  1.0000
  H   H54       1.0  0.54900  0.01568  0.07157  1.0000
  C   C70       1.0  0.00623  0.03877  0.33621  1.0000
  C   C71       1.0  0.03926  0.03700  0.33697  1.0000
  C   C72       1.0  0.04028  0.00355  0.33658  1.0000
  C   C73       1.0  0.00547  0.97051  0.33703  1.0000
  C   C74       1.0  0.97102  0.96950  0.33634  1.0000
  C   C75       1.0  0.97278  0.00431  0.33663  1.0000
  H   H55       1.0  0.00518  0.94607  0.33858  1.0000
  H   H56       1.0  0.94862  0.00459  0.33789  1.0000
  H   H57       1.0  0.06372  0.06115  0.33852  1.0000
  C   C76       1.0  0.03903  0.24484  0.34305  1.0000
  C   C77       1.0  0.00468  0.24343  0.34051  1.0000
  C   C78       1.0  0.97069  0.21013  0.33723  1.0000
  C   C79       1.0  0.97161  0.17677  0.34039  1.0000
  C   C80       1.0  0.00538  0.17628  0.33888  1.0000
  C   C81       1.0  0.03879  0.21091  0.33822  1.0000
  H   H58       1.0  0.94719  0.15243  0.33813  1.0000
  H   H59       1.0  0.06345  0.21147  0.33984  1.0000
  H   H60       1.0  0.00439  0.26774  0.34105  1.0000
  C   C82       1.0  0.76500  0.79622  0.34406  1.0000
  C   C83       1.0  0.76645  0.76329  0.34174  1.0000
  C   C84       1.0  0.79979  0.76268  0.33857  1.0000
  C   C85       1.0  0.83312  0.79696  0.34160  1.0000
  C   C86       1.0  0.83356  0.83119  0.33988  1.0000
  C   C87       1.0  0.79892  0.82993  0.33912  1.0000
  H   H61       1.0  0.85747  0.79690  0.33933  1.0000
  H   H62       1.0  0.79833  0.85402  0.34055  1.0000
  H   H63       1.0  0.74216  0.73867  0.34225  1.0000
  C   C88       1.0  0.21355  0.97071  0.34465  1.0000
  C   C89       1.0  0.24645  0.00511  0.34243  1.0000
  C   C90       1.0  0.24703  0.03904  0.33939  1.0000
  C   C91       1.0  0.21274  0.03806  0.34238  1.0000
  C   C92       1.0  0.17852  0.00426  0.34063  1.0000
  C   C93       1.0  0.17981  0.97089  0.33979  1.0000
  H   H64       1.0  0.21279  0.06247  0.34021  1.0000
  H   H65       1.0  0.15574  0.94619  0.34105  1.0000
  H   H66       1.0  0.27109  0.00548  0.34284  1.0000
  C   C94       1.0  0.17020  0.45950  0.34384  1.0000
  C   C95       1.0  0.20779  0.47037  0.34602  1.0000
  C   C96       1.0  0.21975  0.44445  0.34882  1.0000
  C   C97       1.0  0.19319  0.40645  0.34668  1.0000
  C   C98       1.0  0.15487  0.39409  0.34766  1.0000
  C   C99       1.0  0.14412  0.42136  0.34639  1.0000
  H   H67       1.0  0.20194  0.38765  0.34958  1.0000
  H   H68       1.0  0.11675  0.41341  0.34411  1.0000
  H   H69       1.0  0.22697  0.49793  0.34616  1.0000
  C   C100      1.0  0.55032  0.71252  0.34428  1.0000
  C   C101      1.0  0.53942  0.73922  0.34639  1.0000
  C   C102      1.0  0.56532  0.77711  0.34921  1.0000
  C   C103      1.0  0.60332  0.78858  0.34723  1.0000
  C   C104      1.0  0.61572  0.76265  0.34824  1.0000
  C   C105      1.0  0.58846  0.72461  0.34696  1.0000
  H   H70       1.0  0.62212  0.81613  0.35003  1.0000
  H   H71       1.0  0.59644  0.70522  0.34475  1.0000
  H   H72       1.0  0.51186  0.73084  0.34642  1.0000
  C   C106      1.0  0.29703  0.83947  0.34434  1.0000
  C   C107      1.0  0.27028  0.80188  0.34643  1.0000
  C   C108      1.0  0.23241  0.78995  0.34932  1.0000
  C   C109      1.0  0.22101  0.81654  0.34744  1.0000
  C   C110      1.0  0.24699  0.85486  0.34839  1.0000
  C   C111      1.0  0.28500  0.86557  0.34699  1.0000
  H   H73       1.0  0.19347  0.80782  0.35035  1.0000
  H   H74       1.0  0.30444  0.89293  0.34471  1.0000
  H   H75       1.0  0.27863  0.78268  0.34644  1.0000
  C   C112      1.0  0.46045  0.16819  0.34880  1.0000
  C   C113      1.0  0.47230  0.20599  0.35040  1.0000
  C   C114      1.0  0.44720  0.21901  0.34677  1.0000
  C   C115      1.0  0.40897  0.19312  0.34514  1.0000
  C   C116      1.0  0.39575  0.15466  0.34102  1.0000
  C   C117      1.0  0.42225  0.14291  0.34236  1.0000
  H   H76       1.0  0.39067  0.20249  0.34154  1.0000
  H   H77       1.0  0.41363  0.11537  0.34142  1.0000
  H   H78       1.0  0.50001  0.22455  0.35248  1.0000
  C   C118      1.0  0.71551  0.54919  0.34899  1.0000
  C   C119      1.0  0.74150  0.53738  0.35033  1.0000
  C   C120      1.0  0.77961  0.56252  0.34645  1.0000
  C   C121      1.0  0.79191  0.60074  0.34473  1.0000
  C   C122      1.0  0.76662  0.61391  0.34080  1.0000
  C   C123      1.0  0.72840  0.58738  0.34240  1.0000
  H   H79       1.0  0.81956  0.61906  0.34092  1.0000
  H   H80       1.0  0.70945  0.59597  0.34171  1.0000
  H   H81       1.0  0.73237  0.50968  0.35251  1.0000
  C   C124      1.0  0.84108  0.29407  0.34966  1.0000
  C   C125      1.0  0.80330  0.26803  0.35041  1.0000
  C   C126      1.0  0.79043  0.22995  0.34605  1.0000
  C   C127      1.0  0.81642  0.21773  0.34446  1.0000
  C   C128      1.0  0.85488  0.24309  0.34107  1.0000
  C   C129      1.0  0.86646  0.28128  0.34336  1.0000
  H   H82       1.0  0.80714  0.19010  0.33994  1.0000
  H   H83       1.0  0.89398  0.30029  0.34315  1.0000
  H   H84       1.0  0.78467  0.27710  0.35241  1.0000
  C   C130      1.0  0.08198  0.58291  0.32613  1.0000
  C   C131      1.0  0.09626  0.55894  0.32856  1.0000
  C   C132      1.0  0.13401  0.57214  0.34352  1.0000
  C   C133      1.0  0.15801  0.61087  0.34635  1.0000
  C   C134      1.0  0.14422  0.63567  0.34043  1.0000
  C   C135      1.0  0.10576  0.62089  0.33572  1.0000
  H   H85       1.0  0.18572  0.62105  0.35283  1.0000
  H   H86       1.0  0.09484  0.63796  0.33556  1.0000
  H   H87       1.0  0.07851  0.53119  0.32201  1.0000
  C   C136      1.0  0.42671  0.50090  0.32604  1.0000
  C   C137      1.0  0.45074  0.53913  0.32866  1.0000
  C   C138      1.0  0.43760  0.56373  0.34367  1.0000
  C   C139      1.0  0.39888  0.54906  0.34632  1.0000
  C   C140      1.0  0.37402  0.51049  0.34025  1.0000
  C   C141      1.0  0.38874  0.48676  0.33549  1.0000
  H   H88       1.0  0.38874  0.56663  0.35280  1.0000
  H   H89       1.0  0.37163  0.45877  0.33522  1.0000
  H   H90       1.0  0.47849  0.54909  0.32219  1.0000
  C   C142      1.0  0.50859  0.92741  0.32600  1.0000
  C   C143      1.0  0.47035  0.91316  0.32867  1.0000
  C   C144      1.0  0.44578  0.87542  0.34375  1.0000
  C   C145      1.0  0.46049  0.85140  0.34638  1.0000
  C   C146      1.0  0.49907  0.86515  0.34025  1.0000
  C   C147      1.0  0.52277  0.90362  0.33544  1.0000
  H   H91       1.0  0.44295  0.82368  0.35290  1.0000
  H   H92       1.0  0.55076  0.91452  0.33514  1.0000
  H   H93       1.0  0.46036  0.93092  0.32220  1.0000
  C   C148      1.0  0.58389  0.07919  0.32257  1.0000
  C   C149      1.0  0.55955  0.09300  0.32815  1.0000
  C   C150      1.0  0.57234  0.13108  0.33229  1.0000
  C   C151      1.0  0.61091  0.15526  0.34004  1.0000
  C   C152      1.0  0.63600  0.14176  0.34040  1.0000
  C   C153      1.0  0.62191  0.10364  0.32876  1.0000
  H   H94       1.0  0.62082  0.18296  0.34547  1.0000
  H   H95       1.0  0.63947  0.09339  0.32320  1.0000
  H   H96       1.0  0.53180  0.07471  0.32901  1.0000
  C   C154      1.0  0.50312  0.42555  0.32309  1.0000
  C   C155      1.0  0.54126  0.44991  0.32864  1.0000
  C   C156      1.0  0.56658  0.43715  0.33311  1.0000
  C   C157      1.0  0.55221  0.39860  0.34118  1.0000
  C   C158      1.0  0.51362  0.37349  0.34154  1.0000
  C   C159      1.0  0.48958  0.38755  0.32960  1.0000
  H   H97       1.0  0.57002  0.38871  0.34680  1.0000
  H   H98       1.0  0.46177  0.36997  0.32402  1.0000
  H   H99       1.0  0.55072  0.47767  0.32927  1.0000
  C   C160      1.0  0.93018  0.50649  0.32359  1.0000
  C   C161      1.0  0.91633  0.46834  0.32933  1.0000
  C   C162      1.0  0.87824  0.44307  0.33364  1.0000
  C   C163      1.0  0.85411  0.45751  0.34137  1.0000
  C   C164      1.0  0.86764  0.49610  0.34158  1.0000
  C   C165      1.0  0.90576  0.52010  0.32977  1.0000
  H   H100      1.0  0.82640  0.43974  0.34688  1.0000
  H   H101      1.0  0.91603  0.54790  0.32411  1.0000
  H   H102      1.0  0.93461  0.45885  0.33017  1.0000
  C   C166      1.0  0.97917  0.07851  0.38076  1.0000
  N   N25       1.0  0.97946  0.11119  0.38031  1.0000
  H   H103      1.0  0.95888  0.05747  0.41692  1.0000
  C   C167      1.0  0.93125  0.90285  0.38186  1.0000
  N   N26       1.0  0.89857  0.87046  0.38159  1.0000
  H   H104      1.0  0.95227  0.90370  0.41833  1.0000
  C   C168      1.0  0.10692  0.03042  0.38215  1.0000
  N   N27       1.0  0.13929  0.03008  0.38204  1.0000
  H   H105      1.0  0.10610  0.05064  0.41848  1.0000
  C   C169      1.0  0.09720  0.34155  0.41093  1.0000
  C   C170      1.0  0.12776  0.35542  0.35175  1.0000
  C   C171      1.0  0.07136  0.28041  0.35090  1.0000
  N   N28       1.0  0.07041  0.30563  0.40667  1.0000
  O   O16       1.0  0.09207  0.36332  0.47080  1.0000
  C   C172      1.0  0.10691  0.36396  0.55826  1.0000
  H   H106      1.0  0.09357  0.33655  0.58855  1.0000
  H   H107      1.0  0.10175  0.38193  0.60123  1.0000
  H   H108      1.0  0.13664  0.37493  0.55548  1.0000
  C   C173      1.0  0.66828  0.75764  0.41180  1.0000
  C   C174      1.0  0.65439  0.77424  0.35239  1.0000
  C   C175      1.0  0.72942  0.79294  0.35177  1.0000
  N   N29       1.0  0.70420  0.76680  0.40763  1.0000
  O   O17       1.0  0.64650  0.73078  0.47175  1.0000
  C   C176      1.0  0.64611  0.74502  0.55933  1.0000
  H   H109      1.0  0.67356  0.75893  0.58937  1.0000
  H   H110      1.0  0.62809  0.72193  0.60235  1.0000
  H   H111      1.0  0.63533  0.76395  0.55683  1.0000
  C   C177      1.0  0.25224  0.91258  0.41173  1.0000
  C   C178      1.0  0.23546  0.88200  0.35262  1.0000
  C   C179      1.0  0.21688  0.93841  0.35211  1.0000
  N   N30       1.0  0.24311  0.93937  0.40765  1.0000
  O   O18       1.0  0.27919  0.91769  0.47142  1.0000
  C   C180      1.0  0.26509  0.90310  0.55911  1.0000
  H   H112      1.0  0.25123  0.91666  0.58933  1.0000
  H   H113      1.0  0.28826  0.90821  0.60190  1.0000
  H   H114      1.0  0.24617  0.87339  0.55675  1.0000
  C   C181      1.0  0.33025  0.12848  0.39174  1.0000
  N   N31       1.0  0.29449  0.10049  0.39077  1.0000
  H   H115      1.0  0.33788  0.14841  0.43975  1.0000
  C   C182      1.0  0.80609  0.67950  0.39090  1.0000
  N   N32       1.0  0.81390  0.71527  0.38972  1.0000
  H   H116      1.0  0.81857  0.67194  0.43856  1.0000
  C   C183      1.0  0.88086  0.20322  0.38911  1.0000
  N   N33       1.0  0.90888  0.19550  0.38757  1.0000
  H   H117      1.0  0.86064  0.19032  0.43619  1.0000
  C   C184      1.0  0.31690  0.50412  0.40518  1.0000
  N   N34       1.0  0.27965  0.48641  0.40818  1.0000
  H   H118      1.0  0.33141  0.52422  0.45156  1.0000
  C   C185      1.0  0.50554  0.81449  0.40536  1.0000
  N   N35       1.0  0.52332  0.79502  0.40847  1.0000
  H   H119      1.0  0.48545  0.80891  0.45176  1.0000
  C   C186      1.0  0.19494  0.69278  0.40551  1.0000
  N   N36       1.0  0.21447  0.73003  0.40858  1.0000
  H   H120      1.0  0.20056  0.67826  0.45178  1.0000
  C   C187      1.0  0.46707  0.31229  0.40395  1.0000
  C   C188      1.0  0.49783  0.33458  0.34803  1.0000
  C   C189      1.0  0.46202  0.25759  0.34338  1.0000
  N   N37       1.0  0.45025  0.27497  0.39968  1.0000
  O   O19       1.0  0.45276  0.32688  0.46290  1.0000
  C   C190      1.0  0.46916  0.33346  0.55067  1.0000
  H   H121      1.0  0.46466  0.30792  0.58174  1.0000
  H   H122      1.0  0.45618  0.34499  0.59281  1.0000
  H   H123      1.0  0.49867  0.35325  0.54811  1.0000
  C   C191      1.0  0.85301  0.54269  0.40374  1.0000
  C   C192      1.0  0.84456  0.51193  0.34783  1.0000
  C   C193      1.0  0.80340  0.54775  0.34298  1.0000
  N   N38       1.0  0.83251  0.55951  0.39940  1.0000
  O   O20       1.0  0.88186  0.55697  0.46284  1.0000
  C   C194      1.0  0.87195  0.54052  0.55055  1.0000
  H   H124      1.0  0.85090  0.54503  0.58151  1.0000
  H   H125      1.0  0.89643  0.55349  0.59283  1.0000
  H   H126      1.0  0.86222  0.51102  0.54796  1.0000
  C   C195      1.0  0.69720  0.15649  0.40283  1.0000
  C   C196      1.0  0.67491  0.16487  0.34668  1.0000
  C   C197      1.0  0.75189  0.20610  0.34215  1.0000
  N   N39       1.0  0.73452  0.17702  0.39865  1.0000
  O   O21       1.0  0.68261  0.12768  0.46208  1.0000
  C   C198      1.0  0.67614  0.13770  0.54974  1.0000
  H   H127      1.0  0.70173  0.15874  0.58060  1.0000
  H   H128      1.0  0.66459  0.11326  0.59214  1.0000
  H   H129      1.0  0.65641  0.14749  0.54708  1.0000
  C   C199      1.0  0.12678  0.51365  0.40573  1.0000
  C   C200      1.0  0.14567  0.54556  0.35088  1.0000
  C   C201      1.0  0.16055  0.48743  0.34306  1.0000
  N   N40       1.0  0.13444  0.48586  0.39948  1.0000
  O   O22       1.0  0.09958  0.50874  0.46444  1.0000
  C   C202      1.0  0.11318  0.52262  0.55290  1.0000
  H   H130      1.0  0.12649  0.50851  0.58316  1.0000
  H   H131      1.0  0.08984  0.51758  0.59490  1.0000
  H   H132      1.0  0.13246  0.55227  0.55186  1.0000
  C   C203      1.0  0.49611  0.61494  0.40601  1.0000
  C   C204      1.0  0.46424  0.60196  0.35106  1.0000
  C   C205      1.0  0.52239  0.67495  0.34340  1.0000
  N   N41       1.0  0.52392  0.65038  0.39983  1.0000
  O   O23       1.0  0.50098  0.59261  0.46468  1.0000
  C   C206      1.0  0.48709  0.59232  0.55313  1.0000
  H   H133      1.0  0.50122  0.61973  0.58344  1.0000
  H   H134      1.0  0.49209  0.57398  0.59511  1.0000
  H   H135      1.0  0.45745  0.58198  0.55206  1.0000
  C   C207      1.0  0.39459  0.88270  0.40617  1.0000
  C   C208      1.0  0.40756  0.86381  0.35115  1.0000
  C   C209      1.0  0.33459  0.84906  0.34345  1.0000
  N   N42       1.0  0.35916  0.87510  0.39998  1.0000
  O   O24       1.0  0.41692  0.90984  0.46496  1.0000
  C   C210      1.0  0.41718  0.89616  0.55334  1.0000
  H   H136      1.0  0.38977  0.88286  0.58362  1.0000
  H   H137      1.0  0.43552  0.91946  0.59541  1.0000
  H   H138      1.0  0.42751  0.87685  0.55213  1.0000
  C   C211      1.0  0.54599  0.16740  0.39655  1.0000
  N   N43       1.0  0.51768  0.17426  0.40195  1.0000
  H   H139      1.0  0.56687  0.17957  0.44231  1.0000
  C   C212      1.0  0.62926  0.46367  0.39739  1.0000
  N   N44       1.0  0.66442  0.49202  0.40263  1.0000
  H   H140      1.0  0.62059  0.44285  0.44330  1.0000
  C   C213      1.0  0.84178  0.38035  0.39762  1.0000
  N   N45       1.0  0.83488  0.34516  0.40295  1.0000
  H   H141      1.0  0.82959  0.38905  0.44336  1.0000
  C   C214      1.0  0.98798  0.55817  0.37855  1.0000
  N   N46       1.0  0.02520  0.57597  0.37902  1.0000
  H   H142      1.0  0.97477  0.56317  0.42964  1.0000
  C   C215      1.0  0.45139  0.43157  0.37814  1.0000
  N   N47       1.0  0.43364  0.45103  0.37879  1.0000
  H   H143      1.0  0.44653  0.41349  0.42945  1.0000
  C   C216      1.0  0.57783  0.02146  0.37791  1.0000
  N   N48       1.0  0.55843  0.98424  0.37861  1.0000
  H   H144      1.0  0.59603  0.03473  0.42898  1.0000
