data_image0
_chemical_formula_structural       C3O2H2NC3O2H2NCOHC6H3C3H3C3HC2HC3OHOHNC3OHOHNC2OHNC3O2H2NC3O2H2NCOHC6H3C3H3C3HC2HC3OHOHNC3OHOHNC2OHNC2OHNC3H2CH2COHC2OHNC3H2CH2COHCOHC2OHNCOHC2OHNC3O2H2NC3O2H2NC2OHNC6H3C3H3C6H3C3H3C3OHOHNC3OHOHNCOHC3O2H2NC3O2H2NC2OHNC6H3C3H3C6H3C3H3C3OHOHNC3OHOHNCOH
_chemical_formula_sum              "C144 O48 H96 N24"
_cell_length_a       45.849
_cell_length_b       45.849
_cell_length_c       14.6249
_cell_angle_alpha    90
_cell_angle_beta     90
_cell_angle_gamma    120

_space_group_name_H-M_alt    "P 1"
_space_group_IT_number       1

loop_
  _space_group_symop_operation_xyz
  'x, y, z'

loop_
  _atom_site_type_symbol
  _atom_site_label
  _atom_site_symmetry_multiplicity
  _atom_site_fract_x
  _atom_site_fract_y
  _atom_site_fract_z
  _atom_site_occupancy
  C   C1        1.0  0.28734  0.24451  0.35939  1.0000
  C   C2        1.0  0.30443  0.28008  0.35215  1.0000
  C   C3        1.0  0.28677  0.29815  0.35208  1.0000
  O   O1        1.0  0.33869  0.29773  0.34624  1.0000
  O   O2        1.0  0.30521  0.33224  0.34505  1.0000
  H   H1        1.0  0.34413  0.29940  0.28072  1.0000
  H   H2        1.0  0.30751  0.33734  0.27923  1.0000
  N   N1        1.0  0.30675  0.22957  0.35830  1.0000
  C   C4        1.0  0.28754  0.04924  0.35939  1.0000
  C   C5        1.0  0.25197  0.03076  0.35215  1.0000
  C   C6        1.0  0.23391  0.49503  0.35208  1.0000
  O   O3        1.0  0.23433  0.04738  0.34624  1.0000
  O   O4        1.0  0.19982  0.47938  0.34504  1.0000
  H   H3        1.0  0.23266  0.05115  0.28071  1.0000
  H   H4        1.0  0.19472  0.47658  0.27922  1.0000
  N   N2        1.0  0.30248  0.08359  0.35830  1.0000
  C   C7        1.0  0.03702  0.24528  0.35208  1.0000
  O   O5        1.0  0.05267  0.22685  0.34505  1.0000
  H   H5        1.0  0.05548  0.22455  0.27923  1.0000
  C   C8        1.0  0.21134  0.33662  0.35929  1.0000
  C   C9        1.0  0.22003  0.37102  0.35932  1.0000
  C   C10       1.0  0.19544  0.38114  0.35930  1.0000
  C   C11       1.0  0.16103  0.35542  0.35932  1.0000
  C   C12       1.0  0.15092  0.32071  0.35930  1.0000
  C   C13       1.0  0.17664  0.31202  0.35932  1.0000
  H   H6        1.0  0.14283  0.36215  0.35908  1.0000
  H   H7        1.0  0.16991  0.28709  0.35907  1.0000
  H   H8        1.0  0.24497  0.38923  0.35908  1.0000
  C   C14       1.0  0.20399  0.41548  0.35867  1.0000
  C   C15       1.0  0.11658  0.29493  0.35867  1.0000
  C   C16       1.0  0.23713  0.32806  0.35867  1.0000
  H   H9        1.0  0.26143  0.34734  0.35780  1.0000
  H   H10       1.0  0.11155  0.27062  0.35781  1.0000
  H   H11       1.0  0.18472  0.42051  0.35780  1.0000
  C   C17       1.0  0.32712  0.18902  0.35974  1.0000
  C   C18       1.0  0.31843  0.15462  0.35971  1.0000
  C   C19       1.0  0.34303  0.14451  0.35974  1.0000
  H   H12       1.0  0.29350  0.13642  0.35996  1.0000
  C   C20       1.0  0.33448  0.11017  0.36036  1.0000
  C   C21       1.0  0.30134  0.19758  0.36036  1.0000
  H   H13       1.0  0.27703  0.17831  0.36123  1.0000
  C   C22       1.0  0.25113  0.28113  0.35964  1.0000
  C   C23       1.0  0.23404  0.24556  0.36689  1.0000
  C   C24       1.0  0.25169  0.22749  0.36695  1.0000
  O   O6        1.0  0.23326  0.19341  0.37398  1.0000
  H   H14       1.0  0.23096  0.18830  0.43981  1.0000
  O   O7        1.0  0.19977  0.22792  0.37279  1.0000
  H   H15       1.0  0.19434  0.22625  0.43832  1.0000
  N   N3        1.0  0.23172  0.29607  0.36073  1.0000
  C   C25       1.0  0.25092  0.47641  0.35964  1.0000
  C   C26       1.0  0.28649  0.49489  0.36689  1.0000
  C   C27       1.0  0.30456  0.03061  0.36695  1.0000
  O   O8        1.0  0.33865  0.04626  0.37399  1.0000
  H   H16       1.0  0.34375  0.04907  0.43982  1.0000
  O   O9        1.0  0.30414  0.47827  0.37279  1.0000
  H   H17       1.0  0.30580  0.47450  0.43833  1.0000
  N   N4        1.0  0.23598  0.44205  0.36074  1.0000
  C   C28       1.0  0.05565  0.28093  0.35964  1.0000
  C   C29       1.0  0.03717  0.29801  0.36688  1.0000
  O   O10       1.0  0.05379  0.33228  0.37278  1.0000
  H   H18       1.0  0.05756  0.33772  0.43831  1.0000
  N   N5        1.0  0.09000  0.30034  0.36073  1.0000
  C   C30       1.0  0.28734  0.74451  0.35939  1.0000
  C   C31       1.0  0.30443  0.78008  0.35215  1.0000
  C   C32       1.0  0.28677  0.79815  0.35208  1.0000
  O   O11       1.0  0.33870  0.79773  0.34624  1.0000
  O   O12       1.0  0.30521  0.83224  0.34505  1.0000
  H   H19       1.0  0.34413  0.79940  0.28072  1.0000
  H   H20       1.0  0.30751  0.83734  0.27923  1.0000
  N   N6        1.0  0.30675  0.72957  0.35830  1.0000
  C   C33       1.0  0.28754  0.54924  0.35939  1.0000
  C   C34       1.0  0.25198  0.53076  0.35215  1.0000
  C   C35       1.0  0.23391  0.99503  0.35208  1.0000
  O   O13       1.0  0.23433  0.54738  0.34624  1.0000
  O   O14       1.0  0.19982  0.97939  0.34504  1.0000
  H   H21       1.0  0.23266  0.55115  0.28071  1.0000
  H   H22       1.0  0.19472  0.97658  0.27922  1.0000
  N   N7        1.0  0.30248  0.58359  0.35830  1.0000
  C   C36       1.0  0.03702  0.74528  0.35208  1.0000
  O   O15       1.0  0.05267  0.72685  0.34505  1.0000
  H   H23       1.0  0.05548  0.72455  0.27923  1.0000
  C   C37       1.0  0.21134  0.83662  0.35929  1.0000
  C   C38       1.0  0.22003  0.87102  0.35932  1.0000
  C   C39       1.0  0.19543  0.88114  0.35930  1.0000
  C   C40       1.0  0.16103  0.85542  0.35932  1.0000
  C   C41       1.0  0.15092  0.82071  0.35930  1.0000
  C   C42       1.0  0.17664  0.81202  0.35932  1.0000
  H   H24       1.0  0.14283  0.86215  0.35908  1.0000
  H   H25       1.0  0.16991  0.78709  0.35907  1.0000
  H   H26       1.0  0.24497  0.88923  0.35908  1.0000
  C   C43       1.0  0.20400  0.91548  0.35867  1.0000
  C   C44       1.0  0.11658  0.79493  0.35867  1.0000
  C   C45       1.0  0.23713  0.82806  0.35867  1.0000
  H   H27       1.0  0.26144  0.84734  0.35780  1.0000
  H   H28       1.0  0.11155  0.77062  0.35781  1.0000
  H   H29       1.0  0.18472  0.92051  0.35780  1.0000
  C   C46       1.0  0.32712  0.68903  0.35974  1.0000
  C   C47       1.0  0.31844  0.65462  0.35971  1.0000
  C   C48       1.0  0.34303  0.64451  0.35974  1.0000
  H   H30       1.0  0.29350  0.63642  0.35996  1.0000
  C   C49       1.0  0.33448  0.61017  0.36036  1.0000
  C   C50       1.0  0.30134  0.69758  0.36036  1.0000
  H   H31       1.0  0.27703  0.67831  0.36123  1.0000
  C   C51       1.0  0.25113  0.78113  0.35964  1.0000
  C   C52       1.0  0.23404  0.74557  0.36689  1.0000
  C   C53       1.0  0.25169  0.72750  0.36695  1.0000
  O   O16       1.0  0.23326  0.69341  0.37398  1.0000
  H   H32       1.0  0.23096  0.68830  0.43981  1.0000
  O   O17       1.0  0.19977  0.72792  0.37279  1.0000
  H   H33       1.0  0.19434  0.72625  0.43832  1.0000
  N   N8        1.0  0.23172  0.79607  0.36073  1.0000
  C   C54       1.0  0.25092  0.97641  0.35964  1.0000
  C   C55       1.0  0.28649  0.99489  0.36689  1.0000
  C   C56       1.0  0.30456  0.53061  0.36695  1.0000
  O   O18       1.0  0.33865  0.54626  0.37399  1.0000
  H   H34       1.0  0.34375  0.54907  0.43982  1.0000
  O   O19       1.0  0.30414  0.97827  0.37279  1.0000
  H   H35       1.0  0.30580  0.97450  0.43833  1.0000
  N   N9        1.0  0.23598  0.94206  0.36074  1.0000
  C   C57       1.0  0.05565  0.78093  0.35964  1.0000
  C   C58       1.0  0.03717  0.79802  0.36688  1.0000
  O   O20       1.0  0.05379  0.83228  0.37278  1.0000
  H   H36       1.0  0.05756  0.83772  0.43831  1.0000
  N   N10       1.0  0.09000  0.80034  0.36073  1.0000
  C   C59       1.0  0.48282  0.24472  0.35939  1.0000
  C   C60       1.0  0.50130  0.22763  0.35215  1.0000
  O   O21       1.0  0.48468  0.19336  0.34625  1.0000
  H   H37       1.0  0.48091  0.18793  0.28072  1.0000
  N   N11       1.0  0.44846  0.22530  0.35830  1.0000
  C   C61       1.0  0.37744  0.17022  0.35971  1.0000
  C   C62       1.0  0.38755  0.20493  0.35974  1.0000
  C   C63       1.0  0.36183  0.21362  0.35971  1.0000
  H   H38       1.0  0.39564  0.16350  0.35996  1.0000
  H   H39       1.0  0.36856  0.23855  0.35996  1.0000
  C   C64       1.0  0.42189  0.23072  0.36036  1.0000
  H   H40       1.0  0.42692  0.25503  0.36123  1.0000
  H   H41       1.0  0.35375  0.10514  0.36124  1.0000
  C   C65       1.0  0.50145  0.28036  0.36695  1.0000
  O   O22       1.0  0.48580  0.29880  0.37398  1.0000
  H   H42       1.0  0.48299  0.30110  0.43980  1.0000
  C   C66       1.0  0.48282  0.74472  0.35939  1.0000
  C   C67       1.0  0.50130  0.72763  0.35215  1.0000
  O   O23       1.0  0.48468  0.69336  0.34625  1.0000
  H   H43       1.0  0.48091  0.68793  0.28072  1.0000
  N   N12       1.0  0.44847  0.72530  0.35830  1.0000
  C   C68       1.0  0.37744  0.67022  0.35971  1.0000
  C   C69       1.0  0.38755  0.70493  0.35974  1.0000
  C   C70       1.0  0.36183  0.71362  0.35971  1.0000
  H   H44       1.0  0.39564  0.66350  0.35996  1.0000
  H   H45       1.0  0.36856  0.73855  0.35996  1.0000
  C   C71       1.0  0.42189  0.73072  0.36036  1.0000
  H   H46       1.0  0.42692  0.75503  0.36123  1.0000
  H   H47       1.0  0.35375  0.60514  0.36124  1.0000
  C   C72       1.0  0.50145  0.78036  0.36695  1.0000
  O   O24       1.0  0.48579  0.79880  0.37398  1.0000
  H   H48       1.0  0.48299  0.80110  0.43980  1.0000
  C   C73       1.0  0.53702  0.24528  0.35208  1.0000
  O   O25       1.0  0.55268  0.22685  0.34505  1.0000
  H   H49       1.0  0.55548  0.22455  0.27923  1.0000
  C   C74       1.0  0.55565  0.28093  0.35964  1.0000
  C   C75       1.0  0.53717  0.29801  0.36688  1.0000
  O   O26       1.0  0.55379  0.33228  0.37278  1.0000
  H   H50       1.0  0.55756  0.33772  0.43831  1.0000
  N   N13       1.0  0.59000  0.30034  0.36073  1.0000
  C   C76       1.0  0.53702  0.74528  0.35208  1.0000
  O   O27       1.0  0.55267  0.72685  0.34505  1.0000
  H   H51       1.0  0.55548  0.72455  0.27923  1.0000
  C   C77       1.0  0.55565  0.78093  0.35964  1.0000
  C   C78       1.0  0.53717  0.79802  0.36688  1.0000
  O   O28       1.0  0.55379  0.83228  0.37278  1.0000
  H   H52       1.0  0.55756  0.83772  0.43831  1.0000
  N   N14       1.0  0.59000  0.80034  0.36073  1.0000
  C   C79       1.0  0.78734  0.24451  0.35939  1.0000
  C   C80       1.0  0.80443  0.28008  0.35215  1.0000
  C   C81       1.0  0.78677  0.29815  0.35208  1.0000
  O   O29       1.0  0.83869  0.29773  0.34624  1.0000
  O   O30       1.0  0.80521  0.33224  0.34505  1.0000
  H   H53       1.0  0.84413  0.29940  0.28072  1.0000
  H   H54       1.0  0.80751  0.33734  0.27923  1.0000
  N   N15       1.0  0.80675  0.22957  0.35830  1.0000
  C   C82       1.0  0.78755  0.04924  0.35939  1.0000
  C   C83       1.0  0.75197  0.03076  0.35215  1.0000
  C   C84       1.0  0.73391  0.49503  0.35208  1.0000
  O   O31       1.0  0.73433  0.04738  0.34624  1.0000
  O   O32       1.0  0.69982  0.47938  0.34504  1.0000
  H   H55       1.0  0.73266  0.05115  0.28071  1.0000
  H   H56       1.0  0.69472  0.47658  0.27922  1.0000
  N   N16       1.0  0.80248  0.08359  0.35830  1.0000
  C   C85       1.0  0.98282  0.24472  0.35939  1.0000
  C   C86       1.0  0.00130  0.22763  0.35215  1.0000
  O   O33       1.0  0.98468  0.19336  0.34625  1.0000
  H   H57       1.0  0.98091  0.18793  0.28072  1.0000
  N   N17       1.0  0.94846  0.22530  0.35830  1.0000
  C   C87       1.0  0.71135  0.33662  0.35929  1.0000
  C   C88       1.0  0.72003  0.37102  0.35932  1.0000
  C   C89       1.0  0.69544  0.38114  0.35930  1.0000
  C   C90       1.0  0.66103  0.35542  0.35932  1.0000
  C   C91       1.0  0.65092  0.32071  0.35930  1.0000
  C   C92       1.0  0.67664  0.31202  0.35932  1.0000
  H   H58       1.0  0.64283  0.36215  0.35908  1.0000
  H   H59       1.0  0.66990  0.28709  0.35907  1.0000
  H   H60       1.0  0.74497  0.38923  0.35908  1.0000
  C   C93       1.0  0.70399  0.41548  0.35867  1.0000
  C   C94       1.0  0.61658  0.29493  0.35867  1.0000
  C   C95       1.0  0.73713  0.32806  0.35867  1.0000
  H   H61       1.0  0.76144  0.34734  0.35780  1.0000
  H   H62       1.0  0.61155  0.27062  0.35781  1.0000
  H   H63       1.0  0.68472  0.42051  0.35780  1.0000
  C   C96       1.0  0.82712  0.18902  0.35974  1.0000
  C   C97       1.0  0.81844  0.15462  0.35971  1.0000
  C   C98       1.0  0.84303  0.14451  0.35974  1.0000
  C   C99       1.0  0.87743  0.17022  0.35971  1.0000
  C   C100      1.0  0.88755  0.20493  0.35974  1.0000
  C   C101      1.0  0.86183  0.21362  0.35971  1.0000
  H   H64       1.0  0.89564  0.16350  0.35996  1.0000
  H   H65       1.0  0.86856  0.23855  0.35996  1.0000
  H   H66       1.0  0.79350  0.13642  0.35996  1.0000
  C   C102      1.0  0.83447  0.11017  0.36036  1.0000
  C   C103      1.0  0.92189  0.23072  0.36036  1.0000
  C   C104      1.0  0.80134  0.19758  0.36036  1.0000
  H   H67       1.0  0.77703  0.17831  0.36123  1.0000
  H   H68       1.0  0.92692  0.25503  0.36123  1.0000
  H   H69       1.0  0.85375  0.10514  0.36124  1.0000
  C   C105      1.0  0.75113  0.28113  0.35964  1.0000
  C   C106      1.0  0.73404  0.24556  0.36689  1.0000
  C   C107      1.0  0.75169  0.22749  0.36695  1.0000
  O   O34       1.0  0.73326  0.19341  0.37398  1.0000
  H   H70       1.0  0.73096  0.18830  0.43981  1.0000
  O   O35       1.0  0.69978  0.22792  0.37279  1.0000
  H   H71       1.0  0.69434  0.22625  0.43832  1.0000
  N   N18       1.0  0.73172  0.29607  0.36073  1.0000
  C   C108      1.0  0.75092  0.47641  0.35964  1.0000
  C   C109      1.0  0.78649  0.49489  0.36689  1.0000
  C   C110      1.0  0.80456  0.03061  0.36695  1.0000
  O   O36       1.0  0.83865  0.04626  0.37399  1.0000
  H   H72       1.0  0.84375  0.04907  0.43982  1.0000
  O   O37       1.0  0.80414  0.47827  0.37279  1.0000
  H   H73       1.0  0.80580  0.47450  0.43833  1.0000
  N   N19       1.0  0.73599  0.44205  0.36074  1.0000
  C   C111      1.0  0.00145  0.28036  0.36695  1.0000
  O   O38       1.0  0.98579  0.29880  0.37398  1.0000
  H   H74       1.0  0.98299  0.30110  0.43980  1.0000
  C   C112      1.0  0.78734  0.74451  0.35939  1.0000
  C   C113      1.0  0.80443  0.78008  0.35215  1.0000
  C   C114      1.0  0.78678  0.79815  0.35208  1.0000
  O   O39       1.0  0.83869  0.79773  0.34624  1.0000
  O   O40       1.0  0.80521  0.83224  0.34505  1.0000
  H   H75       1.0  0.84413  0.79940  0.28072  1.0000
  H   H76       1.0  0.80751  0.83734  0.27923  1.0000
  N   N20       1.0  0.80675  0.72957  0.35830  1.0000
  C   C115      1.0  0.78755  0.54924  0.35939  1.0000
  C   C116      1.0  0.75197  0.53076  0.35215  1.0000
  C   C117      1.0  0.73391  0.99503  0.35208  1.0000
  O   O41       1.0  0.73433  0.54738  0.34624  1.0000
  O   O42       1.0  0.69982  0.97939  0.34504  1.0000
  H   H77       1.0  0.73266  0.55115  0.28071  1.0000
  H   H78       1.0  0.69472  0.97658  0.27922  1.0000
  N   N21       1.0  0.80248  0.58359  0.35830  1.0000
  C   C118      1.0  0.98282  0.74472  0.35939  1.0000
  C   C119      1.0  0.00130  0.72763  0.35215  1.0000
  O   O43       1.0  0.98467  0.69336  0.34625  1.0000
  H   H79       1.0  0.98091  0.68793  0.28072  1.0000
  N   N22       1.0  0.94847  0.72530  0.35830  1.0000
  C   C120      1.0  0.71134  0.83662  0.35929  1.0000
  C   C121      1.0  0.72003  0.87102  0.35932  1.0000
  C   C122      1.0  0.69544  0.88114  0.35930  1.0000
  C   C123      1.0  0.66103  0.85542  0.35932  1.0000
  C   C124      1.0  0.65092  0.82071  0.35930  1.0000
  C   C125      1.0  0.67664  0.81202  0.35932  1.0000
  H   H80       1.0  0.64283  0.86215  0.35908  1.0000
  H   H81       1.0  0.66991  0.78709  0.35907  1.0000
  H   H82       1.0  0.74497  0.88923  0.35908  1.0000
  C   C126      1.0  0.70399  0.91548  0.35867  1.0000
  C   C127      1.0  0.61658  0.79493  0.35867  1.0000
  C   C128      1.0  0.73713  0.82806  0.35867  1.0000
  H   H83       1.0  0.76143  0.84734  0.35780  1.0000
  H   H84       1.0  0.61155  0.77062  0.35781  1.0000
  H   H85       1.0  0.68472  0.92051  0.35780  1.0000
  C   C129      1.0  0.82712  0.68903  0.35974  1.0000
  C   C130      1.0  0.81844  0.65462  0.35971  1.0000
  C   C131      1.0  0.84303  0.64451  0.35974  1.0000
  C   C132      1.0  0.87743  0.67022  0.35971  1.0000
  C   C133      1.0  0.88755  0.70493  0.35974  1.0000
  C   C134      1.0  0.86183  0.71362  0.35971  1.0000
  H   H86       1.0  0.89564  0.66350  0.35996  1.0000
  H   H87       1.0  0.86856  0.73855  0.35996  1.0000
  H   H88       1.0  0.79350  0.63642  0.35996  1.0000
  C   C135      1.0  0.83447  0.61017  0.36036  1.0000
  C   C136      1.0  0.92189  0.73072  0.36036  1.0000
  C   C137      1.0  0.80134  0.69758  0.36036  1.0000
  H   H89       1.0  0.77703  0.67831  0.36123  1.0000
  H   H90       1.0  0.92692  0.75503  0.36123  1.0000
  H   H91       1.0  0.85375  0.60514  0.36124  1.0000
  C   C138      1.0  0.75113  0.78113  0.35964  1.0000
  C   C139      1.0  0.73404  0.74557  0.36689  1.0000
  C   C140      1.0  0.75170  0.72750  0.36695  1.0000
  O   O44       1.0  0.73326  0.69341  0.37398  1.0000
  H   H92       1.0  0.73096  0.68830  0.43981  1.0000
  O   O45       1.0  0.69977  0.72792  0.37279  1.0000
  H   H93       1.0  0.69434  0.72625  0.43832  1.0000
  N   N23       1.0  0.73172  0.79607  0.36073  1.0000
  C   C141      1.0  0.75092  0.97641  0.35964  1.0000
  C   C142      1.0  0.78649  0.99489  0.36689  1.0000
  C   C143      1.0  0.80456  0.53061  0.36695  1.0000
  O   O46       1.0  0.83865  0.54626  0.37399  1.0000
  H   H94       1.0  0.84375  0.54907  0.43982  1.0000
  O   O47       1.0  0.80414  0.97827  0.37279  1.0000
  H   H95       1.0  0.80581  0.97450  0.43833  1.0000
  N   N24       1.0  0.73598  0.94206  0.36074  1.0000
  C   C144      1.0  0.00144  0.78036  0.36695  1.0000
  O   O48       1.0  0.98580  0.79880  0.37398  1.0000
  H   H96       1.0  0.98299  0.80110  0.43980  1.0000
