data_image0
_chemical_formula_structural       C3NC3HNO2NCNO2C6H3C3H4CHC3HNO2NC3N2C2NO2NC3NC3HNO2NCNO2C6H3C3H4CHC3HNO2NC3N2C2NO2NHO2NCNC6H2C2H3O2H2O2NCNC6H2C2H3O2H3C5NO2CHCHC2NO2NCNO2CHCHC2NO2NC3HNO2NC3HNO2NC2HNC5H2C2H2C6H3C3H3C3HNO2NC3HNO2NCHC3HNO2NC3HNO2NC2HNC5H2C2H2C6H3C3H3C3HNO2NC3HNO2NCH
_chemical_formula_sum              "C144 N48 H72 O48"
_cell_length_a       45.8345
_cell_length_b       45.8343
_cell_length_c       14.5932
_cell_angle_alpha    90
_cell_angle_beta     90
_cell_angle_gamma    120

_space_group_name_H-M_alt    "P 1"
_space_group_IT_number       1

loop_
  _space_group_symop_operation_xyz
  'x, y, z'

loop_
  _atom_site_type_symbol
  _atom_site_label
  _atom_site_symmetry_multiplicity
  _atom_site_fract_x
  _atom_site_fract_y
  _atom_site_fract_z
  _atom_site_occupancy
  C   C1        1.0  0.29214  0.24844  0.36093  1.0000
  C   C2        1.0  0.30865  0.28367  0.35014  1.0000
  C   C3        1.0  0.29100  0.30182  0.34975  1.0000
  N   N1        1.0  0.30893  0.33696  0.33442  1.0000
  C   C4        1.0  0.28641  0.05068  0.36088  1.0000
  C   C5        1.0  0.25120  0.03195  0.34956  1.0000
  C   C6        1.0  0.23306  0.49615  0.34914  1.0000
  H   H1        1.0  0.23829  0.04460  0.33995  1.0000
  N   N2        1.0  0.19796  0.47893  0.33311  1.0000
  O   O1        1.0  0.18240  0.48546  0.39315  1.0000
  O   O2        1.0  0.19095  0.48560  0.25542  1.0000
  N   N3        1.0  0.30132  0.08497  0.35974  1.0000
  C   C7        1.0  0.03869  0.24384  0.34973  1.0000
  N   N4        1.0  0.05590  0.22592  0.33436  1.0000
  O   O3        1.0  0.04922  0.21203  0.25695  1.0000
  O   O4        1.0  0.04937  0.20398  0.39489  1.0000
  C   C8        1.0  0.21368  0.33862  0.36290  1.0000
  C   C9        1.0  0.22148  0.37278  0.36298  1.0000
  C   C10       1.0  0.19623  0.38204  0.36283  1.0000
  C   C11       1.0  0.16206  0.35567  0.36287  1.0000
  C   C12       1.0  0.15281  0.32117  0.36285  1.0000
  C   C13       1.0  0.17918  0.31337  0.36296  1.0000
  H   H2        1.0  0.14338  0.36174  0.36237  1.0000
  H   H3        1.0  0.17310  0.28861  0.36250  1.0000
  H   H4        1.0  0.24624  0.39147  0.36252  1.0000
  C   C14       1.0  0.20391  0.41614  0.36154  1.0000
  C   C15       1.0  0.11871  0.29474  0.36161  1.0000
  C   C16       1.0  0.24010  0.33094  0.36168  1.0000
  H   H5        1.0  0.26414  0.35075  0.36040  1.0000
  H   H6        1.0  0.11448  0.27070  0.36034  1.0000
  H   H7        1.0  0.18410  0.42037  0.36013  1.0000
  H   H8        1.0  0.29466  0.13902  0.36388  1.0000
  C   C17       1.0  0.30470  0.20108  0.36440  1.0000
  H   H9        1.0  0.27993  0.18259  0.36701  1.0000
  C   C18       1.0  0.25539  0.28450  0.36215  1.0000
  C   C19       1.0  0.23849  0.24889  0.37300  1.0000
  C   C20       1.0  0.25681  0.23140  0.37190  1.0000
  H   H10       1.0  0.24400  0.20584  0.38045  1.0000
  N   N5        1.0  0.20311  0.23121  0.38630  1.0000
  O   O5        1.0  0.19529  0.21650  0.46256  1.0000
  O   O6        1.0  0.18819  0.20980  0.32426  1.0000
  N   N6        1.0  0.23579  0.29933  0.36431  1.0000
  C   C21       1.0  0.25036  0.47787  0.36211  1.0000
  C   C22       1.0  0.28594  0.49658  0.37350  1.0000
  C   C23       1.0  0.30343  0.03239  0.37237  1.0000
  N   N7        1.0  0.30359  0.47888  0.38741  1.0000
  N   N8        1.0  0.23553  0.44344  0.36435  1.0000
  C   C24       1.0  0.05697  0.27945  0.36212  1.0000
  C   C25       1.0  0.03827  0.29635  0.37302  1.0000
  N   N9        1.0  0.05597  0.33173  0.38630  1.0000
  O   O7        1.0  0.04910  0.33956  0.46257  1.0000
  O   O8        1.0  0.04948  0.34666  0.32428  1.0000
  N   N10       1.0  0.09141  0.29906  0.36426  1.0000
  C   C26       1.0  0.29215  0.74844  0.36093  1.0000
  C   C27       1.0  0.30865  0.78367  0.35014  1.0000
  C   C28       1.0  0.29100  0.80182  0.34975  1.0000
  N   N11       1.0  0.30893  0.83696  0.33443  1.0000
  C   C29       1.0  0.28641  0.55068  0.36088  1.0000
  C   C30       1.0  0.25120  0.53194  0.34956  1.0000
  C   C31       1.0  0.23306  0.99615  0.34914  1.0000
  H   H11       1.0  0.23829  0.54460  0.33995  1.0000
  N   N12       1.0  0.19796  0.97893  0.33311  1.0000
  O   O9        1.0  0.18240  0.98547  0.39315  1.0000
  O   O10       1.0  0.19095  0.98560  0.25542  1.0000
  N   N13       1.0  0.30132  0.58498  0.35974  1.0000
  C   C32       1.0  0.03869  0.74384  0.34973  1.0000
  N   N14       1.0  0.05590  0.72592  0.33436  1.0000
  O   O11       1.0  0.04922  0.71203  0.25694  1.0000
  O   O12       1.0  0.04937  0.70398  0.39489  1.0000
  C   C33       1.0  0.21368  0.83862  0.36290  1.0000
  C   C34       1.0  0.22148  0.87278  0.36298  1.0000
  C   C35       1.0  0.19623  0.88204  0.36283  1.0000
  C   C36       1.0  0.16207  0.85567  0.36287  1.0000
  C   C37       1.0  0.15281  0.82117  0.36285  1.0000
  C   C38       1.0  0.17918  0.81337  0.36296  1.0000
  H   H12       1.0  0.14339  0.86174  0.36237  1.0000
  H   H13       1.0  0.17310  0.78861  0.36250  1.0000
  H   H14       1.0  0.24624  0.89146  0.36253  1.0000
  C   C39       1.0  0.20391  0.91614  0.36154  1.0000
  C   C40       1.0  0.11871  0.79474  0.36161  1.0000
  C   C41       1.0  0.24011  0.83094  0.36168  1.0000
  H   H15       1.0  0.26414  0.85075  0.36040  1.0000
  H   H16       1.0  0.11448  0.77070  0.36034  1.0000
  H   H17       1.0  0.18410  0.92037  0.36013  1.0000
  H   H18       1.0  0.29466  0.63902  0.36388  1.0000
  C   C42       1.0  0.30470  0.70108  0.36440  1.0000
  H   H19       1.0  0.27993  0.68259  0.36701  1.0000
  C   C43       1.0  0.25540  0.78450  0.36215  1.0000
  C   C44       1.0  0.23849  0.74889  0.37300  1.0000
  C   C45       1.0  0.25681  0.73140  0.37190  1.0000
  H   H20       1.0  0.24400  0.70584  0.38045  1.0000
  N   N15       1.0  0.20311  0.73121  0.38630  1.0000
  O   O13       1.0  0.19529  0.71650  0.46255  1.0000
  O   O14       1.0  0.18819  0.70980  0.32426  1.0000
  N   N16       1.0  0.23579  0.79932  0.36431  1.0000
  C   C46       1.0  0.25036  0.97787  0.36211  1.0000
  C   C47       1.0  0.28594  0.99658  0.37350  1.0000
  C   C48       1.0  0.30343  0.53239  0.37237  1.0000
  N   N17       1.0  0.30359  0.97888  0.38741  1.0000
  N   N18       1.0  0.23553  0.94344  0.36435  1.0000
  C   C49       1.0  0.05698  0.77945  0.36212  1.0000
  C   C50       1.0  0.03827  0.79635  0.37302  1.0000
  N   N19       1.0  0.05597  0.83173  0.38630  1.0000
  O   O15       1.0  0.04910  0.83956  0.46258  1.0000
  O   O16       1.0  0.04948  0.84666  0.32429  1.0000
  N   N20       1.0  0.09141  0.79906  0.36426  1.0000
  H   H21       1.0  0.33424  0.29660  0.34096  1.0000
  O   O17       1.0  0.32282  0.34418  0.25701  1.0000
  O   O18       1.0  0.33086  0.35235  0.39496  1.0000
  N   N21       1.0  0.31153  0.23353  0.35983  1.0000
  C   C51       1.0  0.48416  0.24270  0.36100  1.0000
  N   N22       1.0  0.44987  0.22331  0.35993  1.0000
  C   C52       1.0  0.32963  0.19129  0.36360  1.0000
  C   C53       1.0  0.31982  0.15658  0.36356  1.0000
  C   C54       1.0  0.34355  0.14530  0.36369  1.0000
  C   C55       1.0  0.37826  0.17020  0.36372  1.0000
  C   C56       1.0  0.38954  0.20522  0.36370  1.0000
  C   C57       1.0  0.36464  0.21503  0.36361  1.0000
  H   H22       1.0  0.39582  0.16261  0.36411  1.0000
  H   H23       1.0  0.37223  0.24018  0.36394  1.0000
  C   C58       1.0  0.33376  0.11059  0.36456  1.0000
  C   C59       1.0  0.42425  0.23014  0.36453  1.0000
  H   H24       1.0  0.43053  0.25491  0.36714  1.0000
  H   H25       1.0  0.35225  0.10431  0.36738  1.0000
  H   H26       1.0  0.32897  0.04514  0.38134  1.0000
  O   O19       1.0  0.31812  0.48577  0.46393  1.0000
  O   O20       1.0  0.32515  0.48537  0.32580  1.0000
  H   H27       1.0  0.48971  0.29085  0.38053  1.0000
  H   H28       1.0  0.33424  0.79660  0.34097  1.0000
  O   O21       1.0  0.32282  0.84418  0.25701  1.0000
  O   O22       1.0  0.33086  0.85235  0.39496  1.0000
  N   N23       1.0  0.31153  0.73353  0.35984  1.0000
  C   C60       1.0  0.48416  0.74270  0.36100  1.0000
  N   N24       1.0  0.44987  0.72331  0.35993  1.0000
  C   C61       1.0  0.32963  0.69130  0.36360  1.0000
  C   C62       1.0  0.31982  0.65658  0.36356  1.0000
  C   C63       1.0  0.34355  0.64530  0.36369  1.0000
  C   C64       1.0  0.37826  0.67020  0.36372  1.0000
  C   C65       1.0  0.38954  0.70522  0.36370  1.0000
  C   C66       1.0  0.36464  0.71503  0.36361  1.0000
  H   H29       1.0  0.39582  0.66261  0.36411  1.0000
  H   H30       1.0  0.37223  0.74018  0.36394  1.0000
  C   C67       1.0  0.33376  0.61059  0.36456  1.0000
  C   C68       1.0  0.42425  0.73014  0.36453  1.0000
  H   H31       1.0  0.43053  0.75491  0.36714  1.0000
  H   H32       1.0  0.35225  0.60431  0.36738  1.0000
  H   H33       1.0  0.32897  0.54514  0.38134  1.0000
  O   O23       1.0  0.31813  0.98577  0.46393  1.0000
  O   O24       1.0  0.32515  0.98536  0.32580  1.0000
  H   H34       1.0  0.48971  0.79084  0.38053  1.0000
  H   H35       1.0  0.49023  0.20060  0.34099  1.0000
  H   H36       1.0  0.49023  0.70060  0.34099  1.0000
  C   C69       1.0  0.50289  0.22619  0.35017  1.0000
  C   C70       1.0  0.50245  0.27803  0.37195  1.0000
  C   C71       1.0  0.50289  0.72619  0.35017  1.0000
  C   C72       1.0  0.50246  0.77803  0.37195  1.0000
  C   C73       1.0  0.53869  0.24384  0.34973  1.0000
  N   N25       1.0  0.55590  0.22592  0.33436  1.0000
  O   O25       1.0  0.54922  0.21203  0.25695  1.0000
  O   O26       1.0  0.54937  0.20398  0.39489  1.0000
  C   C74       1.0  0.65281  0.32117  0.36285  1.0000
  H   H37       1.0  0.64338  0.36174  0.36237  1.0000
  C   C75       1.0  0.61871  0.29474  0.36161  1.0000
  H   H38       1.0  0.61448  0.27070  0.36034  1.0000
  C   C76       1.0  0.55697  0.27945  0.36212  1.0000
  C   C77       1.0  0.53827  0.29635  0.37302  1.0000
  N   N26       1.0  0.55597  0.33173  0.38630  1.0000
  O   O27       1.0  0.54910  0.33956  0.46257  1.0000
  O   O28       1.0  0.54948  0.34666  0.32428  1.0000
  N   N27       1.0  0.59141  0.29906  0.36426  1.0000
  C   C78       1.0  0.53869  0.74384  0.34973  1.0000
  N   N28       1.0  0.55590  0.72592  0.33436  1.0000
  O   O29       1.0  0.54922  0.71203  0.25694  1.0000
  O   O30       1.0  0.54937  0.70398  0.39489  1.0000
  C   C79       1.0  0.65281  0.82117  0.36285  1.0000
  H   H39       1.0  0.64338  0.86174  0.36237  1.0000
  C   C80       1.0  0.61871  0.79474  0.36161  1.0000
  H   H40       1.0  0.61448  0.77070  0.36034  1.0000
  C   C81       1.0  0.55697  0.77945  0.36212  1.0000
  C   C82       1.0  0.53827  0.79635  0.37302  1.0000
  N   N29       1.0  0.55597  0.83173  0.38630  1.0000
  O   O31       1.0  0.54910  0.83956  0.46258  1.0000
  O   O32       1.0  0.54948  0.84666  0.32429  1.0000
  N   N30       1.0  0.59141  0.79906  0.36426  1.0000
  C   C83       1.0  0.79214  0.24844  0.36093  1.0000
  C   C84       1.0  0.80865  0.28367  0.35014  1.0000
  C   C85       1.0  0.79100  0.30182  0.34975  1.0000
  H   H41       1.0  0.83424  0.29660  0.34096  1.0000
  N   N31       1.0  0.80893  0.33696  0.33442  1.0000
  O   O33       1.0  0.82282  0.34418  0.25701  1.0000
  O   O34       1.0  0.83086  0.35235  0.39496  1.0000
  N   N32       1.0  0.81153  0.23353  0.35983  1.0000
  C   C86       1.0  0.78641  0.05068  0.36088  1.0000
  C   C87       1.0  0.75120  0.03195  0.34956  1.0000
  C   C88       1.0  0.73306  0.49615  0.34914  1.0000
  H   H42       1.0  0.73829  0.04460  0.33995  1.0000
  N   N33       1.0  0.69796  0.47893  0.33311  1.0000
  O   O35       1.0  0.68240  0.48546  0.39315  1.0000
  O   O36       1.0  0.69094  0.48560  0.25542  1.0000
  N   N34       1.0  0.80132  0.08497  0.35974  1.0000
  C   C89       1.0  0.98416  0.24270  0.36100  1.0000
  C   C90       1.0  0.00289  0.22619  0.35017  1.0000
  H   H43       1.0  0.99023  0.20060  0.34099  1.0000
  N   N35       1.0  0.94986  0.22331  0.35993  1.0000
  C   C91       1.0  0.71368  0.33862  0.36290  1.0000
  C   C92       1.0  0.72147  0.37278  0.36298  1.0000
  C   C93       1.0  0.69623  0.38204  0.36283  1.0000
  C   C94       1.0  0.66206  0.35567  0.36287  1.0000
  C   C95       1.0  0.67918  0.31337  0.36296  1.0000
  H   H44       1.0  0.67310  0.28861  0.36250  1.0000
  H   H45       1.0  0.74623  0.39147  0.36252  1.0000
  C   C96       1.0  0.70391  0.41614  0.36154  1.0000
  C   C97       1.0  0.74010  0.33094  0.36168  1.0000
  H   H46       1.0  0.76414  0.35075  0.36040  1.0000
  H   H47       1.0  0.68410  0.42037  0.36013  1.0000
  C   C98       1.0  0.82962  0.19129  0.36360  1.0000
  C   C99       1.0  0.81981  0.15658  0.36356  1.0000
  C   C100      1.0  0.84354  0.14530  0.36369  1.0000
  C   C101      1.0  0.87826  0.17020  0.36372  1.0000
  C   C102      1.0  0.88954  0.20522  0.36370  1.0000
  C   C103      1.0  0.86464  0.21503  0.36361  1.0000
  H   H48       1.0  0.89582  0.16261  0.36411  1.0000
  H   H49       1.0  0.87223  0.24018  0.36394  1.0000
  H   H50       1.0  0.79466  0.13902  0.36388  1.0000
  C   C104      1.0  0.83376  0.11059  0.36456  1.0000
  C   C105      1.0  0.92425  0.23014  0.36453  1.0000
  C   C106      1.0  0.80470  0.20108  0.36440  1.0000
  H   H51       1.0  0.77993  0.18259  0.36701  1.0000
  H   H52       1.0  0.93053  0.25491  0.36714  1.0000
  H   H53       1.0  0.85225  0.10431  0.36738  1.0000
  C   C107      1.0  0.75539  0.28450  0.36215  1.0000
  C   C108      1.0  0.73849  0.24889  0.37300  1.0000
  C   C109      1.0  0.75681  0.23140  0.37190  1.0000
  H   H54       1.0  0.74400  0.20584  0.38045  1.0000
  N   N36       1.0  0.70311  0.23121  0.38630  1.0000
  O   O37       1.0  0.69529  0.21650  0.46256  1.0000
  O   O38       1.0  0.68819  0.20980  0.32426  1.0000
  N   N37       1.0  0.73579  0.29933  0.36431  1.0000
  C   C110      1.0  0.75036  0.47787  0.36211  1.0000
  C   C111      1.0  0.78594  0.49658  0.37350  1.0000
  C   C112      1.0  0.80343  0.03239  0.37237  1.0000
  H   H55       1.0  0.82897  0.04514  0.38134  1.0000
  N   N38       1.0  0.80359  0.47888  0.38741  1.0000
  O   O39       1.0  0.81812  0.48577  0.46393  1.0000
  O   O40       1.0  0.82514  0.48537  0.32580  1.0000
  N   N39       1.0  0.73552  0.44344  0.36435  1.0000
  C   C113      1.0  0.00246  0.27803  0.37195  1.0000
  H   H56       1.0  0.98971  0.29085  0.38053  1.0000
  C   C114      1.0  0.79215  0.74844  0.36093  1.0000
  C   C115      1.0  0.80865  0.78367  0.35014  1.0000
  C   C116      1.0  0.79100  0.80182  0.34975  1.0000
  H   H57       1.0  0.83424  0.79660  0.34097  1.0000
  N   N40       1.0  0.80893  0.83696  0.33443  1.0000
  O   O41       1.0  0.82282  0.84418  0.25701  1.0000
  O   O42       1.0  0.83086  0.85235  0.39496  1.0000
  N   N41       1.0  0.81154  0.73353  0.35984  1.0000
  C   C117      1.0  0.78641  0.55068  0.36088  1.0000
  C   C118      1.0  0.75120  0.53194  0.34956  1.0000
  C   C119      1.0  0.73306  0.99615  0.34914  1.0000
  H   H58       1.0  0.73829  0.54460  0.33995  1.0000
  N   N42       1.0  0.69796  0.97893  0.33311  1.0000
  O   O43       1.0  0.68241  0.98547  0.39315  1.0000
  O   O44       1.0  0.69095  0.98560  0.25542  1.0000
  N   N43       1.0  0.80132  0.58498  0.35974  1.0000
  C   C120      1.0  0.98416  0.74270  0.36100  1.0000
  C   C121      1.0  0.00289  0.72619  0.35017  1.0000
  H   H59       1.0  0.99023  0.70060  0.34099  1.0000
  N   N44       1.0  0.94987  0.72331  0.35993  1.0000
  C   C122      1.0  0.71368  0.83862  0.36290  1.0000
  C   C123      1.0  0.72148  0.87278  0.36298  1.0000
  C   C124      1.0  0.69623  0.88204  0.36283  1.0000
  C   C125      1.0  0.66207  0.85567  0.36287  1.0000
  C   C126      1.0  0.67918  0.81337  0.36296  1.0000
  H   H60       1.0  0.67310  0.78861  0.36250  1.0000
  H   H61       1.0  0.74623  0.89146  0.36253  1.0000
  C   C127      1.0  0.70391  0.91614  0.36154  1.0000
  C   C128      1.0  0.74010  0.83094  0.36168  1.0000
  H   H62       1.0  0.76414  0.85075  0.36040  1.0000
  H   H63       1.0  0.68410  0.92037  0.36013  1.0000
  C   C129      1.0  0.82963  0.69130  0.36360  1.0000
  C   C130      1.0  0.81982  0.65658  0.36356  1.0000
  C   C131      1.0  0.84355  0.64530  0.36369  1.0000
  C   C132      1.0  0.87826  0.67020  0.36372  1.0000
  C   C133      1.0  0.88954  0.70522  0.36370  1.0000
  C   C134      1.0  0.86464  0.71503  0.36361  1.0000
  H   H64       1.0  0.89582  0.66261  0.36411  1.0000
  H   H65       1.0  0.87223  0.74018  0.36394  1.0000
  H   H66       1.0  0.79466  0.63902  0.36388  1.0000
  C   C135      1.0  0.83376  0.61059  0.36456  1.0000
  C   C136      1.0  0.92425  0.73014  0.36453  1.0000
  C   C137      1.0  0.80470  0.70108  0.36440  1.0000
  H   H67       1.0  0.77993  0.68259  0.36701  1.0000
  H   H68       1.0  0.93053  0.75491  0.36714  1.0000
  H   H69       1.0  0.85225  0.60431  0.36738  1.0000
  C   C138      1.0  0.75540  0.78450  0.36215  1.0000
  C   C139      1.0  0.73849  0.74889  0.37300  1.0000
  C   C140      1.0  0.75681  0.73140  0.37190  1.0000
  H   H70       1.0  0.74400  0.70584  0.38045  1.0000
  N   N45       1.0  0.70311  0.73121  0.38630  1.0000
  O   O45       1.0  0.69529  0.71650  0.46255  1.0000
  O   O46       1.0  0.68819  0.70980  0.32426  1.0000
  N   N46       1.0  0.73579  0.79932  0.36431  1.0000
  C   C141      1.0  0.75036  0.97787  0.36211  1.0000
  C   C142      1.0  0.78594  0.99658  0.37350  1.0000
  C   C143      1.0  0.80343  0.53239  0.37237  1.0000
  H   H71       1.0  0.82897  0.54514  0.38134  1.0000
  N   N47       1.0  0.80359  0.97888  0.38741  1.0000
  O   O47       1.0  0.81813  0.98577  0.46393  1.0000
  O   O48       1.0  0.82515  0.98536  0.32580  1.0000
  N   N48       1.0  0.73553  0.94344  0.36435  1.0000
  C   C144      1.0  0.00246  0.77803  0.37195  1.0000
  H   H72       1.0  0.98971  0.79084  0.38053  1.0000
