data_image0
_chemical_formula_structural       C2NCHC2NCHCNHCNHCNHCNHC2NCHC2NCHC2NCHC2NCHCNHCNHCNHCNHC2NCHC2NCHC2NCHC2NCHCNCNCNCNCNCNCNCNCNCNCNCNCNCNCNCNCNCNCNCNCNCNCNCNCNCNCNCNCNCNCNCNCNCNCNCNCNHCNHC2NCHC2NCHC2NCHC2NCHCNHCNHCNHCNHC2NCHC2NCHC2NCHC2NCHCNHCNHCNHCNH
_chemical_formula_sum              "C108 N72 H36"
_cell_length_a       33.7604
_cell_length_b       33.5996
_cell_length_c       14.8968
_cell_angle_alpha    90
_cell_angle_beta     90
_cell_angle_gamma    90.2812

_space_group_name_H-M_alt    "P 1"
_space_group_IT_number       1

loop_
  _space_group_symop_operation_xyz
  'x, y, z'

loop_
  _atom_site_type_symbol
  _atom_site_label
  _atom_site_symmetry_multiplicity
  _atom_site_fract_x
  _atom_site_fract_y
  _atom_site_fract_z
  _atom_site_occupancy
  C   C1        1.0  0.03126  0.46862  0.36067  1.0000
  C   C2        1.0  0.99029  0.45956  0.35922  1.0000
  N   N1        1.0  0.96357  0.48966  0.35915  1.0000
  C   C3        1.0  0.97364  0.52894  0.36012  1.0000
  H   H1        1.0  0.98014  0.43089  0.35864  1.0000
  C   C4        1.0  0.53134  0.03147  0.35758  1.0000
  C   C5        1.0  0.53974  0.99029  0.35639  1.0000
  N   N2        1.0  0.50931  0.96370  0.35704  1.0000
  C   C6        1.0  0.47038  0.97410  0.35845  1.0000
  H   H2        1.0  0.56812  0.97993  0.35557  1.0000
  C   C7        1.0  0.02089  0.27881  0.35779  1.0000
  N   N3        1.0  0.03223  0.31767  0.36003  1.0000
  H   H3        1.0  0.99143  0.27209  0.35336  1.0000
  C   C8        1.0  0.90974  0.73469  0.36047  1.0000
  N   N4        1.0  0.90427  0.69471  0.36259  1.0000
  H   H4        1.0  0.88544  0.75265  0.35968  1.0000
  C   C9        1.0  0.71979  0.02103  0.35049  1.0000
  N   N5        1.0  0.68132  0.03270  0.35371  1.0000
  H   H5        1.0  0.72598  0.99138  0.34623  1.0000
  C   C10       1.0  0.26491  0.90947  0.36529  1.0000
  N   N6        1.0  0.30467  0.90387  0.36628  1.0000
  H   H6        1.0  0.24673  0.88509  0.36615  1.0000
  C   C11       1.0  0.43385  0.83448  0.36222  1.0000
  C   C12       1.0  0.47332  0.82070  0.35848  1.0000
  N   N7        1.0  0.48018  0.78088  0.35594  1.0000
  C   C13       1.0  0.45107  0.75267  0.35812  1.0000
  H   H7        1.0  0.49683  0.83990  0.35603  1.0000
  C   C14       1.0  0.56797  0.17120  0.36124  1.0000
  C   C15       1.0  0.52862  0.18531  0.35869  1.0000
  N   N8        1.0  0.52215  0.22519  0.35604  1.0000
  C   C16       1.0  0.55153  0.25314  0.35715  1.0000
  H   H8        1.0  0.50494  0.16631  0.35695  1.0000
  C   C17       1.0  0.83424  0.56651  0.36096  1.0000
  C   C18       1.0  0.81866  0.52744  0.35678  1.0000
  N   N9        1.0  0.77869  0.52212  0.35365  1.0000
  C   C19       1.0  0.75199  0.55243  0.35561  1.0000
  H   H9        1.0  0.83670  0.50315  0.35439  1.0000
  C   C20       1.0  0.17066  0.43194  0.36423  1.0000
  C   C21       1.0  0.20076  0.40277  0.36360  1.0000
  N   N10       1.0  0.23923  0.41433  0.36058  1.0000
  C   C22       1.0  0.25141  0.45295  0.35948  1.0000
  H   H10       1.0  0.19449  0.37301  0.36370  1.0000
  C   C23       1.0  0.10584  0.04618  0.26268  1.0000
  N   N11       1.0  0.08440  0.07977  0.26888  1.0000
  H   H11       1.0  0.09495  0.02349  0.22408  1.0000
  C   C24       1.0  0.89542  0.95311  0.25447  1.0000
  N   N12       1.0  0.91666  0.91948  0.26234  1.0000
  H   H12       1.0  0.90707  0.97588  0.21726  1.0000
  C   C25       1.0  0.95361  0.10353  0.25710  1.0000
  N   N13       1.0  0.91946  0.08276  0.26171  1.0000
  H   H13       1.0  0.97638  0.09195  0.22037  1.0000
  C   C26       1.0  0.04685  0.89564  0.26200  1.0000
  N   N14       1.0  0.08079  0.91658  0.26958  1.0000
  H   H14       1.0  0.02460  0.90731  0.22380  1.0000
  C   C27       1.0  0.41190  0.61349  0.31790  1.0000
  C   C28       1.0  0.42230  0.57849  0.27109  1.0000
  N   N15       1.0  0.39847  0.54637  0.27675  1.0000
  C   C29       1.0  0.36336  0.54537  0.32122  1.0000
  H   H15       1.0  0.44853  0.57562  0.23752  1.0000
  C   C30       1.0  0.59151  0.39202  0.31377  1.0000
  C   C31       1.0  0.58122  0.42690  0.26634  1.0000
  N   N16       1.0  0.60511  0.45902  0.27162  1.0000
  C   C32       1.0  0.64021  0.46012  0.31615  1.0000
  H   H16       1.0  0.55500  0.42971  0.23278  1.0000
  C   C33       1.0  0.61543  0.59736  0.31195  1.0000
  C   C34       1.0  0.58218  0.58894  0.25739  1.0000
  N   N17       1.0  0.54985  0.61210  0.26413  1.0000
  C   C35       1.0  0.54740  0.64516  0.31627  1.0000
  H   H17       1.0  0.58040  0.56397  0.21841  1.0000
  C   C36       1.0  0.38748  0.40816  0.31365  1.0000
  C   C37       1.0  0.42035  0.41667  0.25797  1.0000
  N   N18       1.0  0.45285  0.39371  0.26393  1.0000
  C   C38       1.0  0.45569  0.36073  0.31620  1.0000
  H   H18       1.0  0.42179  0.44165  0.21892  1.0000
  C   C39       1.0  0.12978  0.42189  0.36445  1.0000
  N   N19       1.0  0.10049  0.44964  0.36283  1.0000
  C   C40       1.0  0.06134  0.43921  0.36197  1.0000
  N   N20       1.0  0.05202  0.39968  0.36268  1.0000
  C   C41       1.0  0.08024  0.37097  0.36444  1.0000
  N   N21       1.0  0.11861  0.38304  0.36510  1.0000
  C   C42       1.0  0.87523  0.57598  0.36175  1.0000
  N   N22       1.0  0.90443  0.54811  0.36070  1.0000
  C   C43       1.0  0.94360  0.55838  0.36074  1.0000
  N   N23       1.0  0.95302  0.59785  0.36165  1.0000
  C   C44       1.0  0.92492  0.62669  0.36269  1.0000
  N   N24       1.0  0.88642  0.61486  0.36260  1.0000
  C   C45       1.0  0.57824  0.13037  0.36092  1.0000
  N   N25       1.0  0.55070  0.10067  0.35968  1.0000
  C   C46       1.0  0.56098  0.06152  0.35831  1.0000
  N   N26       1.0  0.60030  0.05252  0.35803  1.0000
  C   C47       1.0  0.62892  0.08117  0.35926  1.0000
  N   N27       1.0  0.61701  0.11974  0.36055  1.0000
  C   C48       1.0  0.42331  0.87526  0.36246  1.0000
  N   N28       1.0  0.45088  0.90493  0.36046  1.0000
  C   C49       1.0  0.44071  0.94409  0.35996  1.0000
  N   N29       1.0  0.40143  0.95315  0.36140  1.0000
  C   C50       1.0  0.37273  0.92459  0.36342  1.0000
  N   N30       1.0  0.38451  0.88594  0.36380  1.0000
  C   C51       1.0  0.99610  0.15510  0.32220  1.0000
  N   N31       1.0  0.00387  0.19408  0.33927  1.0000
  C   C52       1.0  0.04184  0.20762  0.35026  1.0000
  N   N32       1.0  0.07235  0.18099  0.34508  1.0000
  C   C53       1.0  0.06563  0.14178  0.32847  1.0000
  N   N33       1.0  0.02749  0.13029  0.31724  1.0000
  C   C54       1.0  0.00356  0.84359  0.32274  1.0000
  N   N34       1.0  0.99525  0.80466  0.33977  1.0000
  C   C55       1.0  0.95699  0.79141  0.34783  1.0000
  N   N35       1.0  0.92681  0.81824  0.33973  1.0000
  C   C56       1.0  0.93405  0.85731  0.32305  1.0000
  N   N36       1.0  0.97239  0.86852  0.31492  1.0000
  C   C57       1.0  0.84289  0.99533  0.31494  1.0000
  N   N37       1.0  0.80412  0.00325  0.33177  1.0000
  C   C58       1.0  0.79099  0.04154  0.34136  1.0000
  N   N38       1.0  0.81781  0.07215  0.33528  1.0000
  C   C59       1.0  0.85675  0.06526  0.31884  1.0000
  N   N39       1.0  0.86774  0.02690  0.30923  1.0000
  C   C60       1.0  0.15718  0.00376  0.32743  1.0000
  N   N40       1.0  0.19595  0.99546  0.34360  1.0000
  C   C61       1.0  0.20881  0.95703  0.35271  1.0000
  N   N41       1.0  0.18171  0.92669  0.34634  1.0000
  C   C62       1.0  0.14279  0.93391  0.33056  1.0000
  N   N42       1.0  0.13207  0.97238  0.32147  1.0000
  C   C63       1.0  0.50907  0.66142  0.32709  1.0000
  N   N43       1.0  0.49951  0.70013  0.34250  1.0000
  C   C64       1.0  0.46081  0.71178  0.35006  1.0000
  N   N44       1.0  0.43156  0.68359  0.34268  1.0000
  C   C65       1.0  0.44001  0.64474  0.32700  1.0000
  N   N45       1.0  0.47873  0.63521  0.31971  1.0000
  C   C66       1.0  0.49410  0.34459  0.32594  1.0000
  N   N46       1.0  0.50352  0.30592  0.34189  1.0000
  C   C67       1.0  0.54217  0.29409  0.34870  1.0000
  N   N47       1.0  0.57154  0.32209  0.34009  1.0000
  C   C68       1.0  0.56323  0.36095  0.32383  1.0000
  N   N48       1.0  0.52451  0.37067  0.31724  1.0000
  C   C69       1.0  0.65823  0.49810  0.32491  1.0000
  N   N49       1.0  0.69719  0.50615  0.34040  1.0000
  C   C70       1.0  0.71080  0.54451  0.34711  1.0000
  N   N50       1.0  0.68428  0.57505  0.33874  1.0000
  C   C71       1.0  0.64524  0.56814  0.32266  1.0000
  N   N51       1.0  0.63376  0.52965  0.31638  1.0000
  C   C72       1.0  0.34525  0.50747  0.32976  1.0000
  N   N52       1.0  0.30629  0.49964  0.34528  1.0000
  C   C73       1.0  0.29245  0.46135  0.35114  1.0000
  N   N53       1.0  0.31871  0.43063  0.34176  1.0000
  C   C74       1.0  0.35778  0.43739  0.32558  1.0000
  N   N54       1.0  0.36950  0.47582  0.32024  1.0000
  C   C75       1.0  0.01462  0.53800  0.36113  1.0000
  N   N55       1.0  0.04133  0.50790  0.36150  1.0000
  H   H19       1.0  0.02478  0.56667  0.36203  1.0000
  C   C76       1.0  0.46198  0.01528  0.35912  1.0000
  N   N56       1.0  0.49240  0.04187  0.35884  1.0000
  H   H20       1.0  0.43360  0.02565  0.36034  1.0000
  C   C77       1.0  0.07069  0.32987  0.36430  1.0000
  C   C78       1.0  0.09986  0.29981  0.36672  1.0000
  N   N57       1.0  0.08852  0.26110  0.36336  1.0000
  C   C79       1.0  0.05013  0.24880  0.35914  1.0000
  H   H21       1.0  0.12942  0.30631  0.36932  1.0000
  C   C80       1.0  0.93427  0.66781  0.36244  1.0000
  C   C81       1.0  0.97328  0.68323  0.36015  1.0000
  N   N58       1.0  0.97878  0.72331  0.35680  1.0000
  C   C82       1.0  0.94871  0.75021  0.35700  1.0000
  H   H22       1.0  0.99740  0.66503  0.35910  1.0000
  C   C83       1.0  0.66973  0.07143  0.35797  1.0000
  C   C84       1.0  0.70012  0.10054  0.35922  1.0000
  N   N59       1.0  0.73846  0.08886  0.35494  1.0000
  C   C85       1.0  0.75013  0.05020  0.35074  1.0000
  H   H23       1.0  0.69409  0.13027  0.36172  1.0000
  C   C86       1.0  0.33181  0.93393  0.36398  1.0000
  C   C87       1.0  0.31683  0.97312  0.36062  1.0000
  N   N60       1.0  0.27699  0.97874  0.35841  1.0000
  C   C88       1.0  0.24983  0.94862  0.36076  1.0000
  H   H24       1.0  0.33519  0.99734  0.35798  1.0000
  C   C89       1.0  0.41164  0.76653  0.36283  1.0000
  N   N61       1.0  0.40480  0.80627  0.36432  1.0000
  H   H25       1.0  0.38798  0.74749  0.36368  1.0000
  C   C90       1.0  0.59084  0.23894  0.36086  1.0000
  N   N62       1.0  0.59729  0.19914  0.36232  1.0000
  H   H26       1.0  0.61468  0.25776  0.36080  1.0000
  C   C91       1.0  0.76767  0.59144  0.36084  1.0000
  N   N63       1.0  0.80749  0.59669  0.36291  1.0000
  H   H27       1.0  0.74992  0.61596  0.36168  1.0000
  C   C92       1.0  0.22141  0.48222  0.36112  1.0000
  N   N64       1.0  0.18272  0.47068  0.36300  1.0000
  H   H28       1.0  0.22804  0.51189  0.35915  1.0000
  C   C93       1.0  0.09459  0.11168  0.31996  1.0000
  C   C94       1.0  0.13075  0.10923  0.36755  1.0000
  N   N65       1.0  0.15127  0.07421  0.36622  1.0000
  C   C95       1.0  0.14016  0.04199  0.31619  1.0000
  H   H29       1.0  0.13950  0.13144  0.41002  1.0000
  C   C96       1.0  0.90542  0.88750  0.31202  1.0000
  C   C97       1.0  0.86840  0.88985  0.35607  1.0000
  N   N66       1.0  0.84801  0.92490  0.35322  1.0000
  C   C98       1.0  0.86015  0.95721  0.30474  1.0000
  H   H30       1.0  0.85881  0.86754  0.39736  1.0000
  C   C99       1.0  0.88735  0.09392  0.31034  1.0000
  C   C100      1.0  0.89024  0.13041  0.35721  1.0000
  N   N67       1.0  0.92566  0.15034  0.35735  1.0000
  C   C101      1.0  0.95798  0.13824  0.30972  1.0000
  H   H31       1.0  0.86793  0.13981  0.39819  1.0000
  C   C102      1.0  0.11223  0.90532  0.32026  1.0000
  C   C103      1.0  0.10889  0.86854  0.36583  1.0000
  N   N68       1.0  0.07358  0.84844  0.36301  1.0000
  C   C104      1.0  0.04184  0.86065  0.31351  1.0000
  H   H32       1.0  0.13074  0.85896  0.40789  1.0000
  C   C105      1.0  0.35120  0.58118  0.36252  1.0000
  N   N69       1.0  0.37622  0.61332  0.36111  1.0000
  H   H33       1.0  0.32571  0.58237  0.39930  1.0000
  C   C106      1.0  0.65226  0.42441  0.35804  1.0000
  N   N70       1.0  0.62716  0.39232  0.35714  1.0000
  H   H34       1.0  0.67767  0.42330  0.39511  1.0000
  C   C107      1.0  0.58173  0.65580  0.36525  1.0000
  N   N71       1.0  0.61372  0.63096  0.36335  1.0000
  H   H35       1.0  0.58152  0.67928  0.40875  1.0000
  C   C108      1.0  0.42168  0.34993  0.36613  1.0000
  N   N72       1.0  0.38958  0.37462  0.36513  1.0000
  H   H36       1.0  0.42224  0.32648  0.40969  1.0000
