data_image0
_chemical_formula_structural       C2NCHC2NCHC2NCHC2NCHCNHCNHCNHCNHCNHCNHCNHCNHC2NCHC2NCHC2NCHC2NCHC2NCHC2NCHC2NCHC2NCHCNHCNHCNHCNHCNHCNHCNHCNHCNHCNHCNCNCNCNCNCNCNCNCNCNCNCNCNCNCNCNCNCNCNCNCNCNCNCNCNCNCNCNCNCNCNCNCNCNCNCNCNCNCNCNCNCNCNCNCNCNCNCNCNCNCNCNCNCNCNCNCNCNCNCNCNHCNHCNHCNHC2NCHC2NCHC2NCHC2NCHC2NCHC2NCHC2NCHC2NCHCNHCNHCNHCNHCNHCNHCNHCNHC2NCHC2NCHC2NCHC2NCHC2NCHC2NCHC2NCHC2NCHC2NCHC2NCH
_chemical_formula_sum              "C180 N120 H60"
_cell_length_a       42.9145
_cell_length_b       42.9145
_cell_length_c       14.7062
_cell_angle_alpha    90
_cell_angle_beta     90
_cell_angle_gamma    90

_space_group_name_H-M_alt    "P 1"
_space_group_IT_number       1

loop_
  _space_group_symop_operation_xyz
  'x, y, z'

loop_
  _atom_site_type_symbol
  _atom_site_label
  _atom_site_symmetry_multiplicity
  _atom_site_fract_x
  _atom_site_fract_y
  _atom_site_fract_z
  _atom_site_occupancy
  C   C1        1.0  0.31830  0.04379  0.35151  1.0000
  C   C2        1.0  0.33470  0.04895  0.26983  1.0000
  N   N1        1.0  0.36513  0.05734  0.27445  1.0000
  C   C3        1.0  0.38039  0.06092  0.35469  1.0000
  H   H1        1.0  0.32406  0.04714  0.20788  1.0000
  C   C4        1.0  0.70168  0.97623  0.35201  1.0000
  C   C5        1.0  0.68513  0.97157  0.27031  1.0000
  N   N2        1.0  0.65470  0.96316  0.27497  1.0000
  C   C6        1.0  0.63959  0.95908  0.35524  1.0000
  H   H2        1.0  0.69566  0.97375  0.20831  1.0000
  C   C7        1.0  0.97621  0.31832  0.35152  1.0000
  C   C8        1.0  0.97101  0.33471  0.26985  1.0000
  N   N3        1.0  0.96261  0.36514  0.27448  1.0000
  C   C9        1.0  0.95904  0.38041  0.35471  1.0000
  H   H3        1.0  0.97281  0.32408  0.20791  1.0000
  C   C10       1.0  0.04379  0.70167  0.35203  1.0000
  C   C11       1.0  0.04843  0.68513  0.27033  1.0000
  N   N4        1.0  0.05683  0.65470  0.27498  1.0000
  C   C12       1.0  0.06092  0.63958  0.35524  1.0000
  H   H4        1.0  0.04624  0.69566  0.20833  1.0000
  C   C13       1.0  0.15596  0.55578  0.27024  1.0000
  N   N5        1.0  0.18650  0.54778  0.27488  1.0000
  H   H5        1.0  0.14555  0.55849  0.20825  1.0000
  C   C14       1.0  0.86387  0.46370  0.26970  1.0000
  N   N6        1.0  0.83334  0.47172  0.27439  1.0000
  H   H6        1.0  0.87418  0.46062  0.20770  1.0000
  C   C15       1.0  0.55577  0.86404  0.27023  1.0000
  N   N7        1.0  0.54776  0.83350  0.27488  1.0000
  H   H7        1.0  0.55847  0.87445  0.20824  1.0000
  C   C16       1.0  0.46366  0.15610  0.26969  1.0000
  N   N8        1.0  0.47168  0.18663  0.27437  1.0000
  H   H8        1.0  0.46057  0.14579  0.20769  1.0000
  C   C17       1.0  0.19994  0.13055  0.27065  1.0000
  N   N9        1.0  0.21188  0.10124  0.27524  1.0000
  H   H9        1.0  0.19674  0.14082  0.20866  1.0000
  C   C18       1.0  0.82005  0.88944  0.27065  1.0000
  N   N10       1.0  0.80809  0.91875  0.27524  1.0000
  H   H10       1.0  0.82328  0.87919  0.20865  1.0000
  C   C19       1.0  0.88943  0.19997  0.27062  1.0000
  N   N11       1.0  0.91873  0.21192  0.27517  1.0000
  H   H11       1.0  0.87916  0.19675  0.20865  1.0000
  C   C20       1.0  0.13051  0.82012  0.27063  1.0000
  N   N12       1.0  0.10120  0.80817  0.27522  1.0000
  H   H12       1.0  0.14075  0.82338  0.20863  1.0000
  C   C21       1.0  0.30296  0.58591  0.35177  1.0000
  C   C22       1.0  0.30865  0.60238  0.27030  1.0000
  N   N13       1.0  0.31972  0.63204  0.27470  1.0000
  C   C23       1.0  0.32595  0.64683  0.35445  1.0000
  H   H13       1.0  0.30315  0.59305  0.20841  1.0000
  C   C24       1.0  0.71706  0.43400  0.35168  1.0000
  C   C25       1.0  0.71137  0.41755  0.27020  1.0000
  N   N14       1.0  0.70030  0.38790  0.27467  1.0000
  C   C26       1.0  0.69406  0.37314  0.35446  1.0000
  H   H14       1.0  0.71688  0.42688  0.20831  1.0000
  C   C27       1.0  0.58596  0.71707  0.35179  1.0000
  C   C28       1.0  0.60238  0.71134  0.27028  1.0000
  N   N15       1.0  0.63204  0.70027  0.27470  1.0000
  C   C29       1.0  0.64682  0.69405  0.35446  1.0000
  H   H15       1.0  0.59304  0.71683  0.20841  1.0000
  C   C30       1.0  0.43404  0.30294  0.35175  1.0000
  C   C31       1.0  0.41755  0.30856  0.27027  1.0000
  N   N16       1.0  0.38790  0.31963  0.27471  1.0000
  C   C32       1.0  0.37315  0.32593  0.35447  1.0000
  H   H16       1.0  0.42686  0.30301  0.20839  1.0000
  C   C33       1.0  0.23275  0.97316  0.35199  1.0000
  C   C34       1.0  0.23034  0.95594  0.27050  1.0000
  N   N17       1.0  0.22450  0.92481  0.27489  1.0000
  C   C35       1.0  0.22102  0.90915  0.35465  1.0000
  H   H17       1.0  0.23359  0.96623  0.20858  1.0000
  C   C36       1.0  0.78729  0.04678  0.35184  1.0000
  C   C37       1.0  0.78968  0.06403  0.27040  1.0000
  N   N18       1.0  0.79551  0.09515  0.27483  1.0000
  C   C38       1.0  0.79899  0.11081  0.35460  1.0000
  H   H18       1.0  0.78643  0.05374  0.20846  1.0000
  C   C39       1.0  0.04680  0.23275  0.35197  1.0000
  C   C40       1.0  0.06402  0.23031  0.27048  1.0000
  N   N19       1.0  0.09514  0.22447  0.27488  1.0000
  C   C41       1.0  0.11080  0.22101  0.35466  1.0000
  H   H19       1.0  0.05372  0.23355  0.20855  1.0000
  C   C42       1.0  0.97317  0.78722  0.35187  1.0000
  C   C43       1.0  0.95595  0.78970  0.27039  1.0000
  N   N20       1.0  0.92483  0.79554  0.27481  1.0000
  C   C44       1.0  0.90916  0.79897  0.35460  1.0000
  H   H20       1.0  0.96625  0.78649  0.20845  1.0000
  C   C45       1.0  0.29639  0.42631  0.27050  1.0000
  N   N21       1.0  0.29013  0.45735  0.27494  1.0000
  H   H21       1.0  0.29847  0.41577  0.20850  1.0000
  C   C46       1.0  0.72357  0.59364  0.27057  1.0000
  N   N22       1.0  0.72981  0.56260  0.27507  1.0000
  H   H22       1.0  0.72150  0.60417  0.20856  1.0000
  C   C47       1.0  0.42633  0.72359  0.27050  1.0000
  N   N23       1.0  0.45737  0.72985  0.27495  1.0000
  H   H23       1.0  0.41579  0.72152  0.20850  1.0000
  C   C48       1.0  0.59366  0.29634  0.27057  1.0000
  N   N24       1.0  0.56262  0.29008  0.27503  1.0000
  H   H24       1.0  0.60420  0.29838  0.20856  1.0000
  C   C49       1.0  0.25151  0.28998  0.27057  1.0000
  N   N25       1.0  0.22920  0.26746  0.27496  1.0000
  H   H25       1.0  0.25937  0.29730  0.20858  1.0000
  C   C50       1.0  0.76845  0.72999  0.27060  1.0000
  N   N26       1.0  0.79076  0.75250  0.27497  1.0000
  H   H26       1.0  0.76058  0.72268  0.20860  1.0000
  C   C51       1.0  0.72998  0.25150  0.27058  1.0000
  N   N27       1.0  0.75250  0.22920  0.27496  1.0000
  H   H27       1.0  0.72267  0.25937  0.20858  1.0000
  C   C52       1.0  0.28998  0.76844  0.27059  1.0000
  N   N28       1.0  0.26745  0.79074  0.27497  1.0000
  H   H28       1.0  0.29728  0.76057  0.20860  1.0000
  C   C53       1.0  0.52059  0.99937  0.26997  1.0000
  N   N29       1.0  0.49830  0.02168  0.27463  1.0000
  H   H29       1.0  0.52821  0.99176  0.20798  1.0000
  C   C54       1.0  0.02061  0.52060  0.26997  1.0000
  N   N30       1.0  0.99829  0.49832  0.27464  1.0000
  H   H30       1.0  0.02821  0.52822  0.20799  1.0000
  C   C55       1.0  0.23537  0.05880  0.35409  1.0000
  N   N31       1.0  0.22367  0.02922  0.35377  1.0000
  C   C56       1.0  0.24333  0.00418  0.35269  1.0000
  N   N32       1.0  0.27461  0.00900  0.35195  1.0000
  C   C57       1.0  0.28631  0.03832  0.35215  1.0000
  N   N33       1.0  0.26667  0.06297  0.35320  1.0000
  C   C58       1.0  0.78459  0.96115  0.35422  1.0000
  N   N34       1.0  0.79632  0.99072  0.35369  1.0000
  C   C59       1.0  0.77669  0.01577  0.35258  1.0000
  N   N35       1.0  0.74540  0.01098  0.35199  1.0000
  C   C60       1.0  0.73367  0.98167  0.35244  1.0000
  N   N36       1.0  0.75329  0.95700  0.35355  1.0000
  C   C61       1.0  0.96116  0.23540  0.35407  1.0000
  N   N37       1.0  0.99073  0.22368  0.35375  1.0000
  C   C62       1.0  0.01578  0.24333  0.35269  1.0000
  N   N38       1.0  0.01097  0.27461  0.35196  1.0000
  C   C63       1.0  0.98166  0.28633  0.35217  1.0000
  N   N39       1.0  0.95700  0.26670  0.35320  1.0000
  C   C64       1.0  0.05881  0.78460  0.35420  1.0000
  N   N40       1.0  0.02923  0.79631  0.35365  1.0000
  C   C65       1.0  0.00419  0.77665  0.35259  1.0000
  N   N41       1.0  0.00900  0.74537  0.35203  1.0000
  C   C66       1.0  0.03832  0.73366  0.35248  1.0000
  N   N42       1.0  0.06298  0.75330  0.35355  1.0000
  C   C67       1.0  0.28461  0.55880  0.35251  1.0000
  N   N43       1.0  0.29631  0.52922  0.35285  1.0000
  C   C68       1.0  0.27665  0.50418  0.35395  1.0000
  N   N44       1.0  0.24537  0.50901  0.35471  1.0000
  C   C69       1.0  0.23367  0.53832  0.35447  1.0000
  N   N45       1.0  0.25331  0.56298  0.35341  1.0000
  C   C70       1.0  0.73539  0.46115  0.35238  1.0000
  N   N46       1.0  0.72366  0.49071  0.35294  1.0000
  C   C71       1.0  0.74329  0.51577  0.35407  1.0000
  N   N47       1.0  0.77458  0.51098  0.35467  1.0000
  C   C72       1.0  0.78631  0.48167  0.35418  1.0000
  N   N48       1.0  0.76669  0.45700  0.35305  1.0000
  C   C73       1.0  0.55882  0.73540  0.35253  1.0000
  N   N49       1.0  0.52925  0.72368  0.35287  1.0000
  C   C74       1.0  0.50420  0.74332  0.35395  1.0000
  N   N50       1.0  0.50901  0.77461  0.35470  1.0000
  C   C75       1.0  0.53832  0.78632  0.35446  1.0000
  N   N51       1.0  0.56298  0.76670  0.35341  1.0000
  C   C76       1.0  0.46117  0.28459  0.35241  1.0000
  N   N52       1.0  0.49074  0.29630  0.35297  1.0000
  C   C77       1.0  0.51579  0.27665  0.35405  1.0000
  N   N53       1.0  0.51097  0.24537  0.35462  1.0000
  C   C78       1.0  0.48165  0.23366  0.35414  1.0000
  N   N54       1.0  0.45700  0.25329  0.35305  1.0000
  C   C79       1.0  0.18397  0.17799  0.35282  1.0000
  N   N55       1.0  0.15305  0.18473  0.35326  1.0000
  C   C80       1.0  0.14298  0.21475  0.35401  1.0000
  N   N56       1.0  0.16432  0.23825  0.35435  1.0000
  C   C81       1.0  0.19543  0.23198  0.35397  1.0000
  N   N57       1.0  0.20498  0.20174  0.35326  1.0000
  C   C82       1.0  0.83598  0.84198  0.35277  1.0000
  N   N58       1.0  0.86691  0.83525  0.35319  1.0000
  C   C83       1.0  0.87699  0.80522  0.35395  1.0000
  N   N59       1.0  0.85565  0.78172  0.35433  1.0000
  C   C84       1.0  0.82454  0.78798  0.35398  1.0000
  N   N60       1.0  0.81498  0.81822  0.35326  1.0000
  C   C85       1.0  0.84199  0.18399  0.35282  1.0000
  N   N61       1.0  0.83526  0.15306  0.35324  1.0000
  C   C86       1.0  0.80524  0.14298  0.35398  1.0000
  N   N62       1.0  0.78173  0.16432  0.35432  1.0000
  C   C87       1.0  0.78799  0.19544  0.35397  1.0000
  N   N63       1.0  0.81823  0.20499  0.35326  1.0000
  C   C88       1.0  0.17799  0.83598  0.35278  1.0000
  N   N64       1.0  0.18473  0.86691  0.35321  1.0000
  C   C89       1.0  0.21476  0.87698  0.35398  1.0000
  N   N65       1.0  0.23826  0.85563  0.35436  1.0000
  C   C90       1.0  0.23199  0.82452  0.35399  1.0000
  N   N66       1.0  0.20174  0.81498  0.35326  1.0000
  C   C91       1.0  0.33600  0.67799  0.35382  1.0000
  N   N67       1.0  0.36693  0.68473  0.35339  1.0000
  C   C92       1.0  0.37700  0.71475  0.35268  1.0000
  N   N68       1.0  0.35566  0.73825  0.35237  1.0000
  C   C93       1.0  0.32455  0.73199  0.35274  1.0000
  N   N69       1.0  0.31500  0.70175  0.35341  1.0000
  C   C94       1.0  0.68399  0.34197  0.35387  1.0000
  N   N70       1.0  0.65306  0.33524  0.35345  1.0000
  C   C95       1.0  0.64299  0.30522  0.35273  1.0000
  N   N71       1.0  0.66432  0.28171  0.35238  1.0000
  C   C96       1.0  0.69544  0.28798  0.35273  1.0000
  N   N72       1.0  0.70499  0.31822  0.35342  1.0000
  C   C97       1.0  0.67799  0.68399  0.35382  1.0000
  N   N73       1.0  0.68472  0.65306  0.35340  1.0000
  C   C98       1.0  0.71474  0.64298  0.35270  1.0000
  N   N74       1.0  0.73825  0.66432  0.35239  1.0000
  C   C99       1.0  0.73199  0.69543  0.35275  1.0000
  N   N75       1.0  0.70175  0.70499  0.35341  1.0000
  C   C100      1.0  0.34198  0.33598  0.35386  1.0000
  N   N76       1.0  0.33524  0.36691  0.35343  1.0000
  C   C101      1.0  0.30522  0.37698  0.35270  1.0000
  N   N77       1.0  0.28172  0.35563  0.35237  1.0000
  C   C102      1.0  0.28799  0.32452  0.35273  1.0000
  N   N78       1.0  0.31823  0.31498  0.35341  1.0000
  C   C103      1.0  0.45035  0.10834  0.35200  1.0000
  N   N79       1.0  0.47268  0.08602  0.35299  1.0000
  C   C104      1.0  0.46443  0.05555  0.35449  1.0000
  N   N80       1.0  0.43396  0.04730  0.35505  1.0000
  C   C105      1.0  0.41163  0.06963  0.35419  1.0000
  N   N81       1.0  0.41979  0.10018  0.35267  1.0000
  C   C106      1.0  0.56964  0.91165  0.35245  1.0000
  N   N82       1.0  0.54731  0.93397  0.35167  1.0000
  C   C107      1.0  0.55556  0.96444  0.35228  1.0000
  N   N83       1.0  0.58602  0.97269  0.35376  1.0000
  C   C108      1.0  0.60835  0.95037  0.35466  1.0000
  N   N84       1.0  0.60019  0.91981  0.35394  1.0000
  C   C109      1.0  0.91163  0.45038  0.35200  1.0000
  N   N85       1.0  0.93395  0.47270  0.35298  1.0000
  C   C110      1.0  0.96442  0.46444  0.35449  1.0000
  N   N86       1.0  0.97267  0.43397  0.35507  1.0000
  C   C111      1.0  0.95034  0.41165  0.35421  1.0000
  N   N87       1.0  0.91979  0.41981  0.35268  1.0000
  C   C112      1.0  0.10835  0.56963  0.35248  1.0000
  N   N88       1.0  0.08602  0.54731  0.35169  1.0000
  C   C113      1.0  0.05555  0.55555  0.35228  1.0000
  N   N89       1.0  0.04730  0.58602  0.35376  1.0000
  C   C114      1.0  0.06963  0.60834  0.35466  1.0000
  N   N90       1.0  0.10019  0.60018  0.35396  1.0000
  C   C115      1.0  0.36403  0.05571  0.43639  1.0000
  N   N91       1.0  0.33349  0.04772  0.43174  1.0000
  H   H31       1.0  0.37445  0.05838  0.49839  1.0000
  C   C116      1.0  0.65609  0.96376  0.43694  1.0000
  N   N92       1.0  0.68662  0.97179  0.43224  1.0000
  H   H32       1.0  0.64578  0.96073  0.49894  1.0000
  C   C117      1.0  0.96427  0.36406  0.43641  1.0000
  N   N93       1.0  0.97227  0.33352  0.43175  1.0000
  H   H33       1.0  0.96161  0.37448  0.49841  1.0000
  C   C118      1.0  0.05625  0.65609  0.43696  1.0000
  N   N94       1.0  0.04823  0.68662  0.43226  1.0000
  H   H34       1.0  0.05929  0.64577  0.49896  1.0000
  C   C119      1.0  0.20168  0.54379  0.35511  1.0000
  C   C120      1.0  0.18527  0.54890  0.43681  1.0000
  N   N95       1.0  0.15484  0.55729  0.43219  1.0000
  C   C121      1.0  0.13959  0.56093  0.35195  1.0000
  H   H35       1.0  0.19590  0.54704  0.49875  1.0000
  C   C122      1.0  0.81830  0.47623  0.35462  1.0000
  C   C123      1.0  0.83486  0.47164  0.43631  1.0000
  N   N96       1.0  0.86529  0.46323  0.43167  1.0000
  C   C124      1.0  0.88039  0.45909  0.35141  1.0000
  H   H36       1.0  0.82434  0.47386  0.49831  1.0000
  C   C125      1.0  0.54377  0.81832  0.35510  1.0000
  C   C126      1.0  0.54891  0.83472  0.43678  1.0000
  N   N97       1.0  0.55732  0.86515  0.43217  1.0000
  C   C127      1.0  0.56094  0.88040  0.35194  1.0000
  H   H37       1.0  0.54707  0.82409  0.49873  1.0000
  C   C128      1.0  0.47619  0.20167  0.35459  1.0000
  C   C129      1.0  0.47162  0.18511  0.43630  1.0000
  N   N98       1.0  0.46321  0.15468  0.43166  1.0000
  C   C130      1.0  0.45906  0.13958  0.35140  1.0000
  H   H38       1.0  0.47385  0.19563  0.49829  1.0000
  C   C131      1.0  0.21702  0.08591  0.35485  1.0000
  C   C132      1.0  0.21135  0.10239  0.43632  1.0000
  N   N99       1.0  0.20028  0.13204  0.43193  1.0000
  C   C133      1.0  0.19403  0.14682  0.35219  1.0000
  H   H39       1.0  0.21686  0.09306  0.49820  1.0000
  C   C134      1.0  0.80291  0.93400  0.35494  1.0000
  C   C135      1.0  0.80858  0.91755  0.43643  1.0000
  N   N100      1.0  0.81965  0.88789  0.43196  1.0000
  C   C136      1.0  0.82592  0.87314  0.35218  1.0000
  H   H40       1.0  0.80306  0.92687  0.49830  1.0000
  C   C137      1.0  0.93402  0.21707  0.35483  1.0000
  C   C138      1.0  0.91759  0.21137  0.43634  1.0000
  N   N101      1.0  0.88793  0.20030  0.43193  1.0000
  C   C139      1.0  0.87315  0.19405  0.35217  1.0000
  H   H41       1.0  0.92692  0.21688  0.49821  1.0000
  C   C140      1.0  0.08593  0.80294  0.35488  1.0000
  C   C141      1.0  0.10243  0.80854  0.43635  1.0000
  N   N102      1.0  0.13209  0.81961  0.43192  1.0000
  C   C142      1.0  0.14682  0.82593  0.35216  1.0000
  H   H42       1.0  0.09312  0.80297  0.49822  1.0000
  C   C143      1.0  0.32001  0.63056  0.43598  1.0000
  N   N103      1.0  0.30807  0.60125  0.43138  1.0000
  H   H43       1.0  0.32320  0.64083  0.49797  1.0000
  C   C144      1.0  0.69995  0.38943  0.43598  1.0000
  N   N104      1.0  0.71190  0.41874  0.43137  1.0000
  H   H44       1.0  0.69673  0.37918  0.49798  1.0000
  C   C145      1.0  0.63056  0.69998  0.43601  1.0000
  N   N105      1.0  0.60125  0.71194  0.43146  1.0000
  H   H45       1.0  0.64083  0.69679  0.49799  1.0000
  C   C146      1.0  0.38946  0.32009  0.43600  1.0000
  N   N106      1.0  0.41877  0.30814  0.43140  1.0000
  H   H46       1.0  0.37922  0.32334  0.49800  1.0000
  C   C147      1.0  0.22364  0.92630  0.43617  1.0000
  N   N107      1.0  0.22990  0.95734  0.43173  1.0000
  H   H47       1.0  0.22159  0.91575  0.49818  1.0000
  C   C148      1.0  0.79636  0.09365  0.43610  1.0000
  N   N108      1.0  0.79012  0.06261  0.43160  1.0000
  H   H48       1.0  0.79840  0.10419  0.49812  1.0000
  C   C149      1.0  0.09365  0.22364  0.43617  1.0000
  N   N109      1.0  0.06261  0.22990  0.43172  1.0000
  H   H49       1.0  0.10420  0.22161  0.49818  1.0000
  C   C150      1.0  0.92631  0.79629  0.43611  1.0000
  N   N110      1.0  0.95735  0.79003  0.43163  1.0000
  H   H50       1.0  0.91576  0.79830  0.49811  1.0000
  C   C151      1.0  0.28723  0.47316  0.35469  1.0000
  C   C152      1.0  0.28959  0.45593  0.43616  1.0000
  N   N111      1.0  0.29543  0.42481  0.43178  1.0000
  C   C153      1.0  0.29896  0.40915  0.35202  1.0000
  H   H51       1.0  0.28630  0.46622  0.49808  1.0000
  C   C154      1.0  0.73269  0.54678  0.35482  1.0000
  C   C155      1.0  0.73034  0.56404  0.43626  1.0000
  N   N112      1.0  0.72451  0.59516  0.43184  1.0000
  C   C156      1.0  0.72099  0.61081  0.35207  1.0000
  H   H52       1.0  0.73363  0.55375  0.49820  1.0000
  C   C157      1.0  0.47318  0.73274  0.35471  1.0000
  C   C158      1.0  0.45596  0.73035  0.43619  1.0000
  N   N113      1.0  0.42483  0.72451  0.43178  1.0000
  C   C159      1.0  0.40917  0.72100  0.35201  1.0000
  H   H53       1.0  0.46625  0.73362  0.49811  1.0000
  C   C160      1.0  0.54681  0.28722  0.35480  1.0000
  C   C161      1.0  0.56403  0.28966  0.43628  1.0000
  N   N114      1.0  0.59515  0.29550  0.43186  1.0000
  C   C162      1.0  0.61081  0.29897  0.35208  1.0000
  H   H54       1.0  0.55373  0.28642  0.49821  1.0000
  C   C163      1.0  0.21764  0.25621  0.35462  1.0000
  C   C164      1.0  0.22995  0.26849  0.43612  1.0000
  N   N115      1.0  0.25248  0.29078  0.43173  1.0000
  C   C165      1.0  0.26376  0.30232  0.35206  1.0000
  H   H55       1.0  0.22264  0.26062  0.49811  1.0000
  C   C166      1.0  0.80233  0.76375  0.35464  1.0000
  C   C167      1.0  0.79003  0.75146  0.43613  1.0000
  N   N116      1.0  0.76750  0.72917  0.43175  1.0000
  C   C168      1.0  0.75622  0.71763  0.35209  1.0000
  H   H56       1.0  0.79735  0.75933  0.49812  1.0000
  C   C169      1.0  0.76376  0.21763  0.35462  1.0000
  C   C170      1.0  0.75148  0.22995  0.43611  1.0000
  N   N117      1.0  0.72918  0.25247  0.43173  1.0000
  C   C171      1.0  0.71764  0.26375  0.35207  1.0000
  H   H57       1.0  0.75936  0.22264  0.49811  1.0000
  C   C172      1.0  0.25621  0.80231  0.35464  1.0000
  C   C173      1.0  0.26851  0.79002  0.43613  1.0000
  N   N118      1.0  0.29082  0.76750  0.43175  1.0000
  C   C174      1.0  0.30234  0.75621  0.35208  1.0000
  H   H58       1.0  0.26065  0.79734  0.49813  1.0000
  C   C175      1.0  0.48729  0.03269  0.35501  1.0000
  C   C176      1.0  0.49937  0.02060  0.43681  1.0000
  N   N119      1.0  0.52169  0.99831  0.43215  1.0000
  C   C177      1.0  0.53269  0.98730  0.35177  1.0000
  H   H59       1.0  0.49176  0.02822  0.49879  1.0000
  C   C178      1.0  0.98729  0.48730  0.35501  1.0000
  C   C179      1.0  0.99939  0.49937  0.43681  1.0000
  N   N120      1.0  0.02168  0.52168  0.43215  1.0000
  C   C180      1.0  0.03269  0.53269  0.35177  1.0000
  H   H60       1.0  0.99177  0.49176  0.49880  1.0000
