data_image0
_chemical_formula_structural       C3NC3NC5NC5NC36H26C4H4CNC3H3ONCNC3H3ONC16H16NC2HN2C2HN
_chemical_formula_sum              "C84 N12 H54 O2"
_cell_length_a       34.2464
_cell_length_b       34.2464
_cell_length_c       14.6434
_cell_angle_alpha    90
_cell_angle_beta     90
_cell_angle_gamma    90.1689

_space_group_name_H-M_alt    "P 1"
_space_group_IT_number       1

loop_
  _space_group_symop_operation_xyz
  'x, y, z'

loop_
  _atom_site_type_symbol
  _atom_site_label
  _atom_site_symmetry_multiplicity
  _atom_site_fract_x
  _atom_site_fract_y
  _atom_site_fract_z
  _atom_site_occupancy
  C   C1        1.0  0.11405  0.08414  0.33581  1.0000
  C   C2        1.0  0.08545  0.11251  0.33513  1.0000
  C   C3        1.0  0.04900  0.09406  0.33498  1.0000
  N   N1        1.0  0.05700  0.05522  0.33558  1.0000
  C   C4        1.0  0.09590  0.04753  0.33595  1.0000
  C   C5        1.0  0.11592  0.01105  0.33625  1.0000
  C   C6        1.0  0.09707  0.97397  0.33680  1.0000
  N   N2        1.0  0.05829  0.96613  0.33793  1.0000
  C   C7        1.0  0.05072  0.92730  0.33683  1.0000
  C   C8        1.0  0.08713  0.90903  0.33539  1.0000
  C   C9        1.0  0.11560  0.93770  0.33525  1.0000
  C   C10       1.0  0.01377  0.90816  0.33678  1.0000
  C   C11       1.0  0.97713  0.92784  0.33681  1.0000
  N   N3        1.0  0.96913  0.96667  0.33540  1.0000
  C   C12       1.0  0.93024  0.97435  0.33546  1.0000
  C   C13       1.0  0.91208  0.93776  0.33743  1.0000
  C   C14       1.0  0.94069  0.90938  0.33791  1.0000
  C   C15       1.0  0.91026  0.01083  0.33431  1.0000
  C   C16       1.0  0.92912  0.04793  0.33339  1.0000
  N   N4        1.0  0.96789  0.05580  0.33319  1.0000
  C   C17       1.0  0.97543  0.09464  0.33318  1.0000
  C   C18       1.0  0.93901  0.11289  0.33321  1.0000
  C   C19       1.0  0.91057  0.08420  0.33304  1.0000
  C   C20       1.0  0.01237  0.11378  0.33401  1.0000
  C   C21       1.0  0.01260  0.15563  0.33711  1.0000
  C   C22       1.0  0.00900  0.17826  0.25687  1.0000
  C   C23       1.0  0.00927  0.21944  0.26101  1.0000
  C   C24       1.0  0.01336  0.23953  0.34521  1.0000
  C   C25       1.0  0.01390  0.28152  0.35014  1.0000
  C   C26       1.0  0.01253  0.36521  0.36864  1.0000
  C   C27       1.0  0.98722  0.34589  0.30703  1.0000
  C   C28       1.0  0.98799  0.30484  0.29793  1.0000
  C   C29       1.0  0.86843  0.01034  0.33742  1.0000
  C   C30       1.0  0.84587  0.00613  0.25719  1.0000
  C   C31       1.0  0.80469  0.00610  0.26113  1.0000
  C   C32       1.0  0.78454  0.01056  0.34509  1.0000
  C   C33       1.0  0.74255  0.01099  0.34973  1.0000
  C   C34       1.0  0.71925  0.98458  0.29847  1.0000
  C   C35       1.0  0.67819  0.98375  0.30724  1.0000
  C   C36       1.0  0.65885  0.00946  0.36764  1.0000
  C   C37       1.0  0.01360  0.86635  0.33272  1.0000
  C   C38       1.0  0.01575  0.78261  0.32261  1.0000
  C   C39       1.0  0.01623  0.80604  0.24273  1.0000
  C   C40       1.0  0.01512  0.84710  0.24752  1.0000
  C   C41       1.0  0.01815  0.74076  0.31673  1.0000
  C   C42       1.0  0.04448  0.72272  0.25535  1.0000
  C   C43       1.0  0.04621  0.68184  0.24623  1.0000
  C   C44       1.0  0.02174  0.65692  0.29821  1.0000
  C   C45       1.0  0.15775  0.01165  0.33218  1.0000
  C   C46       1.0  0.17701  0.01572  0.24742  1.0000
  C   C47       1.0  0.21808  0.01711  0.24280  1.0000
  C   C48       1.0  0.24153  0.01438  0.32239  1.0000
  C   C49       1.0  0.28341  0.01683  0.31685  1.0000
  C   C50       1.0  0.36728  0.02055  0.29865  1.0000
  C   C51       1.0  0.34260  0.04643  0.25031  1.0000
  C   C52       1.0  0.30170  0.04464  0.25931  1.0000
  H   H1        1.0  0.35420  0.06688  0.20698  1.0000
  H   H2        1.0  0.28529  0.06420  0.22310  1.0000
  H   H3        1.0  0.23078  0.01975  0.17984  1.0000
  H   H4        1.0  0.16120  0.01788  0.18831  1.0000
  H   H5        1.0  0.14336  0.08986  0.33610  1.0000
  H   H6        1.0  0.09094  0.14186  0.33444  1.0000
  H   H7        1.0  0.03722  0.03529  0.33543  1.0000
  H   H8        1.0  0.98891  0.98660  0.33362  1.0000
  H   H9        1.0  0.14496  0.93247  0.33373  1.0000
  H   H10       1.0  0.09259  0.87971  0.33418  1.0000
  H   H11       1.0  0.01575  0.86291  0.18820  1.0000
  H   H12       1.0  0.01708  0.79334  0.17952  1.0000
  H   H13       1.0  0.93523  0.88003  0.33923  1.0000
  H   H14       1.0  0.88277  0.93205  0.33821  1.0000
  H   H15       1.0  0.93354  0.14221  0.33356  1.0000
  H   H16       1.0  0.88120  0.08944  0.33317  1.0000
  H   H17       1.0  0.85934  0.00329  0.19515  1.0000
  H   H18       1.0  0.78948  0.00369  0.20126  1.0000
  H   H19       1.0  0.66264  0.96324  0.27151  1.0000
  H   H20       1.0  0.73215  0.96445  0.25669  1.0000
  H   H21       1.0  0.96810  0.29195  0.25529  1.0000
  H   H22       1.0  0.96707  0.36144  0.27049  1.0000
  H   H23       1.0  0.00721  0.23471  0.20116  1.0000
  H   H24       1.0  0.00630  0.16486  0.19470  1.0000
  H   H25       1.0  0.06299  0.73930  0.21640  1.0000
  H   H26       1.0  0.06556  0.67043  0.20014  1.0000
  C   C53       1.0  0.00998  0.40506  0.38535  1.0000
  C   C54       1.0  0.61902  0.00676  0.38437  1.0000
  C   C55       1.0  0.02306  0.61659  0.28321  1.0000
  C   C56       1.0  0.40760  0.02198  0.28353  1.0000
  H   H27       1.0  0.00790  0.41383  0.44997  1.0000
  H   H28       1.0  0.41695  0.03463  0.22627  1.0000
  H   H29       1.0  0.03488  0.60729  0.22502  1.0000
  H   H30       1.0  0.61029  0.00400  0.44888  1.0000
  C   C57       1.0  0.01175  0.46973  0.32475  1.0000
  N   N5        1.0  0.02255  0.53236  0.25762  1.0000
  C   C58       1.0  0.02351  0.49269  0.24891  1.0000
  C   C59       1.0  0.03656  0.47636  0.16792  1.0000
  C   C60       1.0  0.00774  0.46271  0.10268  1.0000
  H   H31       1.0  0.98663  0.44327  0.13543  1.0000
  H   H32       1.0  0.02184  0.44637  0.04784  1.0000
  H   H33       1.0  0.99210  0.48737  0.07281  1.0000
  O   O1        1.0  0.06538  0.49183  0.13381  1.0000
  N   N6        1.0  0.01252  0.43066  0.32122  1.0000
  C   C61       1.0  0.55437  0.00957  0.32406  1.0000
  N   N7        1.0  0.49183  0.02127  0.25752  1.0000
  C   C62       1.0  0.53151  0.02218  0.24893  1.0000
  C   C63       1.0  0.54805  0.03590  0.16859  1.0000
  C   C64       1.0  0.56004  0.00742  0.10109  1.0000
  H   H34       1.0  0.57833  0.98490  0.13191  1.0000
  H   H35       1.0  0.57708  0.02158  0.04738  1.0000
  H   H36       1.0  0.53453  0.99349  0.07009  1.0000
  O   O2        1.0  0.53358  0.06590  0.13838  1.0000
  N   N8        1.0  0.59344  0.01018  0.32047  1.0000
  C   C65       1.0  0.01673  0.21640  0.42521  1.0000
  C   C66       1.0  0.01633  0.17529  0.42142  1.0000
  C   C67       1.0  0.03974  0.30135  0.41005  1.0000
  C   C68       1.0  0.03891  0.34226  0.41969  1.0000
  C   C69       1.0  0.80757  0.01450  0.42513  1.0000
  C   C70       1.0  0.84869  0.01438  0.42154  1.0000
  C   C71       1.0  0.68178  0.03630  0.41780  1.0000
  C   C72       1.0  0.72271  0.03721  0.40842  1.0000
  C   C73       1.0  0.01269  0.84336  0.41285  1.0000
  C   C74       1.0  0.01353  0.80220  0.40774  1.0000
  C   C75       1.0  0.99586  0.67477  0.36099  1.0000
  C   C76       1.0  0.99424  0.71581  0.37026  1.0000
  C   C77       1.0  0.18077  0.00851  0.41196  1.0000
  C   C78       1.0  0.22192  0.00969  0.40699  1.0000
  C   C79       1.0  0.30815  0.99145  0.36674  1.0000
  C   C80       1.0  0.34920  0.99316  0.35768  1.0000
  H   H37       1.0  0.36575  0.97346  0.39306  1.0000
  H   H38       1.0  0.29637  0.97040  0.40806  1.0000
  H   H39       1.0  0.23749  0.00816  0.46651  1.0000
  H   H40       1.0  0.16765  0.00568  0.47442  1.0000
  H   H41       1.0  0.01180  0.85649  0.47561  1.0000
  H   H42       1.0  0.01376  0.78664  0.46737  1.0000
  H   H43       1.0  0.86416  0.01730  0.48097  1.0000
  H   H44       1.0  0.79457  0.01693  0.48776  1.0000
  H   H45       1.0  0.73800  0.05730  0.44592  1.0000
  H   H46       1.0  0.66887  0.05525  0.46266  1.0000
  H   H47       1.0  0.01871  0.15976  0.48089  1.0000
  H   H48       1.0  0.01881  0.22933  0.48801  1.0000
  H   H49       1.0  0.05760  0.35514  0.46536  1.0000
  H   H50       1.0  0.05950  0.28606  0.44823  1.0000
  H   H51       1.0  0.97429  0.72741  0.41453  1.0000
  H   H52       1.0  0.97724  0.65805  0.39930  1.0000
  N   N9        1.0  0.99983  0.48912  0.40116  1.0000
  C   C81       1.0  0.99876  0.52868  0.40849  1.0000
  C   C82       1.0  0.01077  0.55177  0.33397  1.0000
  H   H53       1.0  0.98964  0.54115  0.46817  1.0000
  N   N10       1.0  0.01066  0.59073  0.34038  1.0000
  N   N11       1.0  0.53487  0.99696  0.39980  1.0000
  C   C83       1.0  0.49530  0.99597  0.40708  1.0000
  C   C84       1.0  0.47232  0.00880  0.33323  1.0000
  H   H54       1.0  0.48274  0.98629  0.46624  1.0000
  N   N12       1.0  0.43337  0.00872  0.33967  1.0000
