data_image0
_chemical_formula_structural       CNC5HC6HCH2C2H2NC2HC3H3NHNCHCNCHCHN2HCHNCHCH3C8HC8H3C2H2C8HC7HCH4C3H3CNCHNCNCHNCNCHNCNCHNC4H2C2H3CHNC3H3N2C3H3N2C2N2C3H3N
_chemical_formula_sum              "C90 N24 H54"
_cell_length_a       30.6194
_cell_length_b       30.6194
_cell_length_c       14.6258
_cell_angle_alpha    90.0002
_cell_angle_beta     89.9998
_cell_angle_gamma    120

_space_group_name_H-M_alt    "P 1"
_space_group_IT_number       1

loop_
  _space_group_symop_operation_xyz
  'x, y, z'

loop_
  _atom_site_type_symbol
  _atom_site_label
  _atom_site_symmetry_multiplicity
  _atom_site_fract_x
  _atom_site_fract_y
  _atom_site_fract_z
  _atom_site_occupancy
  C   C1        1.0  0.22025  0.51103  0.37871  1.0000
  N   N1        1.0  0.18002  0.51827  0.37848  1.0000
  C   C2        1.0  0.05742  0.56171  0.38001  1.0000
  C   C3        1.0  0.04119  0.46216  0.38109  1.0000
  C   C4        1.0  0.09183  0.50252  0.38119  1.0000
  C   C5        1.0  0.09924  0.55277  0.38079  1.0000
  C   C6        1.0  0.14772  0.59600  0.38288  1.0000
  H   H1        1.0  0.03493  0.42599  0.38086  1.0000
  C   C7        1.0  0.06537  0.61265  0.38001  1.0000
  C   C8        1.0  0.02355  0.62159  0.38093  1.0000
  C   C9        1.0  0.03096  0.67184  0.38128  1.0000
  C   C10       1.0  0.08159  0.71219  0.38113  1.0000
  C   C11       1.0  0.12432  0.70596  0.37992  1.0000
  C   C12       1.0  0.11545  0.65528  0.38014  1.0000
  H   H2        1.0  0.08785  0.74837  0.38091  1.0000
  C   C13       1.0  0.15553  0.64492  0.38245  1.0000
  H   H3        1.0  0.19226  0.67269  0.38561  1.0000
  H   H4        1.0  0.17958  0.59388  0.38619  1.0000
  C   C14       1.0  0.12941  0.48762  0.38136  1.0000
  C   C15       1.0  0.17322  0.75003  0.37795  1.0000
  H   H5        1.0  0.11787  0.44992  0.38321  1.0000
  H   H6        1.0  0.20399  0.74587  0.37342  1.0000
  N   N2        1.0  0.21707  0.46510  0.38306  1.0000
  C   C16       1.0  0.25798  0.45833  0.38383  1.0000
  C   C17       1.0  0.24977  0.40658  0.38898  1.0000
  H   H7        1.0  0.20962  0.37867  0.39147  1.0000
  C   C18       1.0  0.23596  0.89059  0.38386  1.0000
  C   C19       1.0  0.23012  0.84162  0.37997  1.0000
  C   C20       1.0  0.19243  0.89881  0.38906  1.0000
  H   H8        1.0  0.20468  0.93896  0.39157  1.0000
  H   H9        1.0  0.17047  0.88093  0.45049  1.0000
  H   H10       1.0  0.16845  0.88250  0.32910  1.0000
  N   N3        1.0  0.18392  0.79885  0.38103  1.0000
  H   H11       1.0  0.26608  0.39892  0.32901  1.0000
  N   N4        1.0  0.30962  0.54720  0.37573  1.0000
  C   C21       1.0  0.26889  0.55364  0.37492  1.0000
  H   H12       1.0  0.27410  0.58928  0.37177  1.0000
  C   C22       1.0  0.32640  0.92832  0.37867  1.0000
  N   N5        1.0  0.27319  0.83895  0.37569  1.0000
  C   C23       1.0  0.32036  0.87968  0.37485  1.0000
  H   H13       1.0  0.35079  0.87446  0.37167  1.0000
  C   C24       1.0  0.30695  0.50146  0.37996  1.0000
  H   H14       1.0  0.26765  0.40248  0.45040  1.0000
  N   N6        1.0  0.34973  0.49803  0.38100  1.0000
  N   N7        1.0  0.28364  0.93150  0.38308  1.0000
  H   H15       1.0  0.40020  0.45244  0.38090  1.0000
  C   C25       1.0  0.39383  0.01916  0.38146  1.0000
  H   H16       1.0  0.36766  0.03069  0.38334  1.0000
  N   N8        1.0  0.37387  0.96855  0.37847  1.0000
  C   C26       1.0  0.39855  0.53616  0.37792  1.0000
  H   H17       1.0  0.40271  0.57109  0.37331  1.0000
  C   C27       1.0  0.38080  0.21821  0.38906  1.0000
  H   H18       1.0  0.35289  0.23046  0.39157  1.0000
  H   H19       1.0  0.37672  0.19625  0.45049  1.0000
  H   H20       1.0  0.37312  0.19423  0.32910  1.0000
  C   C28       1.0  0.58686  0.60868  0.38001  1.0000
  C   C29       1.0  0.62950  0.60123  0.38021  1.0000
  C   C30       1.0  0.68017  0.64303  0.37994  1.0000
  C   C31       1.0  0.68641  0.69199  0.38112  1.0000
  C   C32       1.0  0.64605  0.70227  0.38124  1.0000
  C   C33       1.0  0.59580  0.65943  0.38085  1.0000
  C   C34       1.0  0.61914  0.55079  0.38276  1.0000
  C   C35       1.0  0.55256  0.66467  0.38311  1.0000
  H   H21       1.0  0.72258  0.72191  0.38092  1.0000
  C   C36       1.0  0.53592  0.56568  0.38001  1.0000
  C   C37       1.0  0.52698  0.51492  0.38091  1.0000
  C   C38       1.0  0.47674  0.47209  0.38127  1.0000
  C   C39       1.0  0.43638  0.48236  0.38111  1.0000
  C   C40       1.0  0.44262  0.53132  0.37992  1.0000
  C   C41       1.0  0.49329  0.57313  0.38018  1.0000
  C   C42       1.0  0.57022  0.50969  0.38325  1.0000
  C   C43       1.0  0.50365  0.62357  0.38260  1.0000
  H   H22       1.0  0.56809  0.47570  0.38690  1.0000
  H   H23       1.0  0.64690  0.54183  0.38626  1.0000
  H   H24       1.0  0.55470  0.69867  0.38664  1.0000
  C   C44       1.0  0.66094  0.75474  0.38141  1.0000
  C   C45       1.0  0.46185  0.41962  0.38143  1.0000
  H   H25       1.0  0.69864  0.78092  0.38330  1.0000
  H   H26       1.0  0.42414  0.39344  0.38329  1.0000
  C   C46       1.0  0.53989  0.09115  0.38003  1.0000
  C   C47       1.0  0.54734  0.14123  0.38015  1.0000
  C   C48       1.0  0.50554  0.15010  0.37992  1.0000
  C   C49       1.0  0.45658  0.10738  0.38115  1.0000
  C   C50       1.0  0.44630  0.05674  0.38133  1.0000
  C   C51       1.0  0.48914  0.04933  0.38099  1.0000
  C   C52       1.0  0.59779  0.18132  0.38249  1.0000
  C   C53       1.0  0.48390  0.00086  0.38347  1.0000
  H   H27       1.0  0.42665  0.11363  0.38092  1.0000
  C   C54       1.0  0.58289  0.08321  0.38002  1.0000
  C   C55       1.0  0.63365  0.12502  0.38081  1.0000
  C   C56       1.0  0.67649  0.11761  0.38123  1.0000
  C   C57       1.0  0.66621  0.06698  0.38113  1.0000
  C   C58       1.0  0.61724  0.02425  0.37997  1.0000
  C   C59       1.0  0.57544  0.03313  0.38029  1.0000
  C   C60       1.0  0.63889  0.17350  0.38294  1.0000
  H   H28       1.0  0.69613  0.06072  0.38092  1.0000
  C   C61       1.0  0.52500  0.99304  0.38297  1.0000
  H   H29       1.0  0.67288  0.20537  0.38637  1.0000
  H   H30       1.0  0.60675  0.21805  0.38575  1.0000
  H   H31       1.0  0.51605  0.95633  0.38667  1.0000
  H   H32       1.0  0.44991  0.96901  0.38735  1.0000
  C   C62       1.0  0.61240  0.97535  0.37789  1.0000
  C   C63       1.0  0.72896  0.15519  0.38141  1.0000
  C   C64       1.0  0.51037  0.19900  0.37792  1.0000
  H   H33       1.0  0.57747  0.94459  0.37313  1.0000
  H   H34       1.0  0.75513  0.14366  0.38327  1.0000
  H   H35       1.0  0.54530  0.22977  0.37334  1.0000
  C   C65       1.0  0.63753  0.82218  0.37867  1.0000
  N   N9        1.0  0.60136  0.87538  0.37564  1.0000
  C   C66       1.0  0.59492  0.82821  0.37482  1.0000
  H   H36       1.0  0.55928  0.79777  0.37160  1.0000
  N   N10       1.0  0.63029  0.77471  0.37845  1.0000
  C   C67       1.0  0.90253  0.66332  0.37865  1.0000
  N   N11       1.0  0.81316  0.62715  0.37565  1.0000
  C   C68       1.0  0.85389  0.62071  0.37482  1.0000
  H   H37       1.0  0.84868  0.58506  0.37163  1.0000
  N   N12       1.0  0.94276  0.65607  0.37845  1.0000
  C   C69       1.0  0.48525  0.35218  0.37868  1.0000
  N   N13       1.0  0.52142  0.29897  0.37569  1.0000
  C   C70       1.0  0.52786  0.34614  0.37486  1.0000
  H   H38       1.0  0.56350  0.37657  0.37168  1.0000
  N   N14       1.0  0.49250  0.39965  0.37847  1.0000
  C   C71       1.0  0.79639  0.24604  0.37872  1.0000
  N   N15       1.0  0.84959  0.33541  0.37573  1.0000
  C   C72       1.0  0.80243  0.29468  0.37491  1.0000
  H   H39       1.0  0.77199  0.29989  0.37174  1.0000
  N   N16       1.0  0.74892  0.20581  0.37850  1.0000
  C   C73       1.0  0.00734  0.51908  0.38025  1.0000
  C   C74       1.0  0.99847  0.46840  0.37995  1.0000
  C   C75       1.0  0.96726  0.52944  0.38284  1.0000
  C   C76       1.0  0.97507  0.57835  0.38325  1.0000
  H   H40       1.0  0.94321  0.58049  0.38695  1.0000
  H   H41       1.0  0.93054  0.50167  0.38627  1.0000
  C   C77       1.0  0.99338  0.68673  0.38142  1.0000
  C   C78       1.0  0.94957  0.42434  0.37794  1.0000
  H   H42       1.0  0.00490  0.72443  0.38328  1.0000
  H   H43       1.0  0.91880  0.42850  0.37333  1.0000
  H   H44       1.0  0.47588  0.63253  0.38601  1.0000
  C   C79       1.0  0.72423  0.63820  0.37790  1.0000
  H   H45       1.0  0.72007  0.60326  0.37322  1.0000
  N   N17       1.0  0.68346  0.86493  0.38310  1.0000
  C   C80       1.0  0.69023  0.91261  0.38389  1.0000
  C   C81       1.0  0.64709  0.91844  0.37995  1.0000
  C   C82       1.0  0.74197  0.95614  0.38913  1.0000
  H   H46       1.0  0.76988  0.94391  0.39166  1.0000
  H   H47       1.0  0.74603  0.97810  0.45056  1.0000
  H   H48       1.0  0.74966  0.98014  0.32917  1.0000
  N   N18       1.0  0.65052  0.96465  0.38105  1.0000
  N   N19       1.0  0.90571  0.70925  0.38307  1.0000
  C   C83       1.0  0.86480  0.71602  0.38386  1.0000
  C   C84       1.0  0.81583  0.67289  0.37995  1.0000
  C   C85       1.0  0.87301  0.76776  0.38907  1.0000
  H   H49       1.0  0.91316  0.79567  0.39159  1.0000
  H   H50       1.0  0.85513  0.77184  0.45051  1.0000
  H   H51       1.0  0.85671  0.77545  0.32912  1.0000
  N   N20       1.0  0.77306  0.67632  0.38103  1.0000
  N   N21       1.0  0.43932  0.30942  0.38308  1.0000
  C   C86       1.0  0.43255  0.26175  0.38387  1.0000
  C   C87       1.0  0.47568  0.25591  0.37997  1.0000
  N   N22       1.0  0.47225  0.20970  0.38103  1.0000
  N   N23       1.0  0.83915  0.24286  0.38308  1.0000
  C   C88       1.0  0.88683  0.28377  0.38386  1.0000
  C   C89       1.0  0.89266  0.33274  0.37998  1.0000
  C   C90       1.0  0.93036  0.27556  0.38902  1.0000
  H   H52       1.0  0.91813  0.23541  0.39153  1.0000
  H   H53       1.0  0.95233  0.29344  0.45045  1.0000
  H   H54       1.0  0.95434  0.29187  0.32906  1.0000
  N   N24       1.0  0.93887  0.37551  0.38103  1.0000
