data_image0
_chemical_formula_structural       C3NHCH2C2HCO2HC5HCHC4HC4HCO2HC4HC3NHCO2HC4HC3NHCO2HCNCHCO2HCNC2H2CO2HNC2HCO2HCNC2H2CO2HCNC2H2CO2HCNC2H2CO2H2C6H3C6H3C6H3C6H3C6H3CNHCNC2H2CO2HCNC2H2CO2HC4HC2NHCO2HC4HC3NHCO2HC5NHCO2HC4HC3NHCO2HC4HC3NHCO2HC4HC3NHCO2H
_chemical_formula_sum              "C144 N18 H72 O36"
_cell_length_a       46.4093
_cell_length_b       46.4092
_cell_length_c       14.8588
_cell_angle_alpha    90
_cell_angle_beta     90
_cell_angle_gamma    120

_space_group_name_H-M_alt    "P 1"
_space_group_IT_number       1

loop_
  _space_group_symop_operation_xyz
  'x, y, z'

loop_
  _atom_site_type_symbol
  _atom_site_label
  _atom_site_symmetry_multiplicity
  _atom_site_fract_x
  _atom_site_fract_y
  _atom_site_fract_z
  _atom_site_occupancy
  C   C1        1.0  0.02450  0.50906  0.34636  1.0000
  C   C2        1.0  0.09633  0.54675  0.34961  1.0000
  C   C3        1.0  0.07669  0.55757  0.30399  1.0000
  N   N1        1.0  0.04299  0.53897  0.30468  1.0000
  H   H1        1.0  0.08731  0.57916  0.26780  1.0000
  C   C4        1.0  0.13232  0.56587  0.34973  1.0000
  H   H2        1.0  0.13668  0.61381  0.35042  1.0000
  H   H3        1.0  0.14059  0.52467  0.35016  1.0000
  C   C5        1.0  0.04293  0.49689  0.39427  1.0000
  C   C6        1.0  0.07826  0.51587  0.39497  1.0000
  H   H4        1.0  0.09110  0.50702  0.43068  1.0000
  C   C7        1.0  0.02774  0.46603  0.43662  1.0000
  O   O1        1.0  0.02998  0.46589  0.51855  1.0000
  O   O2        1.0  0.02493  0.44123  0.39766  1.0000
  H   H5        1.0  0.02479  0.43893  0.33842  1.0000
  C   C8        1.0  0.18708  0.56846  0.35496  1.0000
  C   C9        1.0  0.18478  0.62025  0.34868  1.0000
  C   C10       1.0  0.14964  0.60132  0.34942  1.0000
  C   C11       1.0  0.15192  0.55007  0.35108  1.0000
  C   C12       1.0  0.21034  0.53553  0.28813  1.0000
  H   H6        1.0  0.19448  0.52965  0.23446  1.0000
  C   C13       1.0  0.22250  0.67249  0.27227  1.0000
  H   H7        1.0  0.21952  0.66035  0.21256  1.0000
  C   C14       1.0  0.20299  0.60346  0.35234  1.0000
  C   C15       1.0  0.20743  0.55356  0.36068  1.0000
  C   C16       1.0  0.20314  0.65559  0.34813  1.0000
  C   C17       1.0  0.21081  0.67330  0.43012  1.0000
  H   H8        1.0  0.19816  0.66099  0.48715  1.0000
  C   C18       1.0  0.91709  0.45779  0.34463  1.0000
  C   C19       1.0  0.98852  0.49287  0.34010  1.0000
  C   C20       1.0  0.97014  0.49921  0.27339  1.0000
  C   C21       1.0  0.93479  0.48167  0.27718  1.0000
  H   H9        1.0  0.92153  0.48557  0.22819  1.0000
  C   C22       1.0  0.98529  0.52032  0.20133  1.0000
  O   O3        1.0  0.98064  0.54388  0.19069  1.0000
  O   O4        1.0  0.99244  0.50867  0.13591  1.0000
  H   H10       1.0  0.00024  0.51934  0.08431  1.0000
  C   C23       1.0  0.55409  0.46170  0.34461  1.0000
  C   C24       1.0  0.51899  0.49802  0.34013  1.0000
  C   C25       1.0  0.51265  0.47331  0.27341  1.0000
  C   C26       1.0  0.53020  0.45551  0.27718  1.0000
  H   H11       1.0  0.52630  0.43835  0.22818  1.0000
  C   C27       1.0  0.50280  0.51781  0.34641  1.0000
  C   C28       1.0  0.46511  0.55196  0.34967  1.0000
  C   C29       1.0  0.45429  0.52150  0.30406  1.0000
  N   N2        1.0  0.47288  0.50640  0.30474  1.0000
  H   H12       1.0  0.43269  0.51052  0.26788  1.0000
  C   C30       1.0  0.49154  0.46735  0.20136  1.0000
  O   O5        1.0  0.46798  0.43913  0.19072  1.0000
  O   O6        1.0  0.50318  0.48615  0.13595  1.0000
  H   H13       1.0  0.49251  0.48328  0.08435  1.0000
  C   C31       1.0  0.55019  0.09475  0.34458  1.0000
  C   C32       1.0  0.51386  0.02333  0.34007  1.0000
  C   C33       1.0  0.53858  0.04171  0.27336  1.0000
  C   C34       1.0  0.55638  0.07706  0.27715  1.0000
  H   H14       1.0  0.57354  0.09032  0.22815  1.0000
  C   C35       1.0  0.49406  0.98735  0.34633  1.0000
  C   C36       1.0  0.45991  0.91552  0.34959  1.0000
  C   C37       1.0  0.49037  0.93516  0.30397  1.0000
  N   N3        1.0  0.50548  0.96885  0.30466  1.0000
  H   H15       1.0  0.50135  0.92454  0.26780  1.0000
  C   C38       1.0  0.54454  0.02656  0.20130  1.0000
  O   O7        1.0  0.57275  0.03121  0.19065  1.0000
  O   O8        1.0  0.52573  0.01940  0.13589  1.0000
  H   H16       1.0  0.52860  0.01160  0.08429  1.0000
  C   C39       1.0  0.33942  0.55245  0.27233  1.0000
  N   N4        1.0  0.30795  0.54681  0.28075  1.0000
  C   C40       1.0  0.23635  0.52782  0.28505  1.0000
  H   H17       1.0  0.35158  0.56162  0.21265  1.0000
  C   C41       1.0  0.23871  0.51039  0.21188  1.0000
  O   O9        1.0  0.23872  0.52048  0.13587  1.0000
  O   O10       1.0  0.23156  0.48099  0.21801  1.0000
  H   H18       1.0  0.22883  0.47020  0.26934  1.0000
  C   C42       1.0  0.45948  0.78937  0.27230  1.0000
  N   N5        1.0  0.46513  0.76355  0.28073  1.0000
  C   C43       1.0  0.48410  0.71092  0.28506  1.0000
  C   C44       1.0  0.47638  0.67721  0.28814  1.0000
  H   H19       1.0  0.48225  0.66721  0.23447  1.0000
  H   H20       1.0  0.45030  0.79235  0.21262  1.0000
  C   C45       1.0  0.50153  0.73071  0.21188  1.0000
  O   O11       1.0  0.49144  0.72063  0.13587  1.0000
  O   O12       1.0  0.53093  0.75295  0.21800  1.0000
  H   H21       1.0  0.54172  0.76101  0.26932  1.0000
  N   N6        1.0  0.24833  0.70396  0.28071  1.0000
  C   C46       1.0  0.30097  0.77556  0.28512  1.0000
  C   C47       1.0  0.33469  0.80155  0.28819  1.0000
  H   H22       1.0  0.34467  0.81743  0.23456  1.0000
  C   C48       1.0  0.28117  0.77322  0.21200  1.0000
  O   O13       1.0  0.29124  0.77324  0.13595  1.0000
  O   O14       1.0  0.25893  0.78038  0.21821  1.0000
  H   H23       1.0  0.25088  0.78310  0.26957  1.0000
  C   C49       1.0  0.67763  0.45820  0.27232  1.0000
  N   N7        1.0  0.70891  0.46331  0.28054  1.0000
  C   C50       1.0  0.78034  0.48131  0.28433  1.0000
  C   C51       1.0  0.80569  0.47271  0.28694  1.0000
  H   H24       1.0  0.82130  0.47803  0.23287  1.0000
  H   H25       1.0  0.66534  0.44907  0.21280  1.0000
  C   C52       1.0  0.77903  0.49872  0.20968  1.0000
  O   O15       1.0  0.76661  0.48245  0.14150  1.0000
  O   O16       1.0  0.77712  0.52423  0.21729  1.0000
  H   H26       1.0  0.78408  0.53753  0.26483  1.0000
  C   C53       1.0  0.55366  0.22181  0.27236  1.0000
  N   N8        1.0  0.54857  0.24799  0.28055  1.0000
  C   C54       1.0  0.53059  0.30142  0.28433  1.0000
  C   C55       1.0  0.53919  0.33538  0.28693  1.0000
  H   H27       1.0  0.53386  0.34567  0.23287  1.0000
  H   H28       1.0  0.56276  0.21863  0.21279  1.0000
  C   C56       1.0  0.51318  0.28271  0.20969  1.0000
  O   O17       1.0  0.52944  0.28656  0.14150  1.0000
  O   O18       1.0  0.48767  0.25529  0.21733  1.0000
  H   H29       1.0  0.47437  0.24895  0.26487  1.0000
  C   C57       1.0  0.79005  0.33426  0.27237  1.0000
  N   N9        1.0  0.76387  0.30298  0.28058  1.0000
  C   C58       1.0  0.71046  0.23155  0.28435  1.0000
  C   C59       1.0  0.67651  0.20619  0.28694  1.0000
  H   H30       1.0  0.66623  0.19057  0.23288  1.0000
  H   H31       1.0  0.79322  0.34655  0.21284  1.0000
  C   C60       1.0  0.72918  0.23285  0.20974  1.0000
  O   O19       1.0  0.72534  0.24527  0.14153  1.0000
  O   O20       1.0  0.75661  0.23477  0.21739  1.0000
  H   H32       1.0  0.76294  0.22781  0.26494  1.0000
  H   H33       1.0  0.22852  0.61711  0.35332  1.0000
  C   C61       1.0  0.44343  0.62101  0.35499  1.0000
  C   C62       1.0  0.40843  0.60193  0.35241  1.0000
  C   C63       1.0  0.39163  0.56693  0.34874  1.0000
  C   C64       1.0  0.41055  0.55072  0.34948  1.0000
  C   C65       1.0  0.44600  0.56883  0.34978  1.0000
  C   C66       1.0  0.46181  0.60423  0.35111  1.0000
  H   H34       1.0  0.39805  0.52527  0.35051  1.0000
  H   H35       1.0  0.48721  0.61830  0.35016  1.0000
  H   H36       1.0  0.39479  0.61382  0.35340  1.0000
  C   C67       1.0  0.39088  0.82477  0.35497  1.0000
  C   C68       1.0  0.40998  0.80887  0.35239  1.0000
  C   C69       1.0  0.44497  0.82708  0.34871  1.0000
  C   C70       1.0  0.46118  0.86221  0.34942  1.0000
  C   C71       1.0  0.44305  0.87953  0.34971  1.0000
  C   C72       1.0  0.40765  0.85993  0.35106  1.0000
  H   H37       1.0  0.48663  0.87518  0.35045  1.0000
  H   H38       1.0  0.39358  0.87126  0.35012  1.0000
  H   H39       1.0  0.39810  0.78334  0.35340  1.0000
  C   C73       1.0  0.82785  0.43878  0.35360  1.0000
  C   C74       1.0  0.81120  0.40368  0.35241  1.0000
  C   C75       1.0  0.82866  0.38609  0.34897  1.0000
  C   C76       1.0  0.86381  0.40426  0.34866  1.0000
  C   C77       1.0  0.88148  0.43960  0.34712  1.0000
  C   C78       1.0  0.86300  0.45647  0.34817  1.0000
  H   H40       1.0  0.87659  0.39156  0.34652  1.0000
  H   H41       1.0  0.87529  0.48194  0.34910  1.0000
  H   H42       1.0  0.78566  0.39056  0.35407  1.0000
  C   C79       1.0  0.57312  0.39148  0.35357  1.0000
  C   C80       1.0  0.60821  0.40993  0.35236  1.0000
  C   C81       1.0  0.62580  0.44498  0.34891  1.0000
  C   C82       1.0  0.60762  0.46196  0.34862  1.0000
  C   C83       1.0  0.57228  0.44428  0.34710  1.0000
  C   C84       1.0  0.55542  0.40893  0.34815  1.0000
  H   H43       1.0  0.62032  0.48743  0.34648  1.0000
  H   H44       1.0  0.52994  0.39574  0.34909  1.0000
  H   H45       1.0  0.62134  0.39752  0.35401  1.0000
  C   C85       1.0  0.62040  0.18402  0.35356  1.0000
  C   C86       1.0  0.60194  0.20065  0.35234  1.0000
  C   C87       1.0  0.56690  0.18318  0.34886  1.0000
  C   C88       1.0  0.54992  0.14802  0.34853  1.0000
  C   C89       1.0  0.56761  0.13037  0.34705  1.0000
  C   C90       1.0  0.60295  0.14886  0.34813  1.0000
  H   H46       1.0  0.52445  0.13524  0.34644  1.0000
  H   H47       1.0  0.61615  0.13658  0.34909  1.0000
  H   H48       1.0  0.61435  0.22619  0.35401  1.0000
  C   C91       1.0  0.93633  0.45244  0.40872  1.0000
  N   N10       1.0  0.97003  0.46990  0.40400  1.0000
  H   H49       1.0  0.92533  0.43583  0.46012  1.0000
  C   C92       1.0  0.55943  0.48628  0.40872  1.0000
  N   N11       1.0  0.54197  0.50251  0.40403  1.0000
  C   C93       1.0  0.51498  0.54842  0.39431  1.0000
  C   C94       1.0  0.49600  0.56477  0.39501  1.0000
  H   H50       1.0  0.50484  0.58646  0.43072  1.0000
  H   H51       1.0  0.57604  0.49189  0.46013  1.0000
  C   C95       1.0  0.54583  0.56408  0.43664  1.0000
  O   O21       1.0  0.54598  0.56646  0.51858  1.0000
  O   O22       1.0  0.57064  0.58608  0.39768  1.0000
  H   H52       1.0  0.57293  0.58824  0.33843  1.0000
  C   C96       1.0  0.52561  0.07552  0.40869  1.0000
  N   N12       1.0  0.50937  0.04182  0.40398  1.0000
  C   C97       1.0  0.46345  0.96892  0.39423  1.0000
  C   C98       1.0  0.44710  0.93359  0.39492  1.0000
  H   H53       1.0  0.42541  0.92075  0.43061  1.0000
  H   H54       1.0  0.52000  0.08652  0.46009  1.0000
  C   C99       1.0  0.44779  0.98412  0.43655  1.0000
  O   O23       1.0  0.44540  0.98188  0.51848  1.0000
  O   O24       1.0  0.42580  0.98694  0.39757  1.0000
  H   H55       1.0  0.42365  0.98707  0.33833  1.0000
  C   C100      1.0  0.35629  0.54997  0.34825  1.0000
  C   C101      1.0  0.28986  0.53723  0.35815  1.0000
  C   C102      1.0  0.30530  0.53323  0.43654  1.0000
  C   C103      1.0  0.33857  0.53988  0.43020  1.0000
  H   H56       1.0  0.35087  0.53952  0.48724  1.0000
  C   C104      1.0  0.25947  0.53816  0.35773  1.0000
  C   C105      1.0  0.23053  0.56235  0.43169  1.0000
  N   N13       1.0  0.25527  0.55503  0.42652  1.0000
  H   H57       1.0  0.23046  0.57631  0.48483  1.0000
  C   C106      1.0  0.28998  0.52434  0.51989  1.0000
  O   O25       1.0  0.29843  0.54641  0.57627  1.0000
  O   O26       1.0  0.26211  0.49924  0.52490  1.0000
  H   H58       1.0  0.24957  0.49315  0.57394  1.0000
  C   C107      1.0  0.46195  0.80871  0.34822  1.0000
  C   C108      1.0  0.47470  0.75503  0.35814  1.0000
  C   C109      1.0  0.47871  0.77448  0.43652  1.0000
  C   C110      1.0  0.47205  0.80109  0.43018  1.0000
  H   H59       1.0  0.47241  0.81375  0.48721  1.0000
  C   C111      1.0  0.47378  0.72372  0.35774  1.0000
  C   C112      1.0  0.45834  0.65626  0.36070  1.0000
  C   C113      1.0  0.44957  0.67059  0.43172  1.0000
  N   N14       1.0  0.45690  0.70265  0.42654  1.0000
  H   H60       1.0  0.43560  0.65655  0.48487  1.0000
  C   C114      1.0  0.48760  0.76805  0.51987  1.0000
  O   O27       1.0  0.46553  0.75444  0.57627  1.0000
  O   O28       1.0  0.51270  0.76528  0.52488  1.0000
  H   H61       1.0  0.51879  0.75884  0.57393  1.0000
  C   C115      1.0  0.25686  0.72203  0.35815  1.0000
  C   C116      1.0  0.23742  0.70657  0.43652  1.0000
  C   C117      1.0  0.28817  0.75241  0.35776  1.0000
  C   C118      1.0  0.35563  0.80440  0.36069  1.0000
  C   C119      1.0  0.34131  0.78131  0.43171  1.0000
  N   N15       1.0  0.30925  0.75659  0.42653  1.0000
  H   H62       1.0  0.35536  0.78137  0.48483  1.0000
  C   C120      1.0  0.24387  0.72186  0.51991  1.0000
  O   O29       1.0  0.25748  0.71338  0.57624  1.0000
  O   O30       1.0  0.24664  0.74973  0.52502  1.0000
  H   H63       1.0  0.25310  0.76225  0.57409  1.0000
  C   C121      1.0  0.66111  0.46122  0.34826  1.0000
  C   C122      1.0  0.72715  0.47282  0.35768  1.0000
  C   C123      1.0  0.71206  0.47732  0.43611  1.0000
  C   C124      1.0  0.67897  0.47124  0.43001  1.0000
  H   H64       1.0  0.66690  0.47199  0.48707  1.0000
  C   C125      1.0  0.75724  0.47136  0.35710  1.0000
  C   C126      1.0  0.80821  0.45445  0.35955  1.0000
  C   C127      1.0  0.78538  0.44632  0.43098  1.0000
  N   N16       1.0  0.76110  0.45428  0.42594  1.0000
  H   H65       1.0  0.78519  0.43225  0.48419  1.0000
  C   C128      1.0  0.72754  0.48617  0.51926  1.0000
  O   O31       1.0  0.71888  0.46415  0.57588  1.0000
  O   O32       1.0  0.75564  0.51097  0.52376  1.0000
  H   H66       1.0  0.76827  0.51696  0.57263  1.0000
  C   C129      1.0  0.55064  0.20222  0.34822  1.0000
  C   C130      1.0  0.53909  0.25673  0.35769  1.0000
  C   C131      1.0  0.53461  0.23715  0.43611  1.0000
  C   C132      1.0  0.54068  0.21015  0.42997  1.0000
  H   H67       1.0  0.53994  0.19734  0.48705  1.0000
  C   C133      1.0  0.54055  0.28828  0.35710  1.0000
  C   C134      1.0  0.55746  0.35617  0.35953  1.0000
  C   C135      1.0  0.56560  0.34147  0.43095  1.0000
  N   N17       1.0  0.55763  0.30923  0.42592  1.0000
  H   H68       1.0  0.57967  0.35536  0.48415  1.0000
  C   C136      1.0  0.52580  0.24380  0.51930  1.0000
  O   O33       1.0  0.54784  0.25716  0.57586  1.0000
  O   O34       1.0  0.50100  0.24712  0.52389  1.0000
  H   H69       1.0  0.49504  0.25376  0.57279  1.0000
  C   C137      1.0  0.80959  0.35078  0.34832  1.0000
  C   C138      1.0  0.75514  0.28474  0.35772  1.0000
  C   C139      1.0  0.77472  0.29983  0.43615  1.0000
  C   C140      1.0  0.80172  0.33292  0.43007  1.0000
  H   H70       1.0  0.81455  0.34499  0.48713  1.0000
  C   C141      1.0  0.72360  0.25465  0.35712  1.0000
  C   C142      1.0  0.65571  0.20367  0.35953  1.0000
  C   C143      1.0  0.67040  0.22650  0.43094  1.0000
  N   N18       1.0  0.70264  0.25079  0.42592  1.0000
  H   H71       1.0  0.65651  0.22669  0.48413  1.0000
  C   C144      1.0  0.76808  0.28435  0.51930  1.0000
  O   O35       1.0  0.75472  0.29301  0.57591  1.0000
  O   O36       1.0  0.76477  0.25625  0.52383  1.0000
  H   H72       1.0  0.75813  0.24362  0.57269  1.0000
