data_image0
_chemical_formula_structural       CNC2NC4NC18H14C2NC16H12C3NC2NC5NC4NC18H14CNC16H12C11H11CNCNC4NC16H13C2H2C2H2C2H2C2H2C2H2C2H2C2H2C2H2C2H2C2H2C2H2C2H2C2H2C2H2C2H2C2H2C2H2C2H2C2H2C2H2C2H2C2H2C2H2C2H2C7NC12H12C2NC3NC3NC18H14C12H12C3NC3NC3NC18H14C3NC3NC2NC5NC20H15C8NC14H13C8H3NH2C8H3NH2C8H3NH2C8H3NH2C8H3NH2C8H3NH2C8H3NH2C8H3NH2C8H3NH2C8H3NH2C8H3NH2C8H3NH2
_chemical_formula_sum              "C408 N36 H264"
_cell_length_a       68.7948
_cell_length_b       68.795
_cell_length_c       14.9666
_cell_angle_alpha    90.0014
_cell_angle_beta     89.9714
_cell_angle_gamma    120

_space_group_name_H-M_alt    "P 1"
_space_group_IT_number       1

loop_
  _space_group_symop_operation_xyz
  'x, y, z'

loop_
  _atom_site_type_symbol
  _atom_site_label
  _atom_site_symmetry_multiplicity
  _atom_site_fract_x
  _atom_site_fract_y
  _atom_site_fract_z
  _atom_site_occupancy
  C   C1        1.0  0.27512  0.51292  0.34496  1.0000
  N   N1        1.0  0.26783  0.47810  0.33661  1.0000
  C   C2        1.0  0.29053  0.49077  0.33946  1.0000
  C   C3        1.0  0.30702  0.48405  0.33796  1.0000
  N   N2        1.0  0.28177  0.44257  0.33665  1.0000
  C   C4        1.0  0.28341  0.42379  0.33648  1.0000
  C   C5        1.0  0.30638  0.43113  0.33765  1.0000
  C   C6        1.0  0.31791  0.45429  0.33705  1.0000
  C   C7        1.0  0.26571  0.40108  0.33531  1.0000
  N   N3        1.0  0.23230  0.40677  0.33771  1.0000
  C   C8        1.0  0.20958  0.39414  0.33549  1.0000
  C   C9        1.0  0.22495  0.37194  0.33076  1.0000
  C   C10       1.0  0.21675  0.46118  0.33737  1.0000
  C   C11       1.0  0.23446  0.48380  0.33846  1.0000
  C   C12       1.0  0.22858  0.50094  0.33821  1.0000
  C   C13       1.0  0.22658  0.51008  0.25666  1.0000
  C   C14       1.0  0.22297  0.52849  0.25624  1.0000
  C   C15       1.0  0.22132  0.53831  0.33705  1.0000
  C   C16       1.0  0.15843  0.37623  0.25395  1.0000
  C   C17       1.0  0.13509  0.36136  0.25329  1.0000
  C   C18       1.0  0.27193  0.38414  0.33435  1.0000
  C   C19       1.0  0.28884  0.35364  0.33769  1.0000
  C   C20       1.0  0.28936  0.36516  0.25836  1.0000
  C   C21       1.0  0.28096  0.38008  0.25647  1.0000
  C   C22       1.0  0.33004  0.50130  0.33797  1.0000
  C   C23       1.0  0.33987  0.51418  0.26030  1.0000
  C   C24       1.0  0.36189  0.53255  0.26237  1.0000
  C   C25       1.0  0.37487  0.53854  0.34170  1.0000
  H   H1        1.0  0.36797  0.54211  0.20590  1.0000
  H   H2        1.0  0.33076  0.51078  0.20258  1.0000
  H   H3        1.0  0.27379  0.52704  0.34887  1.0000
  H   H4        1.0  0.25984  0.46205  0.33080  1.0000
  H   H5        1.0  0.24032  0.42284  0.34216  1.0000
  H   H6        1.0  0.33500  0.46406  0.33753  1.0000
  H   H7        1.0  0.31384  0.42150  0.33848  1.0000
  H   H8        1.0  0.28232  0.38867  0.19878  1.0000
  H   H9        1.0  0.29680  0.36360  0.20174  1.0000
  H   H10       1.0  0.22628  0.35782  0.32708  1.0000
  H   H11       1.0  0.16676  0.38184  0.19447  1.0000
  H   H12       1.0  0.12718  0.35625  0.19288  1.0000
  H   H13       1.0  0.22182  0.53484  0.19592  1.0000
  H   H14       1.0  0.22831  0.50379  0.19711  1.0000
  C   C26       1.0  0.54551  0.76279  0.34581  1.0000
  C   C27       1.0  0.56766  0.80034  0.33994  1.0000
  N   N4        1.0  0.61585  0.83978  0.33708  1.0000
  C   C28       1.0  0.63463  0.86019  0.33682  1.0000
  C   C29       1.0  0.62729  0.87582  0.33777  1.0000
  C   C30       1.0  0.60413  0.86420  0.33717  1.0000
  C   C31       1.0  0.65734  0.86521  0.33576  1.0000
  C   C32       1.0  0.66428  0.81602  0.33609  1.0000
  C   C33       1.0  0.68649  0.85359  0.33159  1.0000
  C   C34       1.0  0.59724  0.75615  0.33770  1.0000
  C   C35       1.0  0.54833  0.71709  0.25701  1.0000
  C   C36       1.0  0.52992  0.69508  0.25658  1.0000
  C   C37       1.0  0.68220  0.78277  0.25441  1.0000
  C   C38       1.0  0.69708  0.77431  0.25376  1.0000
  C   C39       1.0  0.67428  0.88837  0.33477  1.0000
  C   C40       1.0  0.69330  0.92475  0.25864  1.0000
  C   C41       1.0  0.67838  0.90144  0.25681  1.0000
  C   C42       1.0  0.54422  0.82620  0.26063  1.0000
  C   C43       1.0  0.52586  0.82986  0.26265  1.0000
  H   H15       1.0  0.51631  0.82637  0.20619  1.0000
  H   H16       1.0  0.54763  0.82048  0.20293  1.0000
  H   H17       1.0  0.53140  0.74735  0.35017  1.0000
  H   H18       1.0  0.59436  0.87151  0.33745  1.0000
  H   H19       1.0  0.63692  0.89292  0.33848  1.0000
  H   H20       1.0  0.66979  0.89420  0.19915  1.0000
  H   H21       1.0  0.69485  0.93374  0.20202  1.0000
  H   H22       1.0  0.70061  0.86904  0.32785  1.0000
  H   H23       1.0  0.67662  0.78550  0.19495  1.0000
  H   H24       1.0  0.70220  0.77150  0.19336  1.0000
  H   H25       1.0  0.52357  0.68759  0.19626  1.0000
  H   H26       1.0  0.55462  0.72514  0.19747  1.0000
  C   C44       1.0  0.27562  0.76323  0.34532  1.0000
  C   C45       1.0  0.29563  0.78330  0.34497  1.0000
  C   C46       1.0  0.29081  0.80073  0.33962  1.0000
  N   N5        1.0  0.26811  0.79059  0.33630  1.0000
  C   C47       1.0  0.25808  0.76789  0.33920  1.0000
  C   C48       1.0  0.23487  0.75140  0.33755  1.0000
  N   N6        1.0  0.21864  0.77665  0.33628  1.0000
  C   C49       1.0  0.19823  0.77502  0.33598  1.0000
  C   C50       1.0  0.18260  0.75205  0.33695  1.0000
  C   C51       1.0  0.19422  0.74051  0.33640  1.0000
  C   C52       1.0  0.19322  0.79272  0.33490  1.0000
  C   C53       1.0  0.20959  0.81598  0.33481  1.0000
  N   N7        1.0  0.23231  0.82612  0.33743  1.0000
  C   C54       1.0  0.24241  0.84884  0.33530  1.0000
  C   C55       1.0  0.22490  0.85358  0.33149  1.0000
  C   C56       1.0  0.20484  0.83348  0.33082  1.0000
  C   C57       1.0  0.26564  0.86525  0.33614  1.0000
  N   N8        1.0  0.28186  0.84002  0.33737  1.0000
  C   C58       1.0  0.30228  0.84167  0.33714  1.0000
  C   C59       1.0  0.30719  0.82396  0.33828  1.0000
  C   C60       1.0  0.33020  0.82983  0.33813  1.0000
  C   C61       1.0  0.34137  0.83182  0.25661  1.0000
  C   C62       1.0  0.36338  0.83543  0.25627  1.0000
  C   C63       1.0  0.37483  0.83709  0.33712  1.0000
  C   C64       1.0  0.27180  0.88836  0.33534  1.0000
  C   C65       1.0  0.27567  0.90002  0.25371  1.0000
  C   C66       1.0  0.28412  0.92335  0.25309  1.0000
  C   C67       1.0  0.28899  0.93572  0.33374  1.0000
  C   C68       1.0  0.17005  0.78649  0.33395  1.0000
  C   C69       1.0  0.12264  0.76957  0.33727  1.0000
  C   C70       1.0  0.13368  0.76912  0.25790  1.0000
  C   C71       1.0  0.15699  0.77751  0.25604  1.0000
  C   C72       1.0  0.22910  0.72838  0.33756  1.0000
  C   C73       1.0  0.23221  0.71858  0.25992  1.0000
  C   C74       1.0  0.22859  0.69657  0.26203  1.0000
  C   C75       1.0  0.22153  0.68356  0.34130  1.0000
  H   H27       1.0  0.23207  0.69050  0.20557  1.0000
  H   H28       1.0  0.23797  0.72772  0.20224  1.0000
  H   H29       1.0  0.31107  0.78462  0.34926  1.0000
  H   H30       1.0  0.26006  0.79858  0.33009  1.0000
  H   H31       1.0  0.24037  0.81810  0.34140  1.0000
  H   H32       1.0  0.18691  0.72343  0.33669  1.0000
  H   H33       1.0  0.16550  0.74458  0.33764  1.0000
  H   H34       1.0  0.16423  0.77617  0.19834  1.0000
  H   H35       1.0  0.12469  0.76167  0.20130  1.0000
  H   H36       1.0  0.18939  0.83216  0.32718  1.0000
  H   H37       1.0  0.27296  0.89171  0.19423  1.0000
  H   H38       1.0  0.28695  0.93128  0.19270  1.0000
  H   H39       1.0  0.37090  0.83659  0.19598  1.0000
  H   H40       1.0  0.33336  0.83008  0.19703  1.0000
  C   C76       1.0  0.78698  0.54857  0.34006  1.0000
  N   N9        1.0  0.79574  0.59677  0.33729  1.0000
  C   C77       1.0  0.79410  0.61554  0.33703  1.0000
  C   C78       1.0  0.77114  0.60821  0.33810  1.0000
  C   C79       1.0  0.75960  0.58506  0.33762  1.0000
  C   C80       1.0  0.81180  0.63826  0.33585  1.0000
  C   C81       1.0  0.86793  0.64519  0.33606  1.0000
  C   C82       1.0  0.85257  0.66740  0.33154  1.0000
  C   C83       1.0  0.86075  0.57815  0.33792  1.0000
  C   C84       1.0  0.85093  0.52925  0.25722  1.0000
  C   C85       1.0  0.85452  0.51083  0.25680  1.0000
  C   C86       1.0  0.91908  0.66310  0.25423  1.0000
  C   C87       1.0  0.94241  0.67797  0.25347  1.0000
  C   C88       1.0  0.80558  0.65520  0.33485  1.0000
  C   C89       1.0  0.78819  0.67418  0.25878  1.0000
  C   C90       1.0  0.79662  0.65929  0.25690  1.0000
  C   C91       1.0  0.73766  0.52516  0.26094  1.0000
  C   C92       1.0  0.71564  0.50679  0.26300  1.0000
  H   H41       1.0  0.70958  0.49723  0.20655  1.0000
  H   H42       1.0  0.74680  0.52856  0.20323  1.0000
  H   H43       1.0  0.80370  0.51229  0.34969  1.0000
  H   H44       1.0  0.74252  0.57528  0.33785  1.0000
  H   H45       1.0  0.76367  0.61784  0.33875  1.0000
  H   H46       1.0  0.79524  0.65068  0.19927  1.0000
  H   H47       1.0  0.78076  0.67573  0.20216  1.0000
  H   H48       1.0  0.85125  0.68152  0.32785  1.0000
  H   H49       1.0  0.91075  0.65748  0.19480  1.0000
  H   H50       1.0  0.95033  0.68307  0.19302  1.0000
  H   H51       1.0  0.85569  0.50449  0.19648  1.0000
  H   H52       1.0  0.84919  0.53554  0.19767  1.0000
  C   C93       1.0  0.44289  0.17914  0.33727  1.0000
  C   C94       1.0  0.45023  0.16352  0.33846  1.0000
  C   C95       1.0  0.47338  0.17514  0.33794  1.0000
  C   C96       1.0  0.52918  0.32227  0.25767  1.0000
  C   C97       1.0  0.54758  0.34429  0.25725  1.0000
  C   C98       1.0  0.39535  0.25657  0.25453  1.0000
  C   C99       1.0  0.38047  0.26503  0.25379  1.0000
  C   C100      1.0  0.38429  0.11460  0.25872  1.0000
  C   C101      1.0  0.39921  0.13792  0.25697  1.0000
  C   C102      1.0  0.53327  0.21308  0.26124  1.0000
  C   C103      1.0  0.55164  0.20943  0.26326  1.0000
  H   H53       1.0  0.56120  0.21292  0.20679  1.0000
  H   H54       1.0  0.52988  0.21881  0.20353  1.0000
  H   H55       1.0  0.54613  0.29200  0.34991  1.0000
  H   H56       1.0  0.48315  0.16782  0.33843  1.0000
  H   H57       1.0  0.40782  0.14517  0.19934  1.0000
  H   H58       1.0  0.38276  0.10563  0.20206  1.0000
  H   H59       1.0  0.37691  0.17030  0.32761  1.0000
  H   H60       1.0  0.40097  0.25386  0.19510  1.0000
  H   H61       1.0  0.37538  0.26784  0.19335  1.0000
  H   H62       1.0  0.55394  0.35180  0.19694  1.0000
  H   H63       1.0  0.52288  0.31426  0.19811  1.0000
  C   C104      1.0  0.78188  0.25603  0.34587  1.0000
  N   N10       1.0  0.80940  0.24874  0.33693  1.0000
  C   C105      1.0  0.81943  0.27144  0.33988  1.0000
  N   N11       1.0  0.85887  0.26268  0.33692  1.0000
  C   C106      1.0  0.87928  0.26432  0.33663  1.0000
  C   C107      1.0  0.89491  0.28729  0.33757  1.0000
  C   C108      1.0  0.88329  0.29882  0.33698  1.0000
  C   C109      1.0  0.88430  0.24662  0.33556  1.0000
  N   N12       1.0  0.84520  0.21321  0.33811  1.0000
  C   C110      1.0  0.83511  0.19050  0.33593  1.0000
  C   C111      1.0  0.87268  0.20586  0.33140  1.0000
  C   C112      1.0  0.77524  0.19766  0.33770  1.0000
  C   C113      1.0  0.77032  0.21537  0.33888  1.0000
  C   C114      1.0  0.73617  0.20753  0.25721  1.0000
  C   C115      1.0  0.71415  0.20392  0.25688  1.0000
  C   C116      1.0  0.70269  0.20225  0.33773  1.0000
  C   C117      1.0  0.80186  0.13934  0.25426  1.0000
  C   C118      1.0  0.79341  0.11601  0.25359  1.0000
  C   C119      1.0  0.90746  0.25284  0.33458  1.0000
  C   C120      1.0  0.95487  0.26976  0.33780  1.0000
  C   C121      1.0  0.94385  0.27021  0.25844  1.0000
  C   C122      1.0  0.92053  0.26182  0.25662  1.0000
  C   C123      1.0  0.84841  0.31095  0.33816  1.0000
  C   C124      1.0  0.84529  0.32075  0.26057  1.0000
  C   C125      1.0  0.84894  0.34277  0.26263  1.0000
  H   H64       1.0  0.84545  0.34884  0.20620  1.0000
  H   H65       1.0  0.83956  0.31163  0.20287  1.0000
  H   H66       1.0  0.76644  0.25470  0.35029  1.0000
  H   H67       1.0  0.81745  0.24076  0.33028  1.0000
  H   H68       1.0  0.89060  0.31591  0.33724  1.0000
  H   H69       1.0  0.91201  0.29476  0.33823  1.0000
  H   H70       1.0  0.91330  0.26317  0.19896  1.0000
  H   H71       1.0  0.95284  0.27766  0.20182  1.0000
  H   H72       1.0  0.88812  0.20718  0.32765  1.0000
  H   H73       1.0  0.80460  0.14766  0.19479  1.0000
  H   H74       1.0  0.79060  0.10809  0.19318  1.0000
  H   H75       1.0  0.70666  0.20279  0.19659  1.0000
  H   H76       1.0  0.74420  0.20929  0.19763  1.0000
  C   C126      1.0  0.20931  0.62575  0.27350  1.0000
  C   C127      1.0  0.21004  0.64653  0.27247  1.0000
  H   H77       1.0  0.20263  0.61534  0.21948  1.0000
  H   H78       1.0  0.20369  0.65044  0.21800  1.0000
  C   C128      1.0  0.23298  0.57629  0.27935  1.0000
  C   C129      1.0  0.23209  0.59627  0.28175  1.0000
  H   H79       1.0  0.24431  0.57552  0.23726  1.0000
  H   H80       1.0  0.24259  0.60929  0.24104  1.0000
  C   C130      1.0  0.43270  0.58412  0.27393  1.0000
  C   C131      1.0  0.41192  0.56408  0.27291  1.0000
  H   H81       1.0  0.44312  0.58784  0.21993  1.0000
  H   H82       1.0  0.40802  0.55380  0.21846  1.0000
  C   C132      1.0  0.48214  0.65727  0.27973  1.0000
  C   C133      1.0  0.46216  0.63640  0.28213  1.0000
  H   H83       1.0  0.48289  0.66936  0.23772  1.0000
  H   H84       1.0  0.44913  0.63388  0.24153  1.0000
  C   C134      1.0  0.47433  0.84916  0.27401  1.0000
  C   C135      1.0  0.49437  0.84842  0.27304  1.0000
  H   H85       1.0  0.47062  0.85585  0.21996  1.0000
  H   H86       1.0  0.50465  0.85478  0.21859  1.0000
  C   C136      1.0  0.40119  0.82546  0.27956  1.0000
  C   C137      1.0  0.42206  0.82636  0.28209  1.0000
  H   H87       1.0  0.38911  0.81411  0.23758  1.0000
  H   H88       1.0  0.42459  0.81585  0.24152  1.0000
  C   C138      1.0  0.86823  0.41359  0.27412  1.0000
  C   C139      1.0  0.86749  0.39282  0.27309  1.0000
  H   H89       1.0  0.87493  0.42401  0.22009  1.0000
  H   H90       1.0  0.87385  0.38890  0.21861  1.0000
  C   C140      1.0  0.84453  0.46304  0.27996  1.0000
  C   C141      1.0  0.84544  0.44308  0.28232  1.0000
  H   H91       1.0  0.83321  0.46380  0.23792  1.0000
  H   H92       1.0  0.83493  0.43004  0.24174  1.0000
  C   C142      1.0  0.64483  0.45522  0.27456  1.0000
  C   C143      1.0  0.66560  0.47526  0.27354  1.0000
  H   H93       1.0  0.63442  0.45150  0.22056  1.0000
  H   H94       1.0  0.66952  0.48554  0.21909  1.0000
  C   C144      1.0  0.59538  0.38207  0.28036  1.0000
  C   C145      1.0  0.61536  0.40294  0.28276  1.0000
  H   H95       1.0  0.59462  0.36999  0.23825  1.0000
  H   H96       1.0  0.62838  0.40548  0.24204  1.0000
  C   C146      1.0  0.60320  0.19018  0.27468  1.0000
  C   C147      1.0  0.58316  0.19091  0.27371  1.0000
  H   H97       1.0  0.60692  0.18348  0.22065  1.0000
  H   H98       1.0  0.57288  0.18454  0.21928  1.0000
  C   C148      1.0  0.67635  0.21390  0.28023  1.0000
  C   C149      1.0  0.65548  0.21300  0.28272  1.0000
  H   H99       1.0  0.68844  0.22524  0.23818  1.0000
  H   H100      1.0  0.65295  0.22351  0.24215  1.0000
  C   C150      1.0  0.01468  0.28925  0.26996  1.0000
  C   C151      1.0  0.99110  0.27804  0.26892  1.0000
  H   H101      1.0  0.02286  0.28758  0.21591  1.0000
  H   H102      1.0  0.98295  0.26845  0.21439  1.0000
  C   C152      1.0  0.08553  0.34506  0.27518  1.0000
  C   C153      1.0  0.06194  0.33246  0.27756  1.0000
  H   H103      1.0  0.09294  0.35848  0.23265  1.0000
  H   H104      1.0  0.05296  0.33694  0.23633  1.0000
  C   C154      1.0  0.76916  0.72598  0.27030  1.0000
  C   C155      1.0  0.78037  0.71362  0.26923  1.0000
  H   H105      1.0  0.77083  0.73584  0.21626  1.0000
  H   H106      1.0  0.78997  0.71506  0.21470  1.0000
  C   C156      1.0  0.71335  0.74103  0.27569  1.0000
  C   C157      1.0  0.72596  0.73004  0.27796  1.0000
  H   H107      1.0  0.69995  0.73504  0.23307  1.0000
  H   H108      1.0  0.72148  0.71658  0.23674  1.0000
  C   C158      1.0  0.33248  0.04377  0.26990  1.0000
  C   C159      1.0  0.34484  0.06735  0.26893  1.0000
  H   H109      1.0  0.32266  0.03560  0.21579  1.0000
  H   H110      1.0  0.34343  0.07552  0.21439  1.0000
  C   C160      1.0  0.31740  0.97290  0.27509  1.0000
  C   C161      1.0  0.32840  0.99650  0.27747  1.0000
  H   H111      1.0  0.32340  0.96550  0.23243  1.0000
  H   H112      1.0  0.34185  0.00548  0.23619  1.0000
  C   C162      1.0  0.06284  0.75006  0.26959  1.0000
  C   C163      1.0  0.08642  0.76128  0.26848  1.0000
  H   H113      1.0  0.05466  0.75174  0.21557  1.0000
  H   H114      1.0  0.09457  0.77087  0.21393  1.0000
  C   C164      1.0  0.99198  0.69426  0.27514  1.0000
  C   C165      1.0  0.01557  0.70686  0.27737  1.0000
  H   H115      1.0  0.98457  0.68085  0.23257  1.0000
  H   H116      1.0  0.02454  0.70238  0.23609  1.0000
  C   C166      1.0  0.30836  0.31335  0.27001  1.0000
  C   C167      1.0  0.29715  0.32571  0.26889  1.0000
  H   H117      1.0  0.30671  0.30350  0.21596  1.0000
  H   H118      1.0  0.28758  0.32428  0.21433  1.0000
  C   C168      1.0  0.36416  0.29829  0.27551  1.0000
  C   C169      1.0  0.35156  0.30928  0.27781  1.0000
  H   H119      1.0  0.37759  0.30431  0.23302  1.0000
  H   H120      1.0  0.35606  0.32274  0.23656  1.0000
  C   C170      1.0  0.74508  0.99559  0.27015  1.0000
  C   C171      1.0  0.73272  0.97201  0.26910  1.0000
  H   H121      1.0  0.75494  0.00377  0.21610  1.0000
  H   H122      1.0  0.73416  0.96385  0.21458  1.0000
  C   C172      1.0  0.76013  0.06645  0.27551  1.0000
  C   C173      1.0  0.74915  0.04285  0.27777  1.0000
  H   H123      1.0  0.75414  0.07385  0.23289  1.0000
  H   H124      1.0  0.73569  0.03388  0.23656  1.0000
  C   C174      1.0  0.29519  0.51298  0.34528  1.0000
  C   C175      1.0  0.25769  0.49065  0.33978  1.0000
  C   C176      1.0  0.30215  0.46142  0.33719  1.0000
  C   C177      1.0  0.24244  0.39419  0.33501  1.0000
  C   C178      1.0  0.20485  0.37190  0.33149  1.0000
  C   C179      1.0  0.19317  0.40096  0.33643  1.0000
  C   C180      1.0  0.19803  0.42361  0.33719  1.0000
  N   N13       1.0  0.21841  0.44242  0.33761  1.0000
  C   C181      1.0  0.19384  0.45398  0.33680  1.0000
  C   C182      1.0  0.18230  0.43082  0.33680  1.0000
  C   C183      1.0  0.22288  0.52866  0.41849  1.0000
  C   C184      1.0  0.22653  0.51028  0.41920  1.0000
  C   C185      1.0  0.17007  0.38401  0.33558  1.0000
  C   C186      1.0  0.12270  0.35386  0.33392  1.0000
  C   C187      1.0  0.13465  0.36142  0.41544  1.0000
  C   C188      1.0  0.15798  0.37633  0.41640  1.0000
  C   C189      1.0  0.27086  0.37240  0.41328  1.0000
  C   C190      1.0  0.27907  0.35732  0.41463  1.0000
  C   C191      1.0  0.34291  0.50685  0.41704  1.0000
  C   C192      1.0  0.36502  0.52509  0.41855  1.0000
  H   H125      1.0  0.37379  0.52862  0.47714  1.0000
  H   H126      1.0  0.33612  0.49792  0.47449  1.0000
  H   H127      1.0  0.31056  0.52716  0.34974  1.0000
  H   H128      1.0  0.26463  0.37519  0.47095  1.0000
  H   H129      1.0  0.27811  0.34925  0.47328  1.0000
  H   H130      1.0  0.18940  0.35777  0.32832  1.0000
  H   H131      1.0  0.18651  0.46374  0.33672  1.0000
  H   H132      1.0  0.16521  0.42107  0.33623  1.0000
  H   H133      1.0  0.16595  0.38214  0.47638  1.0000
  H   H134      1.0  0.12633  0.35696  0.47523  1.0000
  H   H135      1.0  0.22841  0.50423  0.47912  1.0000
  H   H136      1.0  0.22244  0.53560  0.47837  1.0000
  C   C193      1.0  0.54545  0.78280  0.34616  1.0000
  C   C194      1.0  0.56777  0.76762  0.34030  1.0000
  N   N14       1.0  0.58033  0.79031  0.33699  1.0000
  C   C195      1.0  0.57437  0.82355  0.33828  1.0000
  C   C196      1.0  0.59700  0.84131  0.33745  1.0000
  C   C197      1.0  0.66423  0.84883  0.33561  1.0000
  N   N15       1.0  0.65165  0.82611  0.33827  1.0000
  C   C198      1.0  0.68652  0.83353  0.33222  1.0000
  C   C199      1.0  0.65746  0.79279  0.33692  1.0000
  C   C200      1.0  0.63481  0.77500  0.33755  1.0000
  N   N16       1.0  0.61600  0.77657  0.33805  1.0000
  C   C201      1.0  0.60444  0.74044  0.33699  1.0000
  C   C202      1.0  0.62760  0.75206  0.33699  1.0000
  C   C203      1.0  0.57462  0.75123  0.33883  1.0000
  C   C204      1.0  0.55748  0.72823  0.33858  1.0000
  C   C205      1.0  0.52011  0.68360  0.33739  1.0000
  C   C206      1.0  0.52975  0.69479  0.41882  1.0000
  C   C207      1.0  0.54816  0.71681  0.41956  1.0000
  C   C208      1.0  0.67440  0.78663  0.33606  1.0000
  C   C209      1.0  0.70457  0.76942  0.33439  1.0000
  C   C210      1.0  0.69700  0.77383  0.41591  1.0000
  C   C211      1.0  0.68206  0.78222  0.41686  1.0000
  C   C212      1.0  0.68599  0.89905  0.41370  1.0000
  C   C213      1.0  0.70107  0.92235  0.41498  1.0000
  C   C214      1.0  0.70477  0.93578  0.33799  1.0000
  C   C215      1.0  0.55712  0.82932  0.33825  1.0000
  C   C216      1.0  0.55157  0.83668  0.41727  1.0000
  C   C217      1.0  0.51988  0.83690  0.34192  1.0000
  C   C218      1.0  0.53332  0.84053  0.41876  1.0000
  H   H137      1.0  0.52980  0.84581  0.47730  1.0000
  H   H138      1.0  0.56051  0.83884  0.47471  1.0000
  H   H139      1.0  0.53127  0.78399  0.35099  1.0000
  H   H140      1.0  0.59636  0.79836  0.33038  1.0000
  H   H141      1.0  0.63557  0.81805  0.34242  1.0000
  H   H142      1.0  0.68319  0.89004  0.47139  1.0000
  H   H143      1.0  0.70913  0.92947  0.47362  1.0000
  H   H144      1.0  0.70066  0.83221  0.32915  1.0000
  H   H145      1.0  0.59468  0.72335  0.33678  1.0000
  H   H146      1.0  0.63734  0.74472  0.33637  1.0000
  H   H147      1.0  0.67624  0.78437  0.47686  1.0000
  H   H148      1.0  0.70141  0.76993  0.47569  1.0000
  H   H149      1.0  0.55420  0.72473  0.47948  1.0000
  H   H150      1.0  0.52282  0.68739  0.47871  1.0000
  C   C219      1.0  0.21711  0.75628  0.33669  1.0000
  C   C220      1.0  0.28342  0.86039  0.33684  1.0000
  C   C221      1.0  0.31799  0.86458  0.33648  1.0000
  C   C222      1.0  0.30636  0.87611  0.33639  1.0000
  C   C223      1.0  0.36359  0.83552  0.41851  1.0000
  C   C224      1.0  0.34157  0.83190  0.41916  1.0000
  C   C225      1.0  0.28459  0.92374  0.41524  1.0000
  C   C226      1.0  0.27617  0.90041  0.41617  1.0000
  C   C227      1.0  0.15936  0.78751  0.41291  1.0000
  C   C228      1.0  0.13607  0.77931  0.41424  1.0000
  C   C229      1.0  0.22172  0.71548  0.41659  1.0000
  C   C230      1.0  0.21787  0.69337  0.41811  1.0000
  H   H151      1.0  0.21257  0.68457  0.47666  1.0000
  H   H152      1.0  0.21955  0.72225  0.47400  1.0000
  H   H153      1.0  0.27443  0.74785  0.34997  1.0000
  H   H154      1.0  0.16837  0.79373  0.47059  1.0000
  H   H155      1.0  0.12894  0.78023  0.47291  1.0000
  H   H156      1.0  0.22622  0.86903  0.32849  1.0000
  H   H157      1.0  0.33508  0.87191  0.33634  1.0000
  H   H158      1.0  0.31371  0.89321  0.33578  1.0000
  H   H159      1.0  0.27403  0.89244  0.47614  1.0000
  H   H160      1.0  0.28846  0.93206  0.47503  1.0000
  H   H161      1.0  0.33362  0.83003  0.47904  1.0000
  H   H162      1.0  0.37097  0.83600  0.47843  1.0000
  C   C231      1.0  0.78231  0.52636  0.34595  1.0000
  C   C232      1.0  0.80238  0.52642  0.34558  1.0000
  C   C233      1.0  0.81981  0.54868  0.34037  1.0000
  N   N17       1.0  0.80967  0.56124  0.33716  1.0000
  C   C234      1.0  0.77049  0.55529  0.33858  1.0000
  C   C235      1.0  0.77536  0.57792  0.33779  1.0000
  C   C236      1.0  0.83507  0.64515  0.33566  1.0000
  N   N18       1.0  0.84521  0.63257  0.33829  1.0000
  C   C237      1.0  0.87266  0.66743  0.33215  1.0000
  C   C238      1.0  0.88434  0.63836  0.33687  1.0000
  C   C239      1.0  0.87947  0.61572  0.33763  1.0000
  N   N19       1.0  0.85910  0.59691  0.33816  1.0000
  C   C240      1.0  0.88366  0.58534  0.33723  1.0000
  C   C241      1.0  0.89520  0.60850  0.33715  1.0000
  C   C242      1.0  0.84304  0.55553  0.33904  1.0000
  C   C243      1.0  0.84891  0.53839  0.33878  1.0000
  C   C244      1.0  0.85617  0.50102  0.33760  1.0000
  C   C245      1.0  0.85460  0.51065  0.41904  1.0000
  C   C246      1.0  0.85097  0.52906  0.41977  1.0000
  C   C247      1.0  0.90744  0.65531  0.33594  1.0000
  C   C248      1.0  0.95481  0.68547  0.33404  1.0000
  C   C249      1.0  0.94286  0.67790  0.41561  1.0000
  C   C250      1.0  0.91953  0.66299  0.41668  1.0000
  C   C251      1.0  0.80662  0.66693  0.41377  1.0000
  C   C252      1.0  0.79841  0.68200  0.41507  1.0000
  C   C253      1.0  0.78866  0.68569  0.33810  1.0000
  C   C254      1.0  0.74746  0.53804  0.33859  1.0000
  C   C255      1.0  0.73456  0.53250  0.41764  1.0000
  C   C256      1.0  0.70263  0.50080  0.34232  1.0000
  C   C257      1.0  0.71246  0.51424  0.41917  1.0000
  H   H163      1.0  0.70367  0.51072  0.47775  1.0000
  H   H164      1.0  0.74134  0.54142  0.47509  1.0000
  H   H165      1.0  0.76693  0.51217  0.35056  1.0000
  H   H166      1.0  0.81766  0.57728  0.33132  1.0000
  H   H167      1.0  0.83719  0.61649  0.34237  1.0000
  H   H168      1.0  0.81282  0.66412  0.47148  1.0000
  H   H169      1.0  0.79933  0.69005  0.47372  1.0000
  H   H170      1.0  0.88812  0.68157  0.32905  1.0000
  H   H171      1.0  0.89099  0.57559  0.33704  1.0000
  H   H172      1.0  0.91229  0.61825  0.33645  1.0000
  H   H173      1.0  0.91157  0.65718  0.47671  1.0000
  H   H174      1.0  0.95119  0.68236  0.47535  1.0000
  H   H175      1.0  0.84909  0.53511  0.47968  1.0000
  H   H176      1.0  0.85507  0.50374  0.47893  1.0000
  C   C258      1.0  0.53207  0.25655  0.34631  1.0000
  C   C259      1.0  0.53200  0.27655  0.34599  1.0000
  C   C260      1.0  0.50974  0.27172  0.34079  1.0000
  N   N20       1.0  0.49719  0.24902  0.33761  1.0000
  C   C261      1.0  0.50986  0.23900  0.34047  1.0000
  C   C262      1.0  0.50314  0.21579  0.33894  1.0000
  C   C263      1.0  0.48051  0.19803  0.33810  1.0000
  N   N21       1.0  0.46166  0.19956  0.33752  1.0000
  C   C264      1.0  0.42017  0.17413  0.33601  1.0000
  C   C265      1.0  0.41328  0.19050  0.33570  1.0000
  N   N22       1.0  0.42586  0.21322  0.33846  1.0000
  C   C266      1.0  0.41323  0.22331  0.33619  1.0000
  C   C267      1.0  0.39099  0.20581  0.33209  1.0000
  C   C268      1.0  0.39103  0.18575  0.33135  1.0000
  C   C269      1.0  0.42005  0.24654  0.33715  1.0000
  C   C270      1.0  0.44270  0.26433  0.33799  1.0000
  N   N23       1.0  0.46150  0.26277  0.33848  1.0000
  C   C271      1.0  0.48027  0.28318  0.33829  1.0000
  C   C272      1.0  0.47307  0.29889  0.33770  1.0000
  C   C273      1.0  0.44991  0.28727  0.33763  1.0000
  C   C274      1.0  0.50289  0.28810  0.33945  1.0000
  C   C275      1.0  0.52002  0.31111  0.33922  1.0000
  C   C276      1.0  0.55740  0.35574  0.33807  1.0000
  C   C277      1.0  0.54775  0.34452  0.41950  1.0000
  C   C278      1.0  0.52936  0.32249  0.42021  1.0000
  C   C279      1.0  0.40310  0.25270  0.33622  1.0000
  C   C280      1.0  0.37295  0.26991  0.33437  1.0000
  C   C281      1.0  0.38049  0.26551  0.41593  1.0000
  C   C282      1.0  0.39540  0.25710  0.41698  1.0000
  C   C283      1.0  0.40323  0.15096  0.33491  1.0000
  C   C284      1.0  0.39146  0.14026  0.41376  1.0000
  C   C285      1.0  0.37638  0.11697  0.41497  1.0000
  C   C286      1.0  0.37274  0.10356  0.33797  1.0000
  C   C287      1.0  0.52039  0.21001  0.33892  1.0000
  C   C288      1.0  0.52593  0.20268  0.41797  1.0000
  C   C289      1.0  0.55763  0.20242  0.34257  1.0000
  C   C290      1.0  0.54418  0.19881  0.41945  1.0000
  H   H177      1.0  0.54771  0.19356  0.47803  1.0000
  H   H178      1.0  0.51701  0.20053  0.47543  1.0000
  H   H179      1.0  0.54625  0.25535  0.35078  1.0000
  H   H180      1.0  0.48114  0.24097  0.33180  1.0000
  H   H181      1.0  0.44193  0.22128  0.34297  1.0000
  H   H182      1.0  0.44059  0.14642  0.33923  1.0000
  H   H183      1.0  0.39423  0.14925  0.47147  1.0000
  H   H184      1.0  0.36829  0.10983  0.47356  1.0000
  H   H185      1.0  0.37686  0.20712  0.32887  1.0000
  H   H186      1.0  0.48283  0.31598  0.33765  1.0000
  H   H187      1.0  0.44016  0.29461  0.33702  1.0000
  H   H188      1.0  0.40119  0.25493  0.47700  1.0000
  H   H189      1.0  0.37601  0.26937  0.47569  1.0000
  H   H190      1.0  0.52331  0.31455  0.48012  1.0000
  H   H191      1.0  0.55469  0.35189  0.47938  1.0000
  C   C291      1.0  0.80189  0.27610  0.34617  1.0000
  C   C292      1.0  0.78671  0.23860  0.34032  1.0000
  C   C293      1.0  0.84264  0.28793  0.33817  1.0000
  C   C294      1.0  0.86040  0.28306  0.33729  1.0000
  C   C295      1.0  0.86792  0.22336  0.33543  1.0000
  C   C296      1.0  0.85261  0.18576  0.33204  1.0000
  C   C297      1.0  0.81188  0.17409  0.33678  1.0000
  C   C298      1.0  0.79409  0.17895  0.33746  1.0000
  N   N24       1.0  0.79566  0.19932  0.33799  1.0000
  C   C299      1.0  0.75953  0.17476  0.33699  1.0000
  C   C300      1.0  0.77115  0.16322  0.33694  1.0000
  C   C301      1.0  0.74732  0.20950  0.33873  1.0000
  C   C302      1.0  0.71389  0.20379  0.41912  1.0000
  C   C303      1.0  0.73592  0.20740  0.41976  1.0000
  C   C304      1.0  0.80572  0.15098  0.33590  1.0000
  C   C305      1.0  0.78852  0.10361  0.33421  1.0000
  C   C306      1.0  0.79292  0.11557  0.41574  1.0000
  C   C307      1.0  0.80130  0.13890  0.41670  1.0000
  C   C308      1.0  0.91814  0.25181  0.41351  1.0000
  C   C309      1.0  0.94143  0.26002  0.41480  1.0000
  C   C310      1.0  0.85577  0.32385  0.41718  1.0000
  C   C311      1.0  0.85598  0.35578  0.34191  1.0000
  C   C312      1.0  0.85962  0.34595  0.41871  1.0000
  H   H192      1.0  0.86490  0.35474  0.47726  1.0000
  H   H193      1.0  0.85794  0.31707  0.47459  1.0000
  H   H194      1.0  0.80309  0.29147  0.35102  1.0000
  H   H195      1.0  0.83714  0.22123  0.34226  1.0000
  H   H196      1.0  0.90912  0.24559  0.47121  1.0000
  H   H197      1.0  0.94854  0.25907  0.47344  1.0000
  H   H198      1.0  0.85130  0.17031  0.32897  1.0000
  H   H199      1.0  0.74244  0.16742  0.33683  1.0000
  H   H200      1.0  0.76381  0.14613  0.33632  1.0000
  H   H201      1.0  0.80346  0.14686  0.47670  1.0000
  H   H202      1.0  0.78901  0.10724  0.47551  1.0000
  H   H203      1.0  0.74385  0.20928  0.47964  1.0000
  H   H204      1.0  0.70650  0.20330  0.47904  1.0000
  C   C313      1.0  0.21935  0.66173  0.34456  1.0000
  C   C314      1.0  0.22753  0.65507  0.41839  1.0000
  C   C315      1.0  0.22700  0.63421  0.42115  1.0000
  C   C316      1.0  0.21773  0.61935  0.34705  1.0000
  C   C317      1.0  0.21759  0.59866  0.34181  1.0000
  C   C318      1.0  0.20368  0.58046  0.39809  1.0000
  C   C319      1.0  0.20464  0.56049  0.39566  1.0000
  C   C320      1.0  0.21940  0.55807  0.33662  1.0000
  H   H205      1.0  0.19302  0.58175  0.44225  1.0000
  H   H206      1.0  0.19440  0.54768  0.43765  1.0000
  H   H207      1.0  0.23500  0.66608  0.47010  1.0000
  N   N25       1.0  0.23608  0.62961  0.49334  1.0000
  H   H208      1.0  0.24256  0.64017  0.54266  1.0000
  H   H209      1.0  0.23693  0.61598  0.49742  1.0000
  C   C321      1.0  0.39669  0.55820  0.34494  1.0000
  C   C322      1.0  0.40333  0.57306  0.41873  1.0000
  C   C323      1.0  0.42419  0.59338  0.42148  1.0000
  C   C324      1.0  0.43908  0.59895  0.34745  1.0000
  C   C325      1.0  0.45977  0.61951  0.34218  1.0000
  C   C326      1.0  0.47797  0.62380  0.39840  1.0000
  C   C327      1.0  0.49793  0.64473  0.39594  1.0000
  C   C328      1.0  0.50036  0.66191  0.33696  1.0000
  H   H210      1.0  0.47668  0.61184  0.44253  1.0000
  H   H211      1.0  0.51074  0.64729  0.43789  1.0000
  H   H212      1.0  0.39230  0.56953  0.47040  1.0000
  N   N26       1.0  0.42877  0.60707  0.49364  1.0000
  H   H213      1.0  0.41821  0.60299  0.54296  1.0000
  H   H214      1.0  0.44242  0.62153  0.49778  1.0000
  C   C329      1.0  0.50023  0.83908  0.34514  1.0000
  C   C330      1.0  0.48535  0.83088  0.41892  1.0000
  C   C331      1.0  0.46503  0.83141  0.42161  1.0000
  C   C332      1.0  0.45948  0.84072  0.34752  1.0000
  C   C333      1.0  0.43892  0.84085  0.34218  1.0000
  C   C334      1.0  0.43460  0.85475  0.39838  1.0000
  C   C335      1.0  0.41367  0.85379  0.39582  1.0000
  C   C336      1.0  0.39652  0.83903  0.33677  1.0000
  H   H215      1.0  0.44654  0.86543  0.44251  1.0000
  H   H216      1.0  0.41109  0.86403  0.43774  1.0000
  H   H217      1.0  0.48887  0.82339  0.47062  1.0000
  N   N27       1.0  0.45132  0.82232  0.49376  1.0000
  H   H218      1.0  0.45539  0.81585  0.54316  1.0000
  H   H219      1.0  0.43686  0.82152  0.49790  1.0000
  C   C337      1.0  0.85815  0.37760  0.34518  1.0000
  C   C338      1.0  0.84996  0.38426  0.41902  1.0000
  C   C339      1.0  0.85049  0.40512  0.42175  1.0000
  C   C340      1.0  0.85979  0.41999  0.34767  1.0000
  C   C341      1.0  0.85993  0.44068  0.34240  1.0000
  C   C342      1.0  0.87383  0.45889  0.39865  1.0000
  C   C343      1.0  0.87287  0.47885  0.39618  1.0000
  C   C344      1.0  0.85811  0.48127  0.33719  1.0000
  H   H220      1.0  0.88450  0.45760  0.44277  1.0000
  H   H221      1.0  0.88311  0.49166  0.43812  1.0000
  H   H222      1.0  0.84246  0.37324  0.47069  1.0000
  N   N28       1.0  0.84139  0.40971  0.49393  1.0000
  H   H223      1.0  0.83493  0.39916  0.54332  1.0000
  H   H224      1.0  0.84059  0.42336  0.49810  1.0000
  C   C345      1.0  0.68081  0.48114  0.34558  1.0000
  C   C346      1.0  0.67415  0.46628  0.41938  1.0000
  C   C347      1.0  0.65330  0.44595  0.42213  1.0000
  C   C348      1.0  0.63844  0.44038  0.34808  1.0000
  C   C349      1.0  0.61775  0.41982  0.34284  1.0000
  C   C350      1.0  0.59954  0.41552  0.39914  1.0000
  C   C351      1.0  0.57958  0.39459  0.39670  1.0000
  C   C352      1.0  0.57715  0.37742  0.33765  1.0000
  H   H225      1.0  0.60083  0.42747  0.44331  1.0000
  H   H226      1.0  0.56677  0.39202  0.43871  1.0000
  H   H227      1.0  0.68517  0.46980  0.47106  1.0000
  N   N29       1.0  0.64871  0.43225  0.49430  1.0000
  H   H228      1.0  0.65926  0.43632  0.54359  1.0000
  H   H229      1.0  0.63507  0.41777  0.49838  1.0000
  C   C353      1.0  0.57729  0.20026  0.34577  1.0000
  C   C354      1.0  0.59215  0.20846  0.41954  1.0000
  C   C355      1.0  0.61247  0.20793  0.42222  1.0000
  C   C356      1.0  0.61803  0.19862  0.34816  1.0000
  C   C357      1.0  0.63859  0.19849  0.34282  1.0000
  C   C358      1.0  0.64290  0.18458  0.39899  1.0000
  C   C359      1.0  0.66383  0.18555  0.39645  1.0000
  C   C360      1.0  0.68100  0.20031  0.33741  1.0000
  H   H230      1.0  0.63095  0.17391  0.44315  1.0000
  H   H231      1.0  0.66639  0.17530  0.43836  1.0000
  H   H232      1.0  0.58862  0.21595  0.47122  1.0000
  N   N30       1.0  0.62616  0.21702  0.49436  1.0000
  H   H233      1.0  0.62209  0.22351  0.54371  1.0000
  H   H234      1.0  0.64063  0.21784  0.49846  1.0000
  C   C361      1.0  0.97885  0.27992  0.34103  1.0000
  C   C362      1.0  0.99126  0.29323  0.41485  1.0000
  C   C363      1.0  0.01505  0.30473  0.41762  1.0000
  C   C364      1.0  0.02692  0.30267  0.34354  1.0000
  C   C365      1.0  0.05077  0.31450  0.33837  1.0000
  C   C366      1.0  0.06380  0.30916  0.39539  1.0000
  C   C367      1.0  0.08741  0.32184  0.39302  1.0000
  C   C368      1.0  0.09875  0.34013  0.33329  1.0000
  H   H235      1.0  0.05616  0.29622  0.44005  1.0000
  H   H236      1.0  0.09628  0.31755  0.43562  1.0000
  H   H237      1.0  0.98284  0.29547  0.46659  1.0000
  N   N31       1.0  0.02554  0.31787  0.48985  1.0000
  H   H238      1.0  0.01706  0.31919  0.53924  1.0000
  H   H239      1.0  0.04177  0.32677  0.49400  1.0000
  C   C369      1.0  0.77848  0.69949  0.34134  1.0000
  C   C370      1.0  0.76518  0.69861  0.41522  1.0000
  C   C371      1.0  0.75367  0.71088  0.41799  1.0000
  C   C372      1.0  0.75573  0.72481  0.34390  1.0000
  C   C373      1.0  0.74390  0.73683  0.33877  1.0000
  C   C374      1.0  0.74923  0.75519  0.39580  1.0000
  C   C375      1.0  0.73656  0.76613  0.39345  1.0000
  C   C376      1.0  0.71828  0.75919  0.33376  1.0000
  H   H240      1.0  0.76217  0.76049  0.44044  1.0000
  H   H241      1.0  0.74085  0.77930  0.43605  1.0000
  H   H242      1.0  0.76293  0.68794  0.46693  1.0000
  N   N32       1.0  0.74052  0.70824  0.49025  1.0000
  H   H243      1.0  0.73920  0.69844  0.53964  1.0000
  H   H244      1.0  0.73161  0.71556  0.49440  1.0000
  C   C377      1.0  0.35892  0.07957  0.34113  1.0000
  C   C378      1.0  0.35977  0.06713  0.41497  1.0000
  C   C379      1.0  0.34749  0.04334  0.41766  1.0000
  C   C380      1.0  0.33362  0.03150  0.34348  1.0000
  C   C381      1.0  0.32159  0.00765  0.33827  1.0000
  C   C382      1.0  0.30321  0.99461  0.39526  1.0000
  C   C383      1.0  0.29227  0.97100  0.39288  1.0000
  C   C384      1.0  0.29923  0.95967  0.33315  1.0000
  H   H245      1.0  0.29790  0.00224  0.43996  1.0000
  H   H246      1.0  0.27910  0.96212  0.43548  1.0000
  H   H247      1.0  0.37040  0.07554  0.46678  1.0000
  N   N33       1.0  0.35010  0.03283  0.48993  1.0000
  H   H248      1.0  0.35990  0.04130  0.53928  1.0000
  H   H249      1.0  0.34282  0.01660  0.49391  1.0000
  C   C385      1.0  0.09866  0.75939  0.34054  1.0000
  C   C386      1.0  0.08624  0.74609  0.41442  1.0000
  C   C387      1.0  0.06245  0.73459  0.41726  1.0000
  C   C388      1.0  0.05059  0.73664  0.34321  1.0000
  C   C389      1.0  0.02674  0.72482  0.33814  1.0000
  C   C390      1.0  0.01372  0.73016  0.39519  1.0000
  C   C391      1.0  0.99010  0.71748  0.39295  1.0000
  C   C392      1.0  0.97876  0.69920  0.33328  1.0000
  H   H250      1.0  0.02135  0.74310  0.43985  1.0000
  H   H251      1.0  0.98123  0.72178  0.43560  1.0000
  H   H252      1.0  0.09466  0.74385  0.46613  1.0000
  N   N34       1.0  0.05195  0.72145  0.48954  1.0000
  H   H253      1.0  0.06044  0.72011  0.53885  1.0000
  H   H254      1.0  0.03573  0.71253  0.49369  1.0000
  C   C393      1.0  0.29900  0.33982  0.34099  1.0000
  C   C394      1.0  0.31229  0.34070  0.41488  1.0000
  C   C395      1.0  0.32379  0.32842  0.41772  1.0000
  C   C396      1.0  0.32176  0.31450  0.34365  1.0000
  C   C397      1.0  0.33359  0.30248  0.33856  1.0000
  C   C398      1.0  0.32824  0.28412  0.39560  1.0000
  C   C399      1.0  0.34092  0.27318  0.39332  1.0000
  C   C400      1.0  0.35922  0.28013  0.33364  1.0000
  H   H255      1.0  0.31528  0.27880  0.44022  1.0000
  H   H256      1.0  0.33661  0.26001  0.43594  1.0000
  H   H257      1.0  0.31451  0.35136  0.46661  1.0000
  N   N35       1.0  0.33691  0.33106  0.49001  1.0000
  H   H258      1.0  0.33821  0.34085  0.53937  1.0000
  H   H259      1.0  0.34581  0.32373  0.49420  1.0000
  C   C401      1.0  0.71859  0.95976  0.34121  1.0000
  C   C402      1.0  0.71770  0.97218  0.41507  1.0000
  C   C403      1.0  0.72997  0.99597  0.41782  1.0000
  C   C404      1.0  0.74391  0.00784  0.34373  1.0000
  C   C405      1.0  0.75593  0.03169  0.33858  1.0000
  C   C406      1.0  0.77429  0.04471  0.39560  1.0000
  C   C407      1.0  0.78523  0.06832  0.39326  1.0000
  C   C408      1.0  0.77829  0.07967  0.33358  1.0000
  H   H260      1.0  0.77959  0.03707  0.44025  1.0000
  H   H261      1.0  0.79839  0.07719  0.43586  1.0000
  H   H262      1.0  0.70703  0.96376  0.46679  1.0000
  N   N36       1.0  0.72732  0.00647  0.49007  1.0000
  H   H263      1.0  0.71752  0.99798  0.53946  1.0000
  H   H264      1.0  0.73465  0.02269  0.49421  1.0000
