data_image0
_chemical_formula_structural       C2NH2C2HC3H2C3H2N14C4NH3C2HC4NH3C4NH3C2NH2C4NH3C4NH3C4NH3C4NH3C4NH3C4NH3C4NH3C6H3C6H3C6H3C6H3C3HC3HC6H3C6H3C6H3C6H3C6H3C6H3C4NH3C4NH3C4NH3C4NH3C4NH3C4NH3N22
_chemical_formula_sum              "C144 N54 H90"
_cell_length_a       37.2947
_cell_length_b       37.2946
_cell_length_c       14.8305
_cell_angle_alpha    90
_cell_angle_beta     90
_cell_angle_gamma    120

_space_group_name_H-M_alt    "P 1"
_space_group_IT_number       1

loop_
  _space_group_symop_operation_xyz
  'x, y, z'

loop_
  _atom_site_type_symbol
  _atom_site_label
  _atom_site_symmetry_multiplicity
  _atom_site_fract_x
  _atom_site_fract_y
  _atom_site_fract_z
  _atom_site_occupancy
  C   C1        1.0  0.83984  0.02277  0.23092  1.0000
  C   C2        1.0  0.83037  0.04564  0.29419  1.0000
  N   N1        1.0  0.86705  0.04061  0.16165  1.0000
  H   H1        1.0  0.87158  0.02387  0.11773  1.0000
  H   H2        1.0  0.87878  0.06974  0.14738  1.0000
  C   C3        1.0  0.22397  0.04118  0.30419  1.0000
  C   C4        1.0  0.19282  0.02061  0.23852  1.0000
  H   H3        1.0  0.18688  0.03770  0.19317  1.0000
  C   C5        1.0  0.22662  0.10887  0.30425  1.0000
  C   C6        1.0  0.24675  0.08536  0.31161  1.0000
  C   C7        1.0  0.29021  0.10710  0.32327  1.0000
  H   H4        1.0  0.30530  0.09055  0.32718  1.0000
  H   H5        1.0  0.19496  0.09355  0.30036  1.0000
  C   C8        1.0  0.85273  0.08986  0.30260  1.0000
  C   C9        1.0  0.89659  0.11173  0.30429  1.0000
  C   C10       1.0  0.83222  0.11297  0.31288  1.0000
  H   H6        1.0  0.80051  0.09767  0.31307  1.0000
  H   H7        1.0  0.91190  0.09538  0.30040  1.0000
  N   N2        1.0  0.79952  0.02341  0.35451  1.0000
  N   N3        1.0  0.23213  0.01680  0.35870  1.0000
  N   N4        1.0  0.19826  0.41773  0.29086  1.0000
  N   N5        1.0  0.17735  0.37723  0.28403  1.0000
  N   N6        1.0  0.58769  0.77458  0.29081  1.0000
  N   N7        1.0  0.62818  0.79415  0.28396  1.0000
  N   N8        1.0  0.23088  0.80718  0.29067  1.0000
  N   N9        1.0  0.21131  0.82811  0.28387  1.0000
  N   N10       1.0  0.81294  0.58186  0.29073  1.0000
  N   N11       1.0  0.83387  0.62236  0.28388  1.0000
  N   N12       1.0  0.42360  0.22520  0.29082  1.0000
  N   N13       1.0  0.38310  0.20561  0.28402  1.0000
  N   N14       1.0  0.78046  0.19261  0.29061  1.0000
  N   N15       1.0  0.80001  0.17165  0.28379  1.0000
  C   C11       1.0  0.18261  0.21812  0.30430  1.0000
  C   C12       1.0  0.17206  0.18699  0.23860  1.0000
  C   C13       1.0  0.19440  0.16562  0.23090  1.0000
  C   C14       1.0  0.22674  0.17508  0.29419  1.0000
  N   N16       1.0  0.18504  0.13841  0.16164  1.0000
  H   H8        1.0  0.16376  0.13387  0.11772  1.0000
  H   H9        1.0  0.20244  0.12668  0.14736  1.0000
  H   H10       1.0  0.14902  0.18103  0.19327  1.0000
  C   C15       1.0  0.78731  0.95847  0.30429  1.0000
  C   C16       1.0  0.81845  0.97906  0.23860  1.0000
  H   H11       1.0  0.82441  0.96197  0.19326  1.0000
  C   C17       1.0  0.04695  0.82287  0.30418  1.0000
  C   C18       1.0  0.02637  0.83343  0.23850  1.0000
  C   C19       1.0  0.98265  0.81110  0.23084  1.0000
  C   C20       1.0  0.95978  0.77877  0.29413  1.0000
  N   N17       1.0  0.96481  0.82045  0.16155  1.0000
  H   H12       1.0  0.98155  0.84173  0.11761  1.0000
  H   H13       1.0  0.93568  0.80306  0.14727  1.0000
  H   H14       1.0  0.04345  0.85647  0.19316  1.0000
  C   C21       1.0  0.82862  0.78149  0.30415  1.0000
  C   C22       1.0  0.83916  0.81260  0.23841  1.0000
  C   C23       1.0  0.81683  0.83398  0.23076  1.0000
  C   C24       1.0  0.78455  0.82457  0.29415  1.0000
  N   N18       1.0  0.82612  0.86111  0.16136  1.0000
  H   H15       1.0  0.84762  0.86593  0.11779  1.0000
  H   H16       1.0  0.80901  0.87320  0.14748  1.0000
  H   H17       1.0  0.86213  0.81848  0.19293  1.0000
  C   C25       1.0  0.17142  0.97690  0.23085  1.0000
  C   C26       1.0  0.18085  0.95402  0.29417  1.0000
  N   N19       1.0  0.14420  0.95906  0.16160  1.0000
  H   H18       1.0  0.13968  0.97581  0.11767  1.0000
  H   H19       1.0  0.13245  0.92993  0.14734  1.0000
  C   C27       1.0  0.96428  0.17677  0.30432  1.0000
  C   C28       1.0  0.98486  0.16620  0.23864  1.0000
  C   C29       1.0  0.02858  0.18852  0.23099  1.0000
  C   C30       1.0  0.05145  0.22086  0.29426  1.0000
  N   N20       1.0  0.04643  0.17915  0.16174  1.0000
  H   H20       1.0  0.02968  0.15787  0.11781  1.0000
  H   H21       1.0  0.07555  0.19654  0.14746  1.0000
  H   H22       1.0  0.96778  0.14316  0.19331  1.0000
  C   C31       1.0  0.22776  0.57034  0.39225  1.0000
  C   C32       1.0  0.20661  0.57724  0.32109  1.0000
  C   C33       1.0  0.20682  0.61559  0.31447  1.0000
  C   C34       1.0  0.22727  0.64582  0.38365  1.0000
  N   N21       1.0  0.19221  0.62356  0.23755  1.0000
  H   H23       1.0  0.17963  0.60285  0.19016  1.0000
  H   H24       1.0  0.19352  0.64981  0.22722  1.0000
  H   H25       1.0  0.19735  0.55774  0.26665  1.0000
  C   C35       1.0  0.43507  0.65141  0.39193  1.0000
  C   C36       1.0  0.42823  0.62331  0.32095  1.0000
  C   C37       1.0  0.38981  0.58523  0.31439  1.0000
  C   C38       1.0  0.35966  0.57549  0.38370  1.0000
  N   N22       1.0  0.38179  0.56258  0.23758  1.0000
  H   H26       1.0  0.40246  0.57068  0.19011  1.0000
  H   H27       1.0  0.35550  0.53767  0.22729  1.0000
  H   H28       1.0  0.44768  0.63364  0.26647  1.0000
  C   C39       1.0  0.35402  0.77776  0.39182  1.0000
  C   C40       1.0  0.38206  0.79884  0.32066  1.0000
  C   C41       1.0  0.42018  0.79859  0.31420  1.0000
  C   C42       1.0  0.43004  0.77831  0.38363  1.0000
  N   N23       1.0  0.44284  0.81319  0.23738  1.0000
  H   H29       1.0  0.43471  0.82571  0.18983  1.0000
  H   H30       1.0  0.46782  0.81192  0.22726  1.0000
  H   H31       1.0  0.37183  0.80806  0.26615  1.0000
  C   C43       1.0  0.78337  0.42922  0.39244  1.0000
  C   C44       1.0  0.80461  0.42252  0.32123  1.0000
  C   C45       1.0  0.80450  0.38421  0.31462  1.0000
  C   C46       1.0  0.78429  0.35401  0.38397  1.0000
  N   N24       1.0  0.81911  0.37625  0.23771  1.0000
  H   H32       1.0  0.83159  0.39692  0.19021  1.0000
  H   H33       1.0  0.81798  0.35006  0.22754  1.0000
  H   H34       1.0  0.81378  0.44200  0.26678  1.0000
  C   C47       1.0  0.57610  0.34832  0.39286  1.0000
  C   C48       1.0  0.58299  0.37632  0.32160  1.0000
  C   C49       1.0  0.62137  0.41444  0.31500  1.0000
  C   C50       1.0  0.65157  0.42414  0.38423  1.0000
  N   N25       1.0  0.62939  0.43699  0.23803  1.0000
  H   H35       1.0  0.60868  0.42887  0.19062  1.0000
  H   H36       1.0  0.65566  0.46188  0.22763  1.0000
  H   H37       1.0  0.56352  0.36607  0.26712  1.0000
  C   C51       1.0  0.65734  0.22218  0.39184  1.0000
  C   C52       1.0  0.62924  0.20085  0.32090  1.0000
  C   C53       1.0  0.59118  0.20123  0.31433  1.0000
  C   C54       1.0  0.58156  0.22181  0.38348  1.0000
  N   N26       1.0  0.56850  0.18654  0.23757  1.0000
  H   H38       1.0  0.57655  0.17388  0.19020  1.0000
  H   H39       1.0  0.54365  0.18801  0.22714  1.0000
  H   H40       1.0  0.63955  0.19168  0.26646  1.0000
  C   C55       1.0  0.09567  0.24272  0.30268  1.0000
  C   C56       1.0  0.11755  0.22074  0.30434  1.0000
  C   C57       1.0  0.16120  0.24088  0.31172  1.0000
  C   C58       1.0  0.18290  0.28434  0.32335  1.0000
  C   C59       1.0  0.16240  0.30775  0.32403  1.0000
  C   C60       1.0  0.11877  0.28634  0.31296  1.0000
  H   H41       1.0  0.21455  0.29944  0.32736  1.0000
  H   H42       1.0  0.10347  0.30274  0.31317  1.0000
  H   H43       1.0  0.10122  0.18909  0.30043  1.0000
  C   C61       1.0  0.76269  0.84693  0.30257  1.0000
  C   C62       1.0  0.78468  0.89079  0.30428  1.0000
  C   C63       1.0  0.76455  0.91430  0.31171  1.0000
  C   C64       1.0  0.72109  0.89255  0.32346  1.0000
  C   C65       1.0  0.69768  0.84863  0.32404  1.0000
  C   C66       1.0  0.71908  0.82642  0.31289  1.0000
  H   H44       1.0  0.70598  0.90909  0.32740  1.0000
  H   H45       1.0  0.70267  0.79471  0.31307  1.0000
  H   H46       1.0  0.81633  0.90610  0.30034  1.0000
  C   C67       1.0  0.15849  0.90979  0.30255  1.0000
  C   C68       1.0  0.11463  0.88792  0.30420  1.0000
  C   C69       1.0  0.09113  0.84428  0.31158  1.0000
  C   C70       1.0  0.11287  0.82257  0.32331  1.0000
  C   C71       1.0  0.15679  0.84307  0.32391  1.0000
  C   C72       1.0  0.17900  0.88669  0.31283  1.0000
  H   H47       1.0  0.09632  0.79092  0.32720  1.0000
  H   H48       1.0  0.21071  0.90199  0.31303  1.0000
  H   H49       1.0  0.09932  0.90426  0.30029  1.0000
  C   C73       1.0  0.91556  0.75689  0.30247  1.0000
  C   C74       1.0  0.89367  0.77886  0.30414  1.0000
  C   C75       1.0  0.85003  0.75872  0.31156  1.0000
  C   C76       1.0  0.82833  0.71527  0.32323  1.0000
  C   C77       1.0  0.84884  0.69185  0.32386  1.0000
  C   C78       1.0  0.89247  0.71327  0.31279  1.0000
  H   H50       1.0  0.79668  0.70016  0.32719  1.0000
  H   H51       1.0  0.90777  0.69687  0.31299  1.0000
  H   H52       1.0  0.91001  0.81052  0.30024  1.0000
  C   C79       1.0  0.24860  0.15272  0.30260  1.0000
  C   C80       1.0  0.31363  0.15102  0.32392  1.0000
  C   C81       1.0  0.29222  0.17324  0.31288  1.0000
  H   H53       1.0  0.30863  0.20494  0.31308  1.0000
  C   C82       1.0  0.92010  0.15537  0.31169  1.0000
  C   C83       1.0  0.89836  0.17708  0.32333  1.0000
  C   C84       1.0  0.85444  0.15659  0.32397  1.0000
  H   H54       1.0  0.91491  0.20873  0.32739  1.0000
  C   C85       1.0  0.31595  0.54937  0.37571  1.0000
  C   C86       1.0  0.29103  0.56737  0.39316  1.0000
  C   C87       1.0  0.24752  0.54645  0.38178  1.0000
  C   C88       1.0  0.22790  0.50416  0.35719  1.0000
  C   C89       1.0  0.25080  0.48312  0.35079  1.0000
  C   C90       1.0  0.29485  0.50691  0.35246  1.0000
  H   H55       1.0  0.19624  0.48771  0.35423  1.0000
  H   H56       1.0  0.31173  0.49227  0.34580  1.0000
  H   H57       1.0  0.30587  0.59866  0.40484  1.0000
  C   C91       1.0  0.45607  0.76063  0.37561  1.0000
  C   C92       1.0  0.43802  0.71770  0.39294  1.0000
  C   C93       1.0  0.45893  0.69509  0.38169  1.0000
  C   C94       1.0  0.50123  0.71775  0.35722  1.0000
  C   C95       1.0  0.52232  0.76170  0.35089  1.0000
  C   C96       1.0  0.49855  0.78199  0.35262  1.0000
  H   H58       1.0  0.51767  0.70253  0.35424  1.0000
  H   H59       1.0  0.51324  0.81350  0.34583  1.0000
  H   H60       1.0  0.40672  0.70125  0.40449  1.0000
  C   C97       1.0  0.24482  0.68951  0.37550  1.0000
  C   C98       1.0  0.28775  0.71441  0.39289  1.0000
  C   C99       1.0  0.31034  0.75793  0.38161  1.0000
  C   C100      1.0  0.28767  0.77754  0.35698  1.0000
  C   C101      1.0  0.24372  0.75464  0.35055  1.0000
  C   C102      1.0  0.22346  0.71058  0.35213  1.0000
  H   H61       1.0  0.30288  0.80920  0.35399  1.0000
  H   H62       1.0  0.19194  0.69374  0.34558  1.0000
  H   H63       1.0  0.30421  0.69959  0.40469  1.0000
  C   C103      1.0  0.69526  0.45032  0.37620  1.0000
  C   C104      1.0  0.72017  0.43234  0.39393  1.0000
  C   C105      1.0  0.76366  0.45319  0.38221  1.0000
  C   C106      1.0  0.78328  0.49540  0.35692  1.0000
  C   C107      1.0  0.76039  0.51648  0.35076  1.0000
  C   C108      1.0  0.71634  0.49272  0.35246  1.0000
  H   H64       1.0  0.81494  0.51185  0.35414  1.0000
  H   H65       1.0  0.69951  0.50740  0.34585  1.0000
  H   H66       1.0  0.70535  0.40109  0.40613  1.0000
  C   C109      1.0  0.55529  0.23925  0.37565  1.0000
  C   C110      1.0  0.57318  0.28211  0.39361  1.0000
  C   C111      1.0  0.55223  0.30467  0.38216  1.0000
  C   C112      1.0  0.51000  0.28202  0.35706  1.0000
  C   C113      1.0  0.48902  0.23806  0.35064  1.0000
  C   C114      1.0  0.51287  0.21787  0.35207  1.0000
  H   H67       1.0  0.49348  0.29716  0.35453  1.0000
  H   H68       1.0  0.49824  0.18635  0.34534  1.0000
  H   H69       1.0  0.60445  0.29862  0.40549  1.0000
  C   C115      1.0  0.76660  0.31031  0.37567  1.0000
  C   C116      1.0  0.72367  0.28543  0.39299  1.0000
  C   C117      1.0  0.70102  0.24193  0.38153  1.0000
  C   C118      1.0  0.72365  0.22227  0.35677  1.0000
  C   C119      1.0  0.76761  0.24513  0.35068  1.0000
  C   C120      1.0  0.78793  0.28918  0.35244  1.0000
  H   H70       1.0  0.70839  0.19061  0.35397  1.0000
  H   H71       1.0  0.81945  0.30602  0.34592  1.0000
  H   H72       1.0  0.70723  0.30030  0.40458  1.0000
  C   C121      1.0  0.18540  0.35176  0.33504  1.0000
  C   C122      1.0  0.21732  0.37107  0.39951  1.0000
  C   C123      1.0  0.23929  0.41465  0.41018  1.0000
  C   C124      1.0  0.23000  0.43878  0.35000  1.0000
  N   N27       1.0  0.26653  0.43089  0.47997  1.0000
  H   H73       1.0  0.27071  0.41312  0.52164  1.0000
  H   H74       1.0  0.27852  0.45968  0.49738  1.0000
  H   H75       1.0  0.22321  0.35308  0.44233  1.0000
  C   C125      1.0  0.65367  0.82763  0.33507  1.0000
  C   C126      1.0  0.63438  0.84020  0.39967  1.0000
  C   C127      1.0  0.59080  0.81857  0.41041  1.0000
  C   C128      1.0  0.56666  0.78522  0.35011  1.0000
  N   N28       1.0  0.57459  0.82950  0.48036  1.0000
  H   H76       1.0  0.59231  0.85167  0.52168  1.0000
  H   H77       1.0  0.54573  0.81299  0.49740  1.0000
  H   H78       1.0  0.65239  0.86401  0.44264  1.0000
  C   C129      1.0  0.17778  0.82006  0.33490  1.0000
  C   C130      1.0  0.16518  0.78813  0.39935  1.0000
  C   C131      1.0  0.18679  0.76617  0.41001  1.0000
  C   C132      1.0  0.22018  0.77544  0.34978  1.0000
  N   N29       1.0  0.17578  0.73890  0.47975  1.0000
  H   H79       1.0  0.15383  0.73472  0.52143  1.0000
  H   H80       1.0  0.19256  0.72690  0.49712  1.0000
  H   H81       1.0  0.14130  0.78225  0.44219  1.0000
  C   C133      1.0  0.82584  0.64785  0.33490  1.0000
  C   C134      1.0  0.79394  0.62855  0.39941  1.0000
  C   C135      1.0  0.77197  0.58497  0.41013  1.0000
  C   C136      1.0  0.78121  0.56083  0.34990  1.0000
  N   N30       1.0  0.74475  0.56875  0.47997  1.0000
  H   H82       1.0  0.74060  0.58653  0.52166  1.0000
  H   H83       1.0  0.73276  0.53996  0.49739  1.0000
  H   H84       1.0  0.78808  0.64655  0.44226  1.0000
  C   C137      1.0  0.35764  0.17202  0.33489  1.0000
  C   C138      1.0  0.37698  0.15937  0.39919  1.0000
  C   C139      1.0  0.42057  0.18099  0.40984  1.0000
  C   C140      1.0  0.44467  0.21448  0.34981  1.0000
  N   N31       1.0  0.43682  0.16994  0.47950  1.0000
  H   H85       1.0  0.41906  0.14793  0.52108  1.0000
  H   H86       1.0  0.46561  0.18672  0.49690  1.0000
  H   H87       1.0  0.35901  0.13545  0.44194  1.0000
  C   C141      1.0  0.83345  0.17961  0.33499  1.0000
  C   C142      1.0  0.84601  0.21146  0.39962  1.0000
  C   C143      1.0  0.82440  0.23342  0.41032  1.0000
  C   C144      1.0  0.79110  0.22427  0.34992  1.0000
  N   N32       1.0  0.83532  0.26054  0.48032  1.0000
  H   H88       1.0  0.85744  0.26494  0.52170  1.0000
  H   H89       1.0  0.81881  0.27290  0.49732  1.0000
  H   H90       1.0  0.86979  0.21721  0.44264  1.0000
  N   N33       1.0  0.23534  0.20592  0.35452  1.0000
  N   N34       1.0  0.21516  0.22629  0.35880  1.0000
  N   N35       1.0  0.77914  0.98285  0.35878  1.0000
  N   N36       1.0  0.98202  0.77014  0.35439  1.0000
  N   N37       1.0  0.02258  0.79032  0.35865  1.0000
  N   N38       1.0  0.77597  0.79376  0.35454  1.0000
  N   N39       1.0  0.79614  0.77337  0.35878  1.0000
  N   N40       1.0  0.21172  0.97624  0.35445  1.0000
  N   N41       1.0  0.02922  0.22949  0.35454  1.0000
  N   N42       1.0  0.98865  0.20932  0.35880  1.0000
  N   N43       1.0  0.24262  0.63410  0.45365  1.0000
  N   N44       1.0  0.24314  0.59968  0.45757  1.0000
  N   N45       1.0  0.37133  0.60262  0.45357  1.0000
  N   N46       1.0  0.40574  0.63758  0.45731  1.0000
  N   N47       1.0  0.40285  0.76285  0.45343  1.0000
  N   N48       1.0  0.36788  0.76230  0.45721  1.0000
  N   N49       1.0  0.76882  0.36564  0.45394  1.0000
  N   N50       1.0  0.76809  0.39997  0.45791  1.0000
  N   N51       1.0  0.63979  0.39718  0.45443  1.0000
  N   N52       1.0  0.60534  0.36226  0.45838  1.0000
  N   N53       1.0  0.60862  0.23716  0.45348  1.0000
  N   N54       1.0  0.64355  0.23765  0.45731  1.0000
