data_image0
_chemical_formula_structural       C5NH2NH2NHC3NH2NH2NHC3NH2NH2NHNCNCNC3O3NCNCNC3O3C3NH2NH2NHC3NH2NH2NHC3NH2NH2NHC5NH2NH2NHC3NH2NH2NHC3NH2NH2NHNCNCNC3O3NCNCNC3O3C3NH2NH2NHC3NH2NH2NHC3NH2NH2NHC5NH2NH2NHC3NH2NH2NHC3NH2NH2NHNCNCNC3O3NCNCNC3O3C3NH2NH2NHC3NH2NH2NHC3NH2NH2NHC5NH2NH2NHC3NH2NH2NHC3NH2NH2NHNCNCNC3O3NCNCNC3O3C3NH2NH2NHC3NH2NH2NHC3NH2NH2NH
_chemical_formula_sum              "C120 N96 H120 O24"
_cell_length_a       44.0131
_cell_length_b       44.0132
_cell_length_c       15.0868
_cell_angle_alpha    90
_cell_angle_beta     90
_cell_angle_gamma    120

_space_group_name_H-M_alt    "P 1"
_space_group_IT_number       1

loop_
  _space_group_symop_operation_xyz
  'x, y, z'

loop_
  _atom_site_type_symbol
  _atom_site_label
  _atom_site_symmetry_multiplicity
  _atom_site_fract_x
  _atom_site_fract_y
  _atom_site_fract_z
  _atom_site_occupancy
  C   C1        1.0  0.12706  0.31837  0.28956  1.0000
  C   C2        1.0  0.36435  0.17605  0.36506  1.0000
  C   C3        1.0  0.23373  0.27110  0.31270  1.0000
  C   C4        1.0  0.25713  0.26923  0.25044  1.0000
  C   C5        1.0  0.26712  0.24327  0.26269  1.0000
  N   N1        1.0  0.28184  0.23440  0.19444  1.0000
  H   H1        1.0  0.28381  0.24353  0.13513  1.0000
  H   H2        1.0  0.28385  0.21345  0.19706  1.0000
  N   N2        1.0  0.26847  0.29084  0.17782  1.0000
  H   H3        1.0  0.26031  0.30702  0.16378  1.0000
  H   H4        1.0  0.28808  0.29386  0.14213  1.0000
  N   N3        1.0  0.22127  0.29348  0.29760  1.0000
  H   H5        1.0  0.23802  0.31745  0.28026  1.0000
  C   C6        1.0  0.22173  0.46121  0.31430  1.0000
  C   C7        1.0  0.22355  0.48641  0.25184  1.0000
  C   C8        1.0  0.24948  0.02237  0.26387  1.0000
  N   N4        1.0  0.25827  0.04590  0.19552  1.0000
  H   H6        1.0  0.24896  0.03886  0.13633  1.0000
  H   H7        1.0  0.27909  0.06899  0.19792  1.0000
  N   N5        1.0  0.20196  0.47603  0.17919  1.0000
  H   H8        1.0  0.18585  0.45165  0.16519  1.0000
  H   H9        1.0  0.19890  0.49253  0.14330  1.0000
  N   N6        1.0  0.19931  0.42635  0.29955  1.0000
  H   H10       1.0  0.17536  0.41913  0.28196  1.0000
  C   C9        1.0  0.03160  0.25905  0.31229  1.0000
  C   C10       1.0  0.00643  0.23586  0.24951  1.0000
  C   C11       1.0  0.47046  0.22582  0.26153  1.0000
  N   N7        1.0  0.44694  0.21117  0.19310  1.0000
  H   H11       1.0  0.45415  0.20930  0.13379  1.0000
  H   H12       1.0  0.42391  0.20900  0.19574  1.0000
  N   N8        1.0  0.01683  0.22478  0.17664  1.0000
  H   H13       1.0  0.04121  0.23303  0.16281  1.0000
  H   H14       1.0  0.00034  0.20529  0.14051  1.0000
  N   N9        1.0  0.06647  0.27153  0.29759  1.0000
  H   H15       1.0  0.07370  0.25485  0.27972  1.0000
  N   N10       1.0  0.15044  0.35328  0.29055  1.0000
  C   C12       1.0  0.18556  0.36579  0.29016  1.0000
  N   N11       1.0  0.19708  0.34241  0.29024  1.0000
  C   C13       1.0  0.17448  0.30729  0.28925  1.0000
  N   N12       1.0  0.13957  0.29577  0.28968  1.0000
  C   C14       1.0  0.20956  0.40181  0.29702  1.0000
  C   C15       1.0  0.18648  0.28325  0.29538  1.0000
  C   C16       1.0  0.09102  0.30633  0.29588  1.0000
  O   O1        1.0  0.16199  0.24870  0.30115  1.0000
  O   O2        1.0  0.08094  0.33080  0.30234  1.0000
  O   O3        1.0  0.24412  0.41188  0.30301  1.0000
  N   N13       1.0  0.34106  0.14112  0.36504  1.0000
  C   C17       1.0  0.30593  0.12851  0.36608  1.0000
  N   N14       1.0  0.29429  0.15180  0.36561  1.0000
  C   C18       1.0  0.31681  0.18693  0.36566  1.0000
  N   N15       1.0  0.35174  0.19856  0.36467  1.0000
  C   C19       1.0  0.28200  0.09244  0.36013  1.0000
  C   C20       1.0  0.30468  0.21086  0.35924  1.0000
  C   C21       1.0  0.40040  0.18818  0.35812  1.0000
  O   O4        1.0  0.32908  0.24543  0.35284  1.0000
  O   O5        1.0  0.41056  0.16377  0.35184  1.0000
  O   O6        1.0  0.24741  0.08224  0.35441  1.0000
  C   C22       1.0  0.25727  0.22279  0.34208  1.0000
  C   C23       1.0  0.23382  0.22463  0.40426  1.0000
  C   C24       1.0  0.22382  0.25058  0.39201  1.0000
  N   N16       1.0  0.22244  0.20300  0.47682  1.0000
  H   H16       1.0  0.23059  0.18681  0.49089  1.0000
  H   H17       1.0  0.20279  0.19993  0.51238  1.0000
  N   N17       1.0  0.20906  0.25942  0.46023  1.0000
  H   H18       1.0  0.20695  0.28031  0.45768  1.0000
  H   H19       1.0  0.20709  0.25026  0.51952  1.0000
  N   N18       1.0  0.26986  0.20053  0.35735  1.0000
  H   H20       1.0  0.25321  0.17657  0.37498  1.0000
  C   C25       1.0  0.27005  0.03309  0.34309  1.0000
  C   C26       1.0  0.26828  0.00789  0.40545  1.0000
  C   C27       1.0  0.24234  0.47192  0.39347  1.0000
  N   N19       1.0  0.28994  0.01826  0.47796  1.0000
  H   H21       1.0  0.30612  0.04264  0.49180  1.0000
  H   H22       1.0  0.29303  0.00175  0.51375  1.0000
  N   N20       1.0  0.23361  0.44840  0.46182  1.0000
  H   H23       1.0  0.21273  0.42535  0.45938  1.0000
  H   H24       1.0  0.24288  0.45548  0.52101  1.0000
  N   N21       1.0  0.29234  0.06796  0.35801  1.0000
  H   H25       1.0  0.31634  0.07529  0.37534  1.0000
  C   C28       1.0  0.45972  0.23550  0.34101  1.0000
  C   C29       1.0  0.48489  0.25869  0.40378  1.0000
  C   C30       1.0  0.02085  0.26870  0.39179  1.0000
  N   N22       1.0  0.47449  0.26976  0.47666  1.0000
  H   H26       1.0  0.45012  0.26153  0.49055  1.0000
  H   H27       1.0  0.49099  0.28923  0.51284  1.0000
  N   N23       1.0  0.04433  0.28319  0.46032  1.0000
  H   H28       1.0  0.06742  0.28549  0.45789  1.0000
  H   H29       1.0  0.03721  0.28527  0.51960  1.0000
  N   N24       1.0  0.42486  0.22300  0.35577  1.0000
  H   H30       1.0  0.41759  0.23965  0.37368  1.0000
  C   C31       1.0  0.12706  0.81837  0.28956  1.0000
  C   C32       1.0  0.36435  0.67605  0.36506  1.0000
  C   C33       1.0  0.23373  0.77110  0.31270  1.0000
  C   C34       1.0  0.25713  0.76923  0.25044  1.0000
  C   C35       1.0  0.26712  0.74327  0.26269  1.0000
  N   N25       1.0  0.28184  0.73440  0.19444  1.0000
  H   H31       1.0  0.28381  0.74353  0.13513  1.0000
  H   H32       1.0  0.28385  0.71345  0.19706  1.0000
  N   N26       1.0  0.26847  0.79083  0.17782  1.0000
  H   H33       1.0  0.26031  0.80702  0.16378  1.0000
  H   H34       1.0  0.28808  0.79386  0.14213  1.0000
  N   N27       1.0  0.22127  0.79348  0.29760  1.0000
  H   H35       1.0  0.23802  0.81745  0.28026  1.0000
  C   C36       1.0  0.22173  0.96121  0.31430  1.0000
  C   C37       1.0  0.22356  0.98641  0.25184  1.0000
  C   C38       1.0  0.24948  0.52238  0.26387  1.0000
  N   N28       1.0  0.25827  0.54590  0.19552  1.0000
  H   H36       1.0  0.24896  0.53886  0.13633  1.0000
  H   H37       1.0  0.27909  0.56899  0.19792  1.0000
  N   N29       1.0  0.20196  0.97603  0.17919  1.0000
  H   H38       1.0  0.18585  0.95165  0.16519  1.0000
  H   H39       1.0  0.19889  0.99253  0.14330  1.0000
  N   N30       1.0  0.19931  0.92635  0.29955  1.0000
  H   H40       1.0  0.17536  0.91913  0.28196  1.0000
  C   C39       1.0  0.03160  0.75905  0.31229  1.0000
  C   C40       1.0  0.00643  0.73586  0.24951  1.0000
  C   C41       1.0  0.47046  0.72582  0.26153  1.0000
  N   N31       1.0  0.44694  0.71117  0.19310  1.0000
  H   H41       1.0  0.45415  0.70930  0.13379  1.0000
  H   H42       1.0  0.42391  0.70900  0.19573  1.0000
  N   N32       1.0  0.01683  0.72478  0.17664  1.0000
  H   H43       1.0  0.04121  0.73303  0.16281  1.0000
  H   H44       1.0  0.00034  0.70529  0.14051  1.0000
  N   N33       1.0  0.06647  0.77153  0.29759  1.0000
  H   H45       1.0  0.07370  0.75485  0.27972  1.0000
  N   N34       1.0  0.15044  0.85328  0.29055  1.0000
  C   C42       1.0  0.18556  0.86579  0.29016  1.0000
  N   N35       1.0  0.19708  0.84240  0.29024  1.0000
  C   C43       1.0  0.17448  0.80729  0.28925  1.0000
  N   N36       1.0  0.13957  0.79577  0.28968  1.0000
  C   C44       1.0  0.20956  0.90181  0.29702  1.0000
  C   C45       1.0  0.18648  0.78326  0.29538  1.0000
  C   C46       1.0  0.09102  0.80633  0.29588  1.0000
  O   O7        1.0  0.16200  0.74870  0.30115  1.0000
  O   O8        1.0  0.08094  0.83080  0.30234  1.0000
  O   O9        1.0  0.24412  0.91188  0.30301  1.0000
  N   N37       1.0  0.34106  0.64112  0.36504  1.0000
  C   C47       1.0  0.30593  0.62851  0.36608  1.0000
  N   N38       1.0  0.29429  0.65180  0.36561  1.0000
  C   C48       1.0  0.31681  0.68693  0.36566  1.0000
  N   N39       1.0  0.35174  0.69857  0.36467  1.0000
  C   C49       1.0  0.28200  0.59244  0.36013  1.0000
  C   C50       1.0  0.30468  0.71086  0.35924  1.0000
  C   C51       1.0  0.40040  0.68818  0.35812  1.0000
  O   O10       1.0  0.32908  0.74543  0.35284  1.0000
  O   O11       1.0  0.41056  0.66377  0.35184  1.0000
  O   O12       1.0  0.24741  0.58224  0.35441  1.0000
  C   C52       1.0  0.25727  0.72279  0.34208  1.0000
  C   C53       1.0  0.23382  0.72463  0.40426  1.0000
  C   C54       1.0  0.22382  0.75058  0.39201  1.0000
  N   N40       1.0  0.22244  0.70300  0.47682  1.0000
  H   H46       1.0  0.23059  0.68681  0.49089  1.0000
  H   H47       1.0  0.20279  0.69993  0.51238  1.0000
  N   N41       1.0  0.20906  0.75942  0.46023  1.0000
  H   H48       1.0  0.20695  0.78031  0.45768  1.0000
  H   H49       1.0  0.20709  0.75026  0.51952  1.0000
  N   N42       1.0  0.26987  0.70053  0.35735  1.0000
  H   H50       1.0  0.25321  0.67657  0.37498  1.0000
  C   C55       1.0  0.27005  0.53309  0.34309  1.0000
  C   C56       1.0  0.26828  0.50789  0.40545  1.0000
  C   C57       1.0  0.24234  0.97192  0.39347  1.0000
  N   N43       1.0  0.28994  0.51826  0.47796  1.0000
  H   H51       1.0  0.30612  0.54264  0.49180  1.0000
  H   H52       1.0  0.29303  0.50175  0.51375  1.0000
  N   N44       1.0  0.23361  0.94839  0.46182  1.0000
  H   H53       1.0  0.21273  0.92535  0.45938  1.0000
  H   H54       1.0  0.24288  0.95549  0.52101  1.0000
  N   N45       1.0  0.29234  0.56796  0.35801  1.0000
  H   H55       1.0  0.31634  0.57529  0.37534  1.0000
  C   C58       1.0  0.45972  0.73550  0.34101  1.0000
  C   C59       1.0  0.48489  0.75869  0.40378  1.0000
  C   C60       1.0  0.02085  0.76870  0.39179  1.0000
  N   N46       1.0  0.47449  0.76976  0.47666  1.0000
  H   H56       1.0  0.45012  0.76153  0.49055  1.0000
  H   H57       1.0  0.49099  0.78922  0.51284  1.0000
  N   N47       1.0  0.04433  0.78319  0.46032  1.0000
  H   H58       1.0  0.06742  0.78549  0.45789  1.0000
  H   H59       1.0  0.03721  0.78527  0.51960  1.0000
  N   N48       1.0  0.42486  0.72300  0.35577  1.0000
  H   H60       1.0  0.41759  0.73965  0.37368  1.0000
  C   C61       1.0  0.62706  0.31837  0.28956  1.0000
  C   C62       1.0  0.86435  0.17605  0.36506  1.0000
  C   C63       1.0  0.73373  0.27110  0.31270  1.0000
  C   C64       1.0  0.75713  0.26923  0.25044  1.0000
  C   C65       1.0  0.76712  0.24327  0.26269  1.0000
  N   N49       1.0  0.78184  0.23440  0.19444  1.0000
  H   H61       1.0  0.78381  0.24353  0.13513  1.0000
  H   H62       1.0  0.78385  0.21345  0.19706  1.0000
  N   N50       1.0  0.76847  0.29084  0.17782  1.0000
  H   H63       1.0  0.76031  0.30702  0.16378  1.0000
  H   H64       1.0  0.78808  0.29386  0.14213  1.0000
  N   N51       1.0  0.72127  0.29348  0.29760  1.0000
  H   H65       1.0  0.73802  0.31745  0.28026  1.0000
  C   C66       1.0  0.72173  0.46121  0.31430  1.0000
  C   C67       1.0  0.72355  0.48641  0.25184  1.0000
  C   C68       1.0  0.74948  0.02237  0.26387  1.0000
  N   N52       1.0  0.75827  0.04590  0.19552  1.0000
  H   H66       1.0  0.74896  0.03886  0.13633  1.0000
  H   H67       1.0  0.77909  0.06899  0.19792  1.0000
  N   N53       1.0  0.70196  0.47603  0.17919  1.0000
  H   H68       1.0  0.68585  0.45165  0.16519  1.0000
  H   H69       1.0  0.69890  0.49253  0.14330  1.0000
  N   N54       1.0  0.69931  0.42635  0.29955  1.0000
  H   H70       1.0  0.67536  0.41913  0.28196  1.0000
  C   C69       1.0  0.53160  0.25905  0.31229  1.0000
  C   C70       1.0  0.50643  0.23586  0.24951  1.0000
  C   C71       1.0  0.97045  0.22582  0.26153  1.0000
  N   N55       1.0  0.94694  0.21117  0.19310  1.0000
  H   H71       1.0  0.95415  0.20930  0.13379  1.0000
  H   H72       1.0  0.92391  0.20900  0.19574  1.0000
  N   N56       1.0  0.51683  0.22478  0.17664  1.0000
  H   H73       1.0  0.54121  0.23303  0.16281  1.0000
  H   H74       1.0  0.50034  0.20529  0.14051  1.0000
  N   N57       1.0  0.56647  0.27153  0.29759  1.0000
  H   H75       1.0  0.57370  0.25485  0.27972  1.0000
  N   N58       1.0  0.65044  0.35328  0.29055  1.0000
  C   C72       1.0  0.68556  0.36579  0.29016  1.0000
  N   N59       1.0  0.69708  0.34241  0.29024  1.0000
  C   C73       1.0  0.67448  0.30729  0.28925  1.0000
  N   N60       1.0  0.63957  0.29577  0.28968  1.0000
  C   C74       1.0  0.70956  0.40181  0.29702  1.0000
  C   C75       1.0  0.68648  0.28325  0.29538  1.0000
  C   C76       1.0  0.59102  0.30633  0.29588  1.0000
  O   O13       1.0  0.66200  0.24870  0.30115  1.0000
  O   O14       1.0  0.58094  0.33080  0.30234  1.0000
  O   O15       1.0  0.74412  0.41188  0.30301  1.0000
  N   N61       1.0  0.84106  0.14112  0.36504  1.0000
  C   C77       1.0  0.80593  0.12851  0.36608  1.0000
  N   N62       1.0  0.79429  0.15180  0.36561  1.0000
  C   C78       1.0  0.81681  0.18693  0.36566  1.0000
  N   N63       1.0  0.85174  0.19856  0.36467  1.0000
  C   C79       1.0  0.78200  0.09244  0.36013  1.0000
  C   C80       1.0  0.80468  0.21086  0.35924  1.0000
  C   C81       1.0  0.90040  0.18818  0.35812  1.0000
  O   O16       1.0  0.82908  0.24543  0.35284  1.0000
  O   O17       1.0  0.91056  0.16377  0.35184  1.0000
  O   O18       1.0  0.74741  0.08224  0.35441  1.0000
  C   C82       1.0  0.75727  0.22279  0.34208  1.0000
  C   C83       1.0  0.73382  0.22463  0.40426  1.0000
  C   C84       1.0  0.72382  0.25058  0.39201  1.0000
  N   N64       1.0  0.72244  0.20300  0.47682  1.0000
  H   H76       1.0  0.73059  0.18681  0.49089  1.0000
  H   H77       1.0  0.70279  0.19993  0.51238  1.0000
  N   N65       1.0  0.70906  0.25942  0.46023  1.0000
  H   H78       1.0  0.70695  0.28031  0.45768  1.0000
  H   H79       1.0  0.70709  0.25026  0.51952  1.0000
  N   N66       1.0  0.76987  0.20053  0.35735  1.0000
  H   H80       1.0  0.75321  0.17657  0.37498  1.0000
  C   C85       1.0  0.77005  0.03309  0.34309  1.0000
  C   C86       1.0  0.76828  0.00789  0.40545  1.0000
  C   C87       1.0  0.74234  0.47192  0.39347  1.0000
  N   N67       1.0  0.78994  0.01826  0.47796  1.0000
  H   H81       1.0  0.80613  0.04264  0.49180  1.0000
  H   H82       1.0  0.79303  0.00175  0.51375  1.0000
  N   N68       1.0  0.73361  0.44840  0.46182  1.0000
  H   H83       1.0  0.71273  0.42535  0.45938  1.0000
  H   H84       1.0  0.74288  0.45548  0.52101  1.0000
  N   N69       1.0  0.79235  0.06796  0.35801  1.0000
  H   H85       1.0  0.81634  0.07529  0.37534  1.0000
  C   C88       1.0  0.95972  0.23550  0.34101  1.0000
  C   C89       1.0  0.98489  0.25869  0.40378  1.0000
  C   C90       1.0  0.52085  0.26870  0.39179  1.0000
  N   N70       1.0  0.97449  0.26976  0.47666  1.0000
  H   H86       1.0  0.95012  0.26153  0.49055  1.0000
  H   H87       1.0  0.99099  0.28923  0.51284  1.0000
  N   N71       1.0  0.54433  0.28319  0.46032  1.0000
  H   H88       1.0  0.56742  0.28549  0.45789  1.0000
  H   H89       1.0  0.53721  0.28527  0.51960  1.0000
  N   N72       1.0  0.92486  0.22300  0.35577  1.0000
  H   H90       1.0  0.91759  0.23965  0.37368  1.0000
  C   C91       1.0  0.62706  0.81837  0.28956  1.0000
  C   C92       1.0  0.86435  0.67605  0.36506  1.0000
  C   C93       1.0  0.73373  0.77110  0.31270  1.0000
  C   C94       1.0  0.75713  0.76923  0.25044  1.0000
  C   C95       1.0  0.76712  0.74327  0.26269  1.0000
  N   N73       1.0  0.78184  0.73440  0.19444  1.0000
  H   H91       1.0  0.78381  0.74353  0.13513  1.0000
  H   H92       1.0  0.78385  0.71345  0.19706  1.0000
  N   N74       1.0  0.76847  0.79083  0.17782  1.0000
  H   H93       1.0  0.76031  0.80702  0.16378  1.0000
  H   H94       1.0  0.78808  0.79386  0.14213  1.0000
  N   N75       1.0  0.72127  0.79348  0.29760  1.0000
  H   H95       1.0  0.73802  0.81745  0.28026  1.0000
  C   C96       1.0  0.72173  0.96121  0.31430  1.0000
  C   C97       1.0  0.72356  0.98641  0.25184  1.0000
  C   C98       1.0  0.74948  0.52238  0.26387  1.0000
  N   N76       1.0  0.75827  0.54590  0.19552  1.0000
  H   H96       1.0  0.74896  0.53886  0.13633  1.0000
  H   H97       1.0  0.77909  0.56899  0.19792  1.0000
  N   N77       1.0  0.70196  0.97603  0.17919  1.0000
  H   H98       1.0  0.68585  0.95165  0.16519  1.0000
  H   H99       1.0  0.69890  0.99253  0.14330  1.0000
  N   N78       1.0  0.69931  0.92635  0.29955  1.0000
  H   H100      1.0  0.67536  0.91913  0.28196  1.0000
  C   C99       1.0  0.53160  0.75905  0.31229  1.0000
  C   C100      1.0  0.50643  0.73586  0.24951  1.0000
  C   C101      1.0  0.97045  0.72582  0.26153  1.0000
  N   N79       1.0  0.94694  0.71117  0.19310  1.0000
  H   H101      1.0  0.95415  0.70930  0.13379  1.0000
  H   H102      1.0  0.92391  0.70900  0.19573  1.0000
  N   N80       1.0  0.51683  0.72478  0.17664  1.0000
  H   H103      1.0  0.54121  0.73303  0.16281  1.0000
  H   H104      1.0  0.50034  0.70529  0.14051  1.0000
  N   N81       1.0  0.56647  0.77153  0.29759  1.0000
  H   H105      1.0  0.57370  0.75485  0.27972  1.0000
  N   N82       1.0  0.65044  0.85328  0.29055  1.0000
  C   C102      1.0  0.68556  0.86579  0.29016  1.0000
  N   N83       1.0  0.69708  0.84240  0.29024  1.0000
  C   C103      1.0  0.67448  0.80729  0.28925  1.0000
  N   N84       1.0  0.63957  0.79577  0.28968  1.0000
  C   C104      1.0  0.70957  0.90181  0.29702  1.0000
  C   C105      1.0  0.68648  0.78326  0.29538  1.0000
  C   C106      1.0  0.59102  0.80633  0.29588  1.0000
  O   O19       1.0  0.66200  0.74870  0.30115  1.0000
  O   O20       1.0  0.58094  0.83080  0.30234  1.0000
  O   O21       1.0  0.74412  0.91188  0.30301  1.0000
  N   N85       1.0  0.84106  0.64112  0.36504  1.0000
  C   C107      1.0  0.80593  0.62851  0.36608  1.0000
  N   N86       1.0  0.79429  0.65180  0.36561  1.0000
  C   C108      1.0  0.81681  0.68693  0.36566  1.0000
  N   N87       1.0  0.85174  0.69857  0.36467  1.0000
  C   C109      1.0  0.78200  0.59244  0.36013  1.0000
  C   C110      1.0  0.80468  0.71086  0.35924  1.0000
  C   C111      1.0  0.90040  0.68818  0.35812  1.0000
  O   O22       1.0  0.82908  0.74543  0.35284  1.0000
  O   O23       1.0  0.91056  0.66377  0.35184  1.0000
  O   O24       1.0  0.74741  0.58224  0.35441  1.0000
  C   C112      1.0  0.75727  0.72279  0.34208  1.0000
  C   C113      1.0  0.73382  0.72463  0.40426  1.0000
  C   C114      1.0  0.72382  0.75058  0.39201  1.0000
  N   N88       1.0  0.72244  0.70300  0.47682  1.0000
  H   H106      1.0  0.73059  0.68681  0.49089  1.0000
  H   H107      1.0  0.70279  0.69993  0.51238  1.0000
  N   N89       1.0  0.70906  0.75942  0.46023  1.0000
  H   H108      1.0  0.70695  0.78031  0.45768  1.0000
  H   H109      1.0  0.70709  0.75026  0.51952  1.0000
  N   N90       1.0  0.76987  0.70053  0.35735  1.0000
  H   H110      1.0  0.75321  0.67657  0.37498  1.0000
  C   C115      1.0  0.77005  0.53309  0.34309  1.0000
  C   C116      1.0  0.76828  0.50789  0.40545  1.0000
  C   C117      1.0  0.74234  0.97192  0.39347  1.0000
  N   N91       1.0  0.78994  0.51826  0.47796  1.0000
  H   H111      1.0  0.80612  0.54264  0.49180  1.0000
  H   H112      1.0  0.79303  0.50175  0.51375  1.0000
  N   N92       1.0  0.73361  0.94839  0.46182  1.0000
  H   H113      1.0  0.71273  0.92535  0.45938  1.0000
  H   H114      1.0  0.74288  0.95549  0.52101  1.0000
  N   N93       1.0  0.79235  0.56796  0.35801  1.0000
  H   H115      1.0  0.81634  0.57529  0.37534  1.0000
  C   C118      1.0  0.95972  0.73550  0.34101  1.0000
  C   C119      1.0  0.98489  0.75869  0.40378  1.0000
  C   C120      1.0  0.52085  0.76870  0.39179  1.0000
  N   N94       1.0  0.97449  0.76976  0.47666  1.0000
  H   H116      1.0  0.95012  0.76153  0.49055  1.0000
  H   H117      1.0  0.99099  0.78922  0.51284  1.0000
  N   N95       1.0  0.54433  0.78319  0.46032  1.0000
  H   H118      1.0  0.56742  0.78549  0.45789  1.0000
  H   H119      1.0  0.53721  0.78527  0.51960  1.0000
  N   N96       1.0  0.92486  0.72300  0.35577  1.0000
  H   H120      1.0  0.91759  0.73965  0.37368  1.0000
