data_image0
_chemical_formula_structural       C2NC5HC3NC5HC3HC4NC4HC4NC2HCNCNOCHC3NOCH2C8H5NC2NOCH2CNOCHC3HCN2CNOCHC4NOCHCHC7HCH4NC2NOCH2C3NOCHCH2CNC3NOCHCHC2NOCH2C12H5N2C3NOCHCHCNOCHC3HCN2C3NOCHCHC3NOCHCHC11HCH4N2C3NOCHCHC3NOCHCH
_chemical_formula_sum              "C144 N32 H56 O16"
_cell_length_a       31.7816
_cell_length_b       31.7816
_cell_length_c       14.8701
_cell_angle_alpha    90
_cell_angle_beta     90
_cell_angle_gamma    90

_space_group_name_H-M_alt    "P 1"
_space_group_IT_number       1

loop_
  _space_group_symop_operation_xyz
  'x, y, z'

loop_
  _atom_site_type_symbol
  _atom_site_label
  _atom_site_symmetry_multiplicity
  _atom_site_fract_x
  _atom_site_fract_y
  _atom_site_fract_z
  _atom_site_occupancy
  C   C1        1.0  0.48833  0.02041  0.34316  1.0000
  C   C2        1.0  0.41298  0.04074  0.35111  1.0000
  N   N1        1.0  0.37035  0.03575  0.34535  1.0000
  C   C3        1.0  0.29965  0.00606  0.32731  1.0000
  C   C4        1.0  0.34359  0.00599  0.31365  1.0000
  C   C5        1.0  0.07381  0.04285  0.33817  1.0000
  C   C6        1.0  0.23462  0.03465  0.39451  1.0000
  C   C7        1.0  0.27818  0.03608  0.38051  1.0000
  H   H1        1.0  0.15301  0.02544  0.41107  1.0000
  C   C8        1.0  0.44477  0.00914  0.34489  1.0000
  C   C9        1.0  0.98833  0.02041  0.34316  1.0000
  C   C10       1.0  0.91298  0.04074  0.35111  1.0000
  N   N2        1.0  0.87035  0.03575  0.34535  1.0000
  C   C11       1.0  0.79965  0.00606  0.32731  1.0000
  C   C12       1.0  0.84359  0.00599  0.31365  1.0000
  C   C13       1.0  0.57381  0.04285  0.33817  1.0000
  C   C14       1.0  0.73462  0.03465  0.39451  1.0000
  C   C15       1.0  0.77818  0.03608  0.38051  1.0000
  H   H2        1.0  0.65301  0.02544  0.41107  1.0000
  C   C16       1.0  0.94477  0.00914  0.34489  1.0000
  C   C17       1.0  0.03465  0.23462  0.28918  1.0000
  C   C18       1.0  0.03608  0.27818  0.30318  1.0000
  H   H3        1.0  0.02544  0.15301  0.27260  1.0000
  C   C19       1.0  0.04285  0.07381  0.34553  1.0000
  C   C20       1.0  0.02040  0.48833  0.34056  1.0000
  C   C21       1.0  0.00912  0.44477  0.33883  1.0000
  C   C22       1.0  0.04073  0.41298  0.33255  1.0000
  N   N3        1.0  0.03573  0.37035  0.33832  1.0000
  C   C23       1.0  0.00605  0.29966  0.35636  1.0000
  C   C24       1.0  0.00597  0.34360  0.37000  1.0000
  C   C25       1.0  0.03465  0.73462  0.28918  1.0000
  C   C26       1.0  0.03608  0.77819  0.30318  1.0000
  H   H4        1.0  0.02544  0.65301  0.27260  1.0000
  C   C27       1.0  0.04285  0.57381  0.34553  1.0000
  C   C28       1.0  0.02040  0.98833  0.34056  1.0000
  C   C29       1.0  0.00912  0.94477  0.33883  1.0000
  C   C30       1.0  0.04073  0.91298  0.33255  1.0000
  N   N4        1.0  0.03573  0.87035  0.33832  1.0000
  C   C31       1.0  0.00605  0.79966  0.35636  1.0000
  C   C32       1.0  0.00597  0.84360  0.37000  1.0000
  H   H5        1.0  0.40288  0.10588  0.36378  1.0000
  C   C33       1.0  0.06396  0.99960  0.33882  1.0000
  N   N5        1.0  0.13838  0.47299  0.33836  1.0000
  C   C34       1.0  0.00269  0.20908  0.32731  1.0000
  N   N6        1.0  0.06931  0.29262  0.25816  1.0000
  O   O1        1.0  0.06711  0.22153  0.23610  1.0000
  C   C35       1.0  0.08695  0.25887  0.21934  1.0000
  H   H6        1.0  0.11333  0.26090  0.18039  1.0000
  C   C36       1.0  0.00276  0.16514  0.31364  1.0000
  C   C37       1.0  0.27411  0.97409  0.28916  1.0000
  C   C38       1.0  0.23055  0.97267  0.30317  1.0000
  N   N7        1.0  0.21611  0.93944  0.25813  1.0000
  O   O2        1.0  0.28720  0.94165  0.23606  1.0000
  C   C39       1.0  0.24986  0.92181  0.21926  1.0000
  H   H7        1.0  0.24784  0.89541  0.18037  1.0000
  H   H8        1.0  0.35571  0.98330  0.27261  1.0000
  C   C40       1.0  0.44477  0.50914  0.34489  1.0000
  C   C41       1.0  0.42570  0.08303  0.36092  1.0000
  C   C42       1.0  0.46799  0.09575  0.35103  1.0000
  C   C43       1.0  0.49960  0.06396  0.34487  1.0000
  C   C44       1.0  0.43492  0.46588  0.34558  1.0000
  C   C45       1.0  0.08302  0.42571  0.32273  1.0000
  C   C46       1.0  0.09575  0.46799  0.33261  1.0000
  C   C47       1.0  0.46588  0.43492  0.33825  1.0000
  H   H9        1.0  0.10587  0.40288  0.31984  1.0000
  H   H10       1.0  0.45539  0.40504  0.32925  1.0000
  H   H11       1.0  0.40502  0.45541  0.35437  1.0000
  H   H12       1.0  0.10370  0.05333  0.32931  1.0000
  H   H13       1.0  0.05333  0.10370  0.35437  1.0000
  N   N8        1.0  0.47299  0.13839  0.34531  1.0000
  C   C48       1.0  0.97408  0.27411  0.39448  1.0000
  C   C49       1.0  0.97265  0.23055  0.38049  1.0000
  N   N9        1.0  0.93943  0.21611  0.42550  1.0000
  O   O3        1.0  0.94162  0.28720  0.44756  1.0000
  C   C50       1.0  0.92179  0.24986  0.46435  1.0000
  H   H14       1.0  0.89538  0.24784  0.50323  1.0000
  H   H15       1.0  0.98328  0.35572  0.41102  1.0000
  C   C51       1.0  0.20907  0.00269  0.35636  1.0000
  N   N10       1.0  0.29262  0.06930  0.42556  1.0000
  O   O4        1.0  0.22153  0.06710  0.44762  1.0000
  C   C52       1.0  0.25887  0.08693  0.46442  1.0000
  H   H16       1.0  0.26088  0.11333  0.50331  1.0000
  C   C53       1.0  0.16514  0.00274  0.37007  1.0000
  C   C54       1.0  0.48833  0.52041  0.34316  1.0000
  C   C55       1.0  0.41298  0.54074  0.35111  1.0000
  H   H17       1.0  0.40288  0.60588  0.36378  1.0000
  C   C56       1.0  0.06396  0.49960  0.33882  1.0000
  N   N11       1.0  0.37035  0.53575  0.34535  1.0000
  N   N12       1.0  0.13838  0.97299  0.33836  1.0000
  C   C57       1.0  0.00269  0.70908  0.32731  1.0000
  N   N13       1.0  0.06931  0.79262  0.25816  1.0000
  O   O5        1.0  0.06711  0.72153  0.23610  1.0000
  C   C58       1.0  0.08695  0.75887  0.21934  1.0000
  H   H18       1.0  0.11333  0.76090  0.18039  1.0000
  C   C59       1.0  0.00276  0.66514  0.31364  1.0000
  C   C60       1.0  0.29965  0.50606  0.32731  1.0000
  C   C61       1.0  0.27411  0.47409  0.28916  1.0000
  C   C62       1.0  0.23055  0.47266  0.30317  1.0000
  N   N14       1.0  0.21611  0.43944  0.25813  1.0000
  O   O6        1.0  0.28720  0.44165  0.23606  1.0000
  C   C63       1.0  0.24986  0.42182  0.21926  1.0000
  H   H19       1.0  0.24784  0.39541  0.18037  1.0000
  C   C64       1.0  0.34359  0.50599  0.31365  1.0000
  H   H20       1.0  0.35571  0.48330  0.27261  1.0000
  C   C65       1.0  0.42570  0.58303  0.36092  1.0000
  C   C66       1.0  0.46799  0.59576  0.35103  1.0000
  C   C67       1.0  0.49960  0.56397  0.34487  1.0000
  C   C68       1.0  0.43492  0.96588  0.34558  1.0000
  C   C69       1.0  0.08302  0.92570  0.32273  1.0000
  C   C70       1.0  0.09575  0.96799  0.33261  1.0000
  C   C71       1.0  0.46588  0.93492  0.33825  1.0000
  H   H21       1.0  0.10587  0.90288  0.31984  1.0000
  C   C72       1.0  0.07381  0.54285  0.33817  1.0000
  H   H22       1.0  0.45539  0.90504  0.32925  1.0000
  H   H23       1.0  0.40502  0.95541  0.35437  1.0000
  H   H24       1.0  0.10370  0.55333  0.32931  1.0000
  H   H25       1.0  0.05333  0.60370  0.35437  1.0000
  N   N15       1.0  0.47299  0.63838  0.34531  1.0000
  C   C73       1.0  0.97408  0.77411  0.39448  1.0000
  C   C74       1.0  0.97265  0.73055  0.38049  1.0000
  N   N16       1.0  0.93943  0.71611  0.42550  1.0000
  O   O7        1.0  0.94162  0.78720  0.44756  1.0000
  C   C75       1.0  0.92179  0.74986  0.46435  1.0000
  H   H26       1.0  0.89538  0.74784  0.50323  1.0000
  H   H27       1.0  0.98328  0.85572  0.41102  1.0000
  C   C76       1.0  0.20907  0.50269  0.35636  1.0000
  C   C77       1.0  0.23462  0.53465  0.39451  1.0000
  C   C78       1.0  0.27818  0.53608  0.38051  1.0000
  N   N17       1.0  0.29262  0.56930  0.42556  1.0000
  O   O8        1.0  0.22153  0.56710  0.44762  1.0000
  C   C79       1.0  0.25887  0.58693  0.46442  1.0000
  H   H28       1.0  0.26088  0.61333  0.50331  1.0000
  C   C80       1.0  0.16514  0.50274  0.37007  1.0000
  H   H29       1.0  0.15301  0.52544  0.41107  1.0000
  H   H30       1.0  0.90288  0.10588  0.36378  1.0000
  C   C81       1.0  0.56396  0.99960  0.33882  1.0000
  N   N18       1.0  0.63838  0.47299  0.33836  1.0000
  C   C82       1.0  0.50269  0.20908  0.32731  1.0000
  C   C83       1.0  0.53465  0.23462  0.28918  1.0000
  C   C84       1.0  0.53608  0.27818  0.30318  1.0000
  N   N19       1.0  0.56931  0.29262  0.25816  1.0000
  O   O9        1.0  0.56711  0.22153  0.23610  1.0000
  C   C85       1.0  0.58695  0.25887  0.21934  1.0000
  H   H31       1.0  0.61333  0.26090  0.18039  1.0000
  C   C86       1.0  0.50276  0.16514  0.31364  1.0000
  H   H32       1.0  0.52545  0.15301  0.27260  1.0000
  C   C87       1.0  0.77411  0.97409  0.28916  1.0000
  C   C88       1.0  0.73055  0.97267  0.30317  1.0000
  N   N20       1.0  0.71611  0.93944  0.25813  1.0000
  O   O10       1.0  0.78720  0.94165  0.23606  1.0000
  C   C89       1.0  0.74986  0.92181  0.21926  1.0000
  H   H33       1.0  0.74784  0.89541  0.18037  1.0000
  H   H34       1.0  0.85571  0.98330  0.27261  1.0000
  C   C90       1.0  0.94477  0.50914  0.34489  1.0000
  C   C91       1.0  0.92570  0.08303  0.36092  1.0000
  C   C92       1.0  0.96799  0.09575  0.35103  1.0000
  C   C93       1.0  0.99960  0.06396  0.34487  1.0000
  C   C94       1.0  0.93492  0.46588  0.34558  1.0000
  C   C95       1.0  0.54285  0.07381  0.34553  1.0000
  C   C96       1.0  0.52040  0.48833  0.34056  1.0000
  C   C97       1.0  0.50912  0.44477  0.33883  1.0000
  C   C98       1.0  0.54073  0.41298  0.33255  1.0000
  C   C99       1.0  0.58302  0.42571  0.32273  1.0000
  C   C100      1.0  0.59575  0.46799  0.33261  1.0000
  C   C101      1.0  0.96588  0.43492  0.33825  1.0000
  H   H35       1.0  0.60587  0.40288  0.31984  1.0000
  H   H36       1.0  0.95539  0.40504  0.32925  1.0000
  H   H37       1.0  0.90503  0.45541  0.35437  1.0000
  H   H38       1.0  0.60370  0.05333  0.32931  1.0000
  H   H39       1.0  0.55333  0.10370  0.35437  1.0000
  N   N21       1.0  0.97300  0.13839  0.34531  1.0000
  N   N22       1.0  0.53573  0.37035  0.33832  1.0000
  C   C102      1.0  0.50605  0.29966  0.35636  1.0000
  C   C103      1.0  0.47408  0.27411  0.39448  1.0000
  C   C104      1.0  0.47265  0.23055  0.38049  1.0000
  N   N23       1.0  0.43943  0.21611  0.42550  1.0000
  O   O11       1.0  0.44162  0.28720  0.44756  1.0000
  C   C105      1.0  0.42179  0.24986  0.46435  1.0000
  H   H40       1.0  0.39538  0.24784  0.50323  1.0000
  C   C106      1.0  0.50597  0.34360  0.37000  1.0000
  H   H41       1.0  0.48328  0.35572  0.41102  1.0000
  C   C107      1.0  0.70907  0.00269  0.35636  1.0000
  N   N24       1.0  0.79261  0.06930  0.42556  1.0000
  O   O12       1.0  0.72153  0.06710  0.44762  1.0000
  C   C108      1.0  0.75887  0.08693  0.46442  1.0000
  H   H42       1.0  0.76089  0.11333  0.50331  1.0000
  C   C109      1.0  0.66514  0.00274  0.37007  1.0000
  C   C110      1.0  0.98833  0.52041  0.34316  1.0000
  C   C111      1.0  0.91298  0.54074  0.35111  1.0000
  H   H43       1.0  0.90288  0.60588  0.36378  1.0000
  C   C112      1.0  0.56396  0.49960  0.33882  1.0000
  N   N25       1.0  0.87035  0.53575  0.34535  1.0000
  N   N26       1.0  0.63838  0.97299  0.33836  1.0000
  C   C113      1.0  0.50269  0.70908  0.32731  1.0000
  C   C114      1.0  0.53465  0.73462  0.28918  1.0000
  C   C115      1.0  0.53608  0.77819  0.30318  1.0000
  N   N27       1.0  0.56931  0.79262  0.25816  1.0000
  O   O13       1.0  0.56711  0.72153  0.23610  1.0000
  C   C116      1.0  0.58695  0.75887  0.21934  1.0000
  H   H44       1.0  0.61333  0.76090  0.18039  1.0000
  C   C117      1.0  0.50276  0.66514  0.31364  1.0000
  H   H45       1.0  0.52545  0.65301  0.27260  1.0000
  C   C118      1.0  0.79965  0.50606  0.32731  1.0000
  C   C119      1.0  0.77411  0.47409  0.28916  1.0000
  C   C120      1.0  0.73055  0.47266  0.30317  1.0000
  N   N28       1.0  0.71611  0.43944  0.25813  1.0000
  O   O14       1.0  0.78720  0.44165  0.23606  1.0000
  C   C121      1.0  0.74986  0.42182  0.21926  1.0000
  H   H46       1.0  0.74784  0.39541  0.18037  1.0000
  C   C122      1.0  0.84359  0.50599  0.31365  1.0000
  H   H47       1.0  0.85571  0.48330  0.27261  1.0000
  C   C123      1.0  0.92570  0.58303  0.36092  1.0000
  C   C124      1.0  0.96799  0.59576  0.35103  1.0000
  C   C125      1.0  0.99960  0.56397  0.34487  1.0000
  C   C126      1.0  0.93492  0.96588  0.34558  1.0000
  C   C127      1.0  0.54285  0.57381  0.34553  1.0000
  C   C128      1.0  0.52040  0.98833  0.34056  1.0000
  C   C129      1.0  0.50912  0.94477  0.33883  1.0000
  C   C130      1.0  0.54073  0.91298  0.33255  1.0000
  C   C131      1.0  0.58302  0.92570  0.32273  1.0000
  C   C132      1.0  0.59575  0.96799  0.33261  1.0000
  C   C133      1.0  0.96588  0.93492  0.33825  1.0000
  H   H48       1.0  0.60587  0.90288  0.31984  1.0000
  C   C134      1.0  0.57381  0.54285  0.33817  1.0000
  H   H49       1.0  0.95539  0.90504  0.32925  1.0000
  H   H50       1.0  0.90503  0.95541  0.35437  1.0000
  H   H51       1.0  0.60370  0.55333  0.32931  1.0000
  H   H52       1.0  0.55333  0.60370  0.35437  1.0000
  N   N29       1.0  0.97300  0.63838  0.34531  1.0000
  N   N30       1.0  0.53573  0.87035  0.33832  1.0000
  C   C135      1.0  0.50605  0.79966  0.35636  1.0000
  C   C136      1.0  0.47408  0.77411  0.39448  1.0000
  C   C137      1.0  0.47265  0.73055  0.38049  1.0000
  N   N31       1.0  0.43943  0.71611  0.42550  1.0000
  O   O15       1.0  0.44162  0.78720  0.44756  1.0000
  C   C138      1.0  0.42179  0.74986  0.46435  1.0000
  H   H53       1.0  0.39538  0.74784  0.50323  1.0000
  C   C139      1.0  0.50597  0.84360  0.37000  1.0000
  H   H54       1.0  0.48328  0.85572  0.41102  1.0000
  C   C140      1.0  0.70907  0.50269  0.35636  1.0000
  C   C141      1.0  0.73462  0.53465  0.39451  1.0000
  C   C142      1.0  0.77818  0.53608  0.38051  1.0000
  N   N32       1.0  0.79261  0.56930  0.42556  1.0000
  O   O16       1.0  0.72153  0.56710  0.44762  1.0000
  C   C143      1.0  0.75887  0.58693  0.46442  1.0000
  H   H55       1.0  0.76089  0.61333  0.50331  1.0000
  C   C144      1.0  0.66514  0.50274  0.37007  1.0000
  H   H56       1.0  0.65301  0.52544  0.41107  1.0000
