data_image0
_chemical_formula_structural       C4NHNHC2NHNHC2NHNHNCNCNC3O3NCNCNC3O3CNCHNHCNCHNHCNCHNHC4NHNHC2NHNHC2NHNHNCNCNC3O3NCNCNC3O3CNCHNHCNCHNHCNCHNHC4NHNHC2NHNHC2NHNHNCNCNC3O3NCNCNC3O3CNCHNHCNCHNHCNCHNHC4NHNHC2NHNHC2NHNHNCNCNC3O3NCNCNC3O3CNCHNHCNCHNHCNCHNH
_chemical_formula_sum              "C96 N72 H48 O24"
_cell_length_a       43.2202
_cell_length_b       43.2202
_cell_length_c       15.0568
_cell_angle_alpha    90
_cell_angle_beta     90
_cell_angle_gamma    120

_space_group_name_H-M_alt    "P 1"
_space_group_IT_number       1

loop_
  _space_group_symop_operation_xyz
  'x, y, z'

loop_
  _atom_site_type_symbol
  _atom_site_label
  _atom_site_symmetry_multiplicity
  _atom_site_fract_x
  _atom_site_fract_y
  _atom_site_fract_z
  _atom_site_occupancy
  C   C1        1.0  0.12793  0.32002  0.24386  1.0000
  C   C2        1.0  0.36640  0.17621  0.41535  1.0000
  C   C3        1.0  0.23396  0.26965  0.29563  1.0000
  C   C4        1.0  0.27090  0.28329  0.30926  1.0000
  N   N1        1.0  0.28234  0.26152  0.34189  1.0000
  H   H1        1.0  0.28926  0.30931  0.29536  1.0000
  N   N2        1.0  0.22133  0.29114  0.26653  1.0000
  H   H2        1.0  0.23911  0.31627  0.25792  1.0000
  C   C5        1.0  0.22565  0.46338  0.29556  1.0000
  C   C6        1.0  0.21202  0.48669  0.30909  1.0000
  N   N3        1.0  0.23379  0.01990  0.34165  1.0000
  H   H3        1.0  0.18599  0.47902  0.29519  1.0000
  N   N4        1.0  0.20416  0.42925  0.26652  1.0000
  H   H4        1.0  0.17902  0.42189  0.25793  1.0000
  C   C7        1.0  0.03190  0.26131  0.29560  1.0000
  C   C8        1.0  0.00859  0.22437  0.30916  1.0000
  N   N5        1.0  0.47538  0.21293  0.34178  1.0000
  H   H5        1.0  0.01626  0.20601  0.29525  1.0000
  N   N6        1.0  0.06603  0.27395  0.26657  1.0000
  H   H6        1.0  0.07339  0.25617  0.25798  1.0000
  N   N7        1.0  0.15266  0.35538  0.24445  1.0000
  C   C9        1.0  0.18832  0.36734  0.24383  1.0000
  N   N8        1.0  0.19895  0.34262  0.24438  1.0000
  C   C10       1.0  0.17527  0.30696  0.24378  1.0000
  N   N9        1.0  0.13990  0.29633  0.24442  1.0000
  C   C11       1.0  0.21368  0.40381  0.25415  1.0000
  C   C12       1.0  0.18637  0.28160  0.25407  1.0000
  C   C13       1.0  0.09147  0.30891  0.25422  1.0000
  O   O1        1.0  0.16017  0.24689  0.25960  1.0000
  O   O2        1.0  0.08293  0.33509  0.25956  1.0000
  O   O3        1.0  0.24840  0.41235  0.25946  1.0000
  N   N10       1.0  0.34168  0.14085  0.41467  1.0000
  C   C14       1.0  0.30602  0.12888  0.41523  1.0000
  N   N11       1.0  0.29538  0.15361  0.41471  1.0000
  C   C15       1.0  0.31907  0.18927  0.41537  1.0000
  N   N12       1.0  0.35444  0.19990  0.41480  1.0000
  C   C16       1.0  0.28067  0.09241  0.40488  1.0000
  C   C17       1.0  0.30796  0.21463  0.40513  1.0000
  C   C18       1.0  0.40287  0.18732  0.40506  1.0000
  O   O4        1.0  0.33415  0.24934  0.39974  1.0000
  O   O5        1.0  0.41138  0.16112  0.39947  1.0000
  O   O6        1.0  0.24596  0.08388  0.39947  1.0000
  C   C19       1.0  0.22343  0.21294  0.35000  1.0000
  N   N13       1.0  0.21199  0.23471  0.31737  1.0000
  C   C20       1.0  0.26037  0.22658  0.36359  1.0000
  H   H7        1.0  0.20507  0.18693  0.36393  1.0000
  N   N14       1.0  0.27300  0.20509  0.39270  1.0000
  H   H8        1.0  0.25522  0.17996  0.40127  1.0000
  C   C21       1.0  0.28236  0.00956  0.34981  1.0000
  N   N15       1.0  0.26059  0.47634  0.31725  1.0000
  C   C22       1.0  0.26873  0.03287  0.36335  1.0000
  H   H9        1.0  0.30839  0.01723  0.36372  1.0000
  N   N16       1.0  0.29022  0.06699  0.39245  1.0000
  H   H10       1.0  0.31535  0.07436  0.40104  1.0000
  C   C23       1.0  0.48573  0.27185  0.34996  1.0000
  N   N17       1.0  0.01895  0.28329  0.31737  1.0000
  C   C24       1.0  0.46242  0.23491  0.36351  1.0000
  H   H11       1.0  0.47808  0.29020  0.36393  1.0000
  N   N18       1.0  0.42831  0.22228  0.39264  1.0000
  H   H12       1.0  0.42096  0.24006  0.40126  1.0000
  C   C25       1.0  0.12793  0.82002  0.24386  1.0000
  C   C26       1.0  0.36641  0.67621  0.41535  1.0000
  C   C27       1.0  0.23397  0.76965  0.29563  1.0000
  C   C28       1.0  0.27090  0.78329  0.30926  1.0000
  N   N19       1.0  0.28234  0.76152  0.34189  1.0000
  H   H13       1.0  0.28926  0.80931  0.29536  1.0000
  N   N20       1.0  0.22133  0.79114  0.26653  1.0000
  H   H14       1.0  0.23911  0.81627  0.25792  1.0000
  C   C29       1.0  0.22565  0.96338  0.29556  1.0000
  C   C30       1.0  0.21202  0.98669  0.30909  1.0000
  N   N21       1.0  0.23379  0.51990  0.34165  1.0000
  H   H15       1.0  0.18599  0.97902  0.29519  1.0000
  N   N22       1.0  0.20416  0.92925  0.26652  1.0000
  H   H16       1.0  0.17902  0.92189  0.25793  1.0000
  C   C31       1.0  0.03190  0.76131  0.29560  1.0000
  C   C32       1.0  0.00859  0.72437  0.30916  1.0000
  N   N23       1.0  0.47538  0.71293  0.34178  1.0000
  H   H17       1.0  0.01626  0.70601  0.29525  1.0000
  N   N24       1.0  0.06603  0.77395  0.26657  1.0000
  H   H18       1.0  0.07339  0.75616  0.25798  1.0000
  N   N25       1.0  0.15266  0.85538  0.24445  1.0000
  C   C33       1.0  0.18832  0.86734  0.24383  1.0000
  N   N26       1.0  0.19895  0.84262  0.24438  1.0000
  C   C34       1.0  0.17527  0.80696  0.24378  1.0000
  N   N27       1.0  0.13990  0.79633  0.24442  1.0000
  C   C35       1.0  0.21368  0.90381  0.25415  1.0000
  C   C36       1.0  0.18637  0.78160  0.25407  1.0000
  C   C37       1.0  0.09147  0.80891  0.25422  1.0000
  O   O7        1.0  0.16017  0.74689  0.25960  1.0000
  O   O8        1.0  0.08293  0.83509  0.25956  1.0000
  O   O9        1.0  0.24840  0.91235  0.25946  1.0000
  N   N28       1.0  0.34168  0.64085  0.41467  1.0000
  C   C38       1.0  0.30602  0.62888  0.41523  1.0000
  N   N29       1.0  0.29538  0.65361  0.41471  1.0000
  C   C39       1.0  0.31908  0.68926  0.41537  1.0000
  N   N30       1.0  0.35444  0.69990  0.41480  1.0000
  C   C40       1.0  0.28067  0.59241  0.40488  1.0000
  C   C41       1.0  0.30796  0.71462  0.40513  1.0000
  C   C42       1.0  0.40287  0.68732  0.40506  1.0000
  O   O10       1.0  0.33415  0.74934  0.39974  1.0000
  O   O11       1.0  0.41138  0.66112  0.39947  1.0000
  O   O12       1.0  0.24596  0.58388  0.39947  1.0000
  C   C43       1.0  0.22343  0.71294  0.35000  1.0000
  N   N31       1.0  0.21199  0.73472  0.31737  1.0000
  C   C44       1.0  0.26037  0.72658  0.36359  1.0000
  H   H19       1.0  0.20507  0.68693  0.36393  1.0000
  N   N32       1.0  0.27300  0.70509  0.39270  1.0000
  H   H20       1.0  0.25522  0.67996  0.40127  1.0000
  C   C45       1.0  0.28236  0.50956  0.34981  1.0000
  N   N33       1.0  0.26059  0.97634  0.31725  1.0000
  C   C46       1.0  0.26873  0.53287  0.36335  1.0000
  H   H21       1.0  0.30839  0.51723  0.36372  1.0000
  N   N34       1.0  0.29022  0.56699  0.39245  1.0000
  H   H22       1.0  0.31535  0.57436  0.40104  1.0000
  C   C47       1.0  0.48573  0.77185  0.34996  1.0000
  N   N35       1.0  0.01895  0.78329  0.31737  1.0000
  C   C48       1.0  0.46242  0.73490  0.36351  1.0000
  H   H23       1.0  0.47808  0.79021  0.36393  1.0000
  N   N36       1.0  0.42831  0.72228  0.39264  1.0000
  H   H24       1.0  0.42096  0.74006  0.40126  1.0000
  C   C49       1.0  0.62793  0.32002  0.24386  1.0000
  C   C50       1.0  0.86640  0.17621  0.41535  1.0000
  C   C51       1.0  0.73396  0.26965  0.29563  1.0000
  C   C52       1.0  0.77090  0.28329  0.30926  1.0000
  N   N37       1.0  0.78234  0.26152  0.34189  1.0000
  H   H25       1.0  0.78926  0.30931  0.29536  1.0000
  N   N38       1.0  0.72133  0.29114  0.26653  1.0000
  H   H26       1.0  0.73911  0.31627  0.25792  1.0000
  C   C53       1.0  0.72565  0.46338  0.29556  1.0000
  C   C54       1.0  0.71202  0.48669  0.30909  1.0000
  N   N39       1.0  0.73379  0.01990  0.34165  1.0000
  H   H27       1.0  0.68599  0.47902  0.29519  1.0000
  N   N40       1.0  0.70415  0.42925  0.26652  1.0000
  H   H28       1.0  0.67902  0.42189  0.25793  1.0000
  C   C55       1.0  0.53190  0.26131  0.29560  1.0000
  C   C56       1.0  0.50859  0.22437  0.30916  1.0000
  N   N41       1.0  0.97538  0.21293  0.34178  1.0000
  H   H29       1.0  0.51626  0.20601  0.29525  1.0000
  N   N42       1.0  0.56603  0.27395  0.26657  1.0000
  H   H30       1.0  0.57339  0.25617  0.25798  1.0000
  N   N43       1.0  0.65266  0.35538  0.24445  1.0000
  C   C57       1.0  0.68832  0.36734  0.24383  1.0000
  N   N44       1.0  0.69895  0.34262  0.24438  1.0000
  C   C58       1.0  0.67527  0.30696  0.24378  1.0000
  N   N45       1.0  0.63990  0.29633  0.24442  1.0000
  C   C59       1.0  0.71368  0.40381  0.25415  1.0000
  C   C60       1.0  0.68637  0.28160  0.25407  1.0000
  C   C61       1.0  0.59147  0.30891  0.25422  1.0000
  O   O13       1.0  0.66017  0.24689  0.25960  1.0000
  O   O14       1.0  0.58293  0.33509  0.25956  1.0000
  O   O15       1.0  0.74840  0.41235  0.25946  1.0000
  N   N46       1.0  0.84168  0.14085  0.41467  1.0000
  C   C62       1.0  0.80602  0.12888  0.41523  1.0000
  N   N47       1.0  0.79538  0.15361  0.41471  1.0000
  C   C63       1.0  0.81908  0.18927  0.41537  1.0000
  N   N48       1.0  0.85444  0.19990  0.41480  1.0000
  C   C64       1.0  0.78067  0.09241  0.40488  1.0000
  C   C65       1.0  0.80796  0.21463  0.40513  1.0000
  C   C66       1.0  0.90287  0.18732  0.40506  1.0000
  O   O16       1.0  0.83415  0.24934  0.39974  1.0000
  O   O17       1.0  0.91138  0.16112  0.39947  1.0000
  O   O18       1.0  0.74595  0.08388  0.39947  1.0000
  C   C67       1.0  0.72343  0.21294  0.35000  1.0000
  N   N49       1.0  0.71199  0.23471  0.31737  1.0000
  C   C68       1.0  0.76037  0.22658  0.36359  1.0000
  H   H31       1.0  0.70507  0.18693  0.36393  1.0000
  N   N50       1.0  0.77300  0.20509  0.39270  1.0000
  H   H32       1.0  0.75522  0.17996  0.40127  1.0000
  C   C69       1.0  0.78236  0.00956  0.34981  1.0000
  N   N51       1.0  0.76059  0.47634  0.31725  1.0000
  C   C70       1.0  0.76873  0.03287  0.36335  1.0000
  H   H33       1.0  0.80838  0.01723  0.36372  1.0000
  N   N52       1.0  0.79022  0.06699  0.39245  1.0000
  H   H34       1.0  0.81535  0.07436  0.40104  1.0000
  C   C71       1.0  0.98574  0.27185  0.34996  1.0000
  N   N53       1.0  0.51895  0.28329  0.31737  1.0000
  C   C72       1.0  0.96242  0.23491  0.36351  1.0000
  H   H35       1.0  0.97808  0.29020  0.36393  1.0000
  N   N54       1.0  0.92831  0.22228  0.39264  1.0000
  H   H36       1.0  0.92096  0.24006  0.40126  1.0000
  C   C73       1.0  0.62793  0.82002  0.24386  1.0000
  C   C74       1.0  0.86641  0.67621  0.41535  1.0000
  C   C75       1.0  0.73397  0.76965  0.29563  1.0000
  C   C76       1.0  0.77090  0.78329  0.30926  1.0000
  N   N55       1.0  0.78234  0.76152  0.34189  1.0000
  H   H37       1.0  0.78926  0.80931  0.29536  1.0000
  N   N56       1.0  0.72133  0.79114  0.26653  1.0000
  H   H38       1.0  0.73911  0.81627  0.25792  1.0000
  C   C77       1.0  0.72565  0.96338  0.29556  1.0000
  C   C78       1.0  0.71202  0.98669  0.30909  1.0000
  N   N57       1.0  0.73379  0.51990  0.34165  1.0000
  H   H39       1.0  0.68599  0.97902  0.29519  1.0000
  N   N58       1.0  0.70415  0.92925  0.26652  1.0000
  H   H40       1.0  0.67902  0.92189  0.25793  1.0000
  C   C79       1.0  0.53190  0.76131  0.29560  1.0000
  C   C80       1.0  0.50859  0.72437  0.30916  1.0000
  N   N59       1.0  0.97538  0.71293  0.34178  1.0000
  H   H41       1.0  0.51626  0.70601  0.29525  1.0000
  N   N60       1.0  0.56603  0.77395  0.26657  1.0000
  H   H42       1.0  0.57339  0.75616  0.25798  1.0000
  N   N61       1.0  0.65266  0.85538  0.24445  1.0000
  C   C81       1.0  0.68832  0.86734  0.24383  1.0000
  N   N62       1.0  0.69895  0.84262  0.24438  1.0000
  C   C82       1.0  0.67527  0.80696  0.24378  1.0000
  N   N63       1.0  0.63990  0.79633  0.24442  1.0000
  C   C83       1.0  0.71368  0.90381  0.25415  1.0000
  C   C84       1.0  0.68637  0.78160  0.25407  1.0000
  C   C85       1.0  0.59147  0.80891  0.25422  1.0000
  O   O19       1.0  0.66017  0.74689  0.25960  1.0000
  O   O20       1.0  0.58293  0.83509  0.25956  1.0000
  O   O21       1.0  0.74840  0.91235  0.25946  1.0000
  N   N64       1.0  0.84168  0.64085  0.41467  1.0000
  C   C86       1.0  0.80602  0.62888  0.41523  1.0000
  N   N65       1.0  0.79538  0.65361  0.41471  1.0000
  C   C87       1.0  0.81908  0.68926  0.41537  1.0000
  N   N66       1.0  0.85444  0.69990  0.41480  1.0000
  C   C88       1.0  0.78067  0.59241  0.40488  1.0000
  C   C89       1.0  0.80796  0.71462  0.40513  1.0000
  C   C90       1.0  0.90287  0.68732  0.40506  1.0000
  O   O22       1.0  0.83415  0.74934  0.39974  1.0000
  O   O23       1.0  0.91138  0.66112  0.39947  1.0000
  O   O24       1.0  0.74596  0.58388  0.39947  1.0000
  C   C91       1.0  0.72343  0.71294  0.35000  1.0000
  N   N67       1.0  0.71199  0.73472  0.31737  1.0000
  C   C92       1.0  0.76037  0.72658  0.36359  1.0000
  H   H43       1.0  0.70507  0.68693  0.36393  1.0000
  N   N68       1.0  0.77300  0.70509  0.39270  1.0000
  H   H44       1.0  0.75522  0.67996  0.40127  1.0000
  C   C93       1.0  0.78236  0.50956  0.34981  1.0000
  N   N69       1.0  0.76059  0.97634  0.31725  1.0000
  C   C94       1.0  0.76873  0.53287  0.36335  1.0000
  H   H45       1.0  0.80839  0.51723  0.36372  1.0000
  N   N70       1.0  0.79022  0.56699  0.39245  1.0000
  H   H46       1.0  0.81535  0.57436  0.40104  1.0000
  C   C95       1.0  0.98573  0.77185  0.34996  1.0000
  N   N71       1.0  0.51895  0.78329  0.31737  1.0000
  C   C96       1.0  0.96242  0.73490  0.36351  1.0000
  H   H47       1.0  0.97808  0.79021  0.36393  1.0000
  N   N72       1.0  0.92830  0.72228  0.39264  1.0000
  H   H48       1.0  0.92095  0.74006  0.40126  1.0000
