data_image0
_chemical_formula_structural       HCH3CH2C2NOCH3NC2NOCH3NCNHCNHC2NOCH3NC2NOCH3NCNHCNHCNOCH3CNOCH3C6HOC6OH5C4H4C6HOC6OH5C4H4C6HOC6OH5C4H4C6HOC6OH4C3H2C6HOC6OH4C3H2C2NHNC2NHNC3NOCH3N2C3NOCH3N2C2NHNC2NHNC3NOCH3N2C3NOCH3N2C2NCHN2C2NCHN2
_chemical_formula_sum              "H90 C130 N40 O20"
_cell_length_a       33.1278
_cell_length_b       41.5155
_cell_length_c       14.7677
_cell_angle_alpha    88.2054
_cell_angle_beta     91.4067
_cell_angle_gamma    90.3234

_space_group_name_H-M_alt    "P 1"
_space_group_IT_number       1

loop_
  _space_group_symop_operation_xyz
  'x, y, z'

loop_
  _atom_site_type_symbol
  _atom_site_label
  _atom_site_symmetry_multiplicity
  _atom_site_fract_x
  _atom_site_fract_y
  _atom_site_fract_z
  _atom_site_occupancy
  H   H1        1.0  0.77191  0.38045  0.35546  1.0000
  C   C1        1.0  0.84405  0.35552  0.36173  1.0000
  H   H2        1.0  0.84457  0.38017  0.36002  1.0000
  H   H3        1.0  0.57906  0.32581  0.30960  1.0000
  H   H4        1.0  0.18856  0.66784  0.35516  1.0000
  C   C2        1.0  0.11656  0.69263  0.36145  1.0000
  H   H5        1.0  0.11601  0.66802  0.35979  1.0000
  H   H6        1.0  0.38043  0.72347  0.30951  1.0000
  C   C3        1.0  0.15640  0.13267  0.36928  1.0000
  C   C4        1.0  0.14839  0.18988  0.38257  1.0000
  N   N1        1.0  0.17176  0.16340  0.37223  1.0000
  O   O1        1.0  0.18289  0.10803  0.35935  1.0000
  C   C5        1.0  0.19281  0.10333  0.26641  1.0000
  H   H7        1.0  0.16599  0.09759  0.22528  1.0000
  H   H8        1.0  0.21351  0.08306  0.26465  1.0000
  H   H9        1.0  0.20786  0.12453  0.23689  1.0000
  N   N2        1.0  0.16402  0.22067  0.38458  1.0000
  C   C6        1.0  0.80440  0.91531  0.36911  1.0000
  C   C7        1.0  0.81270  0.85781  0.38254  1.0000
  N   N3        1.0  0.78911  0.88451  0.37208  1.0000
  O   O2        1.0  0.77770  0.94017  0.35904  1.0000
  C   C8        1.0  0.76584  0.94691  0.26605  1.0000
  H   H10       1.0  0.79179  0.95357  0.22502  1.0000
  H   H11       1.0  0.74510  0.96723  0.26418  1.0000
  H   H12       1.0  0.75017  0.92636  0.23650  1.0000
  N   N4        1.0  0.79711  0.82697  0.38454  1.0000
  C   C9        1.0  0.79732  0.14745  0.37696  1.0000
  N   N5        1.0  0.78208  0.17791  0.37471  1.0000
  H   H13       1.0  0.77775  0.12862  0.36813  1.0000
  C   C10       1.0  0.16363  0.90035  0.37697  1.0000
  N   N6        1.0  0.17882  0.86995  0.37475  1.0000
  H   H14       1.0  0.18302  0.91938  0.36828  1.0000
  C   C11       1.0  0.22717  0.53760  0.37568  1.0000
  C   C12       1.0  0.25439  0.48497  0.35854  1.0000
  N   N7        1.0  0.22254  0.50513  0.36652  1.0000
  O   O3        1.0  0.19340  0.55593  0.38468  1.0000
  C   C13       1.0  0.17510  0.56597  0.29919  1.0000
  H   H15       1.0  0.19579  0.58077  0.25880  1.0000
  H   H16       1.0  0.14874  0.58050  0.31273  1.0000
  H   H17       1.0  0.16503  0.54530  0.26036  1.0000
  N   N8        1.0  0.24879  0.45260  0.35093  1.0000
  C   C14       1.0  0.73376  0.51024  0.37581  1.0000
  C   C15       1.0  0.70617  0.56325  0.35862  1.0000
  N   N9        1.0  0.73820  0.54292  0.36664  1.0000
  O   O4        1.0  0.76772  0.49171  0.38482  1.0000
  C   C16       1.0  0.78417  0.48356  0.29934  1.0000
  H   H18       1.0  0.76261  0.46966  0.25894  1.0000
  H   H19       1.0  0.81082  0.46874  0.31289  1.0000
  H   H20       1.0  0.79340  0.50510  0.26052  1.0000
  N   N10       1.0  0.71161  0.59579  0.35096  1.0000
  C   C17       1.0  0.94182  0.37377  0.37156  1.0000
  N   N11       1.0  0.98311  0.37441  0.37641  1.0000
  H   H21       1.0  0.92645  0.39500  0.36506  1.0000
  C   C18       1.0  0.01899  0.67417  0.37130  1.0000
  N   N12       1.0  0.97781  0.67343  0.37621  1.0000
  H   H22       1.0  0.03421  0.65309  0.36474  1.0000
  C   C19       1.0  0.48733  0.33931  0.29574  1.0000
  N   N13       1.0  0.44627  0.33717  0.28739  1.0000
  O   O5        1.0  0.50895  0.34541  0.21931  1.0000
  C   C20       1.0  0.51140  0.31825  0.16170  1.0000
  H   H23       1.0  0.52530  0.29752  0.19740  1.0000
  H   H24       1.0  0.53021  0.32512  0.10464  1.0000
  H   H25       1.0  0.48163  0.31141  0.13492  1.0000
  C   C21       1.0  0.47184  0.71029  0.29556  1.0000
  N   N14       1.0  0.51271  0.71260  0.28712  1.0000
  O   O6        1.0  0.44852  0.70591  0.21919  1.0000
  C   C22       1.0  0.44482  0.73436  0.16161  1.0000
  H   H26       1.0  0.43173  0.75430  0.19737  1.0000
  H   H27       1.0  0.42473  0.72877  0.10460  1.0000
  H   H28       1.0  0.47399  0.74178  0.13476  1.0000
  C   C23       1.0  0.95886  0.02651  0.38151  1.0000
  C   C24       1.0  0.92865  0.00163  0.37837  1.0000
  C   C25       1.0  0.88624  0.00704  0.37823  1.0000
  C   C26       1.0  0.87291  0.03952  0.38070  1.0000
  C   C27       1.0  0.90094  0.06544  0.38306  1.0000
  C   C28       1.0  0.94269  0.05804  0.38455  1.0000
  H   H29       1.0  0.93705  0.97828  0.37398  1.0000
  O   O7        1.0  0.83258  0.04611  0.37911  1.0000
  C   C29       1.0  0.00220  0.02121  0.38153  1.0000
  C   C30       1.0  0.01843  0.98960  0.38461  1.0000
  C   C31       1.0  0.06015  0.98224  0.38316  1.0000
  C   C32       1.0  0.08813  0.00821  0.38081  1.0000
  C   C33       1.0  0.07475  0.04074  0.37831  1.0000
  C   C34       1.0  0.03235  0.04615  0.37843  1.0000
  O   O8        1.0  0.12842  0.00165  0.37925  1.0000
  H   H30       1.0  0.02385  0.06960  0.37398  1.0000
  H   H31       1.0  0.82437  0.04565  0.44271  1.0000
  H   H32       1.0  0.13801  0.00070  0.44286  1.0000
  H   H33       1.0  0.96194  0.07707  0.38946  1.0000
  H   H34       1.0  0.99929  0.97046  0.38949  1.0000
  C   C35       1.0  0.89020  0.09842  0.38479  1.0000
  C   C36       1.0  0.85761  0.98127  0.37568  1.0000
  C   C37       1.0  0.07093  0.94922  0.38487  1.0000
  C   C38       1.0  0.10332  0.06657  0.37578  1.0000
  H   H35       1.0  0.13329  0.06118  0.37404  1.0000
  H   H36       1.0  0.91340  0.11456  0.38418  1.0000
  H   H37       1.0  0.82761  0.98669  0.37391  1.0000
  H   H38       1.0  0.04772  0.93310  0.38425  1.0000
  C   C39       1.0  0.19413  0.33080  0.38397  1.0000
  C   C40       1.0  0.18791  0.29644  0.38646  1.0000
  C   C41       1.0  0.14936  0.28136  0.39625  1.0000
  C   C42       1.0  0.11548  0.30200  0.40543  1.0000
  C   C43       1.0  0.11841  0.33594  0.39531  1.0000
  C   C44       1.0  0.15770  0.34913  0.38760  1.0000
  H   H39       1.0  0.21185  0.28151  0.37885  1.0000
  O   O9        1.0  0.07849  0.28896  0.42463  1.0000
  C   C45       1.0  0.23340  0.34645  0.37522  1.0000
  C   C46       1.0  0.27108  0.32979  0.38633  1.0000
  C   C47       1.0  0.30953  0.34418  0.36960  1.0000
  C   C48       1.0  0.31063  0.37759  0.34574  1.0000
  C   C49       1.0  0.27513  0.39656  0.34524  1.0000
  C   C50       1.0  0.23779  0.38042  0.35712  1.0000
  O   O10       1.0  0.34706  0.39283  0.33462  1.0000
  H   H40       1.0  0.21315  0.39479  0.34959  1.0000
  H   H41       1.0  0.07726  0.28729  0.49114  1.0000
  H   H42       1.0  0.35701  0.39859  0.39542  1.0000
  H   H43       1.0  0.15885  0.37360  0.38693  1.0000
  H   H44       1.0  0.27098  0.30601  0.40596  1.0000
  C   C51       1.0  0.08382  0.35635  0.39135  1.0000
  C   C52       1.0  0.14111  0.24750  0.39515  1.0000
  C   C53       1.0  0.34656  0.32767  0.38791  1.0000
  C   C54       1.0  0.27848  0.43072  0.33911  1.0000
  H   H45       1.0  0.30680  0.44019  0.33176  1.0000
  H   H46       1.0  0.08717  0.38081  0.38460  1.0000
  H   H47       1.0  0.11136  0.24179  0.40133  1.0000
  H   H48       1.0  0.34754  0.30937  0.43591  1.0000
  C   C55       1.0  0.76698  0.71686  0.38388  1.0000
  C   C56       1.0  0.77325  0.75117  0.38637  1.0000
  C   C57       1.0  0.81201  0.76602  0.39633  1.0000
  C   C58       1.0  0.84609  0.74518  0.40558  1.0000
  C   C59       1.0  0.84295  0.71147  0.39530  1.0000
  C   C60       1.0  0.80350  0.69846  0.38745  1.0000
  H   H49       1.0  0.74915  0.76626  0.37878  1.0000
  O   O11       1.0  0.88348  0.75779  0.42498  1.0000
  C   C61       1.0  0.72753  0.70140  0.37508  1.0000
  C   C62       1.0  0.69009  0.71783  0.38615  1.0000
  C   C63       1.0  0.65127  0.70381  0.36939  1.0000
  C   C64       1.0  0.64966  0.67093  0.34555  1.0000
  C   C65       1.0  0.68515  0.65196  0.34510  1.0000
  C   C66       1.0  0.72274  0.66783  0.35706  1.0000
  O   O12       1.0  0.61300  0.65591  0.33447  1.0000
  H   H50       1.0  0.74722  0.65362  0.34955  1.0000
  H   H51       1.0  0.88610  0.75795  0.49151  1.0000
  H   H52       1.0  0.60437  0.64882  0.39529  1.0000
  H   H53       1.0  0.80233  0.67400  0.38674  1.0000
  H   H54       1.0  0.69060  0.74117  0.40581  1.0000
  C   C67       1.0  0.87746  0.69115  0.39137  1.0000
  C   C68       1.0  0.82024  0.79991  0.39524  1.0000
  C   C69       1.0  0.61462  0.71989  0.38771  1.0000
  C   C70       1.0  0.68166  0.61793  0.33905  1.0000
  H   H55       1.0  0.65319  0.60862  0.33165  1.0000
  H   H56       1.0  0.87396  0.66686  0.38435  1.0000
  H   H57       1.0  0.85012  0.80548  0.40161  1.0000
  H   H58       1.0  0.61467  0.73710  0.43576  1.0000
  C   C71       1.0  0.73029  0.34132  0.36206  1.0000
  C   C72       1.0  0.73055  0.30694  0.36540  1.0000
  C   C73       1.0  0.76602  0.28804  0.36524  1.0000
  C   C74       1.0  0.80374  0.30448  0.36069  1.0000
  C   C75       1.0  0.80637  0.33867  0.36052  1.0000
  C   C76       1.0  0.76946  0.35599  0.35972  1.0000
  H   H59       1.0  0.70410  0.29464  0.37331  1.0000
  O   O13       1.0  0.83821  0.28703  0.35417  1.0000
  C   C77       1.0  0.69303  0.35931  0.36573  1.0000
  C   C78       1.0  0.65401  0.34511  0.35177  1.0000
  C   C79       1.0  0.61702  0.36079  0.36845  1.0000
  C   C80       1.0  0.61891  0.39359  0.39253  1.0000
  C   C81       1.0  0.65635  0.41060  0.39395  1.0000
  C   C82       1.0  0.69229  0.39284  0.38363  1.0000
  O   O14       1.0  0.58374  0.40994  0.40344  1.0000
  H   H60       1.0  0.71866  0.40517  0.39202  1.0000
  H   H61       1.0  0.84237  0.28448  0.28901  1.0000
  H   H62       1.0  0.57431  0.41727  0.34254  1.0000
  H   H63       1.0  0.65181  0.32209  0.33004  1.0000
  C   C83       1.0  0.76266  0.25386  0.36990  1.0000
  C   C84       1.0  0.57948  0.34499  0.35147  1.0000
  C   C85       1.0  0.65717  0.44467  0.39978  1.0000
  H   H64       1.0  0.63026  0.45621  0.40476  1.0000
  H   H65       1.0  0.73496  0.24283  0.36843  1.0000
  C   C86       1.0  0.23033  0.70682  0.36192  1.0000
  C   C87       1.0  0.23014  0.74112  0.36538  1.0000
  C   C88       1.0  0.19467  0.76003  0.36519  1.0000
  C   C89       1.0  0.15685  0.74368  0.36057  1.0000
  C   C90       1.0  0.15421  0.70950  0.36034  1.0000
  C   C91       1.0  0.19110  0.69220  0.35954  1.0000
  H   H66       1.0  0.25676  0.75325  0.37324  1.0000
  O   O15       1.0  0.12223  0.76128  0.35403  1.0000
  C   C92       1.0  0.26766  0.68875  0.36557  1.0000
  C   C93       1.0  0.30638  0.70326  0.35165  1.0000
  C   C94       1.0  0.34373  0.68722  0.36834  1.0000
  C   C95       1.0  0.34236  0.65389  0.39250  1.0000
  C   C96       1.0  0.30496  0.63684  0.39392  1.0000
  C   C97       1.0  0.26880  0.65481  0.38348  1.0000
  O   O16       1.0  0.37776  0.63729  0.40354  1.0000
  H   H67       1.0  0.24260  0.64231  0.39193  1.0000
  H   H68       1.0  0.11668  0.76528  0.28886  1.0000
  H   H69       1.0  0.38592  0.63133  0.34267  1.0000
  H   H70       1.0  0.30810  0.72676  0.32989  1.0000
  C   C98       1.0  0.19812  0.79410  0.36992  1.0000
  C   C99       1.0  0.38090  0.70340  0.35157  1.0000
  C   C100      1.0  0.30427  0.60263  0.39982  1.0000
  H   H71       1.0  0.33130  0.59099  0.40474  1.0000
  H   H72       1.0  0.22579  0.80516  0.36846  1.0000
  C   C101      1.0  0.11431  0.12689  0.37852  1.0000
  C   C102      1.0  0.09064  0.15454  0.38826  1.0000
  N   N15       1.0  0.10800  0.18414  0.39010  1.0000
  H   H73       1.0  0.06005  0.15277  0.39508  1.0000
  N   N16       1.0  0.09382  0.09826  0.37936  1.0000
  C   C103      1.0  0.84669  0.92088  0.37846  1.0000
  C   C104      1.0  0.87057  0.89302  0.38830  1.0000
  N   N17       1.0  0.85325  0.86338  0.39017  1.0000
  H   H74       1.0  0.90130  0.89464  0.39524  1.0000
  N   N18       1.0  0.86720  0.94950  0.37932  1.0000
  C   C105      1.0  0.86380  0.16962  0.40007  1.0000
  C   C106      1.0  0.83930  0.14183  0.38740  1.0000
  C   C107      1.0  0.80668  0.20394  0.38382  1.0000
  N   N19       1.0  0.84676  0.19921  0.39629  1.0000
  O   O17       1.0  0.90466  0.16942  0.41455  1.0000
  C   C108      1.0  0.91632  0.16873  0.50911  1.0000
  H   H75       1.0  0.90558  0.18998  0.54294  1.0000
  H   H76       1.0  0.94920  0.16861  0.51416  1.0000
  H   H77       1.0  0.90513  0.14700  0.54415  1.0000
  N   N20       1.0  0.79566  0.23507  0.37932  1.0000
  N   N21       1.0  0.85241  0.11084  0.38382  1.0000
  C   C109      1.0  0.09764  0.87767  0.40005  1.0000
  C   C110      1.0  0.12188  0.90575  0.38743  1.0000
  C   C111      1.0  0.15441  0.84372  0.38382  1.0000
  N   N22       1.0  0.11460  0.84817  0.39625  1.0000
  O   O18       1.0  0.05710  0.87756  0.41453  1.0000
  C   C112      1.0  0.04750  0.87614  0.50909  1.0000
  H   H78       1.0  0.05896  0.85413  0.54289  1.0000
  H   H79       1.0  0.01473  0.87615  0.51414  1.0000
  H   H80       1.0  0.05945  0.89708  0.54416  1.0000
  N   N23       1.0  0.16533  0.81268  0.37930  1.0000
  N   N24       1.0  0.10869  0.93682  0.38388  1.0000
  C   C113      1.0  0.26623  0.55160  0.38121  1.0000
  C   C114      1.0  0.29880  0.53013  0.37314  1.0000
  N   N25       1.0  0.29199  0.49829  0.36199  1.0000
  H   H81       1.0  0.32803  0.53791  0.37427  1.0000
  N   N26       1.0  0.27060  0.58405  0.38998  1.0000
  C   C115      1.0  0.69482  0.49613  0.38130  1.0000
  C   C116      1.0  0.66207  0.51778  0.37320  1.0000
  N   N27       1.0  0.66864  0.54986  0.36203  1.0000
  H   H82       1.0  0.63286  0.50997  0.37424  1.0000
  N   N28       1.0  0.69064  0.46347  0.39004  1.0000
  C   C117      1.0  0.94429  0.31597  0.38415  1.0000
  C   C118      1.0  0.92061  0.34412  0.37463  1.0000
  C   C119      1.0  0.00512  0.34682  0.38441  1.0000
  N   N29       1.0  0.98515  0.31826  0.38763  1.0000
  O   O19       1.0  0.92735  0.28583  0.38543  1.0000
  C   C120      1.0  0.92371  0.27201  0.47534  1.0000
  H   H83       1.0  0.95326  0.26865  0.50870  1.0000
  H   H84       1.0  0.90937  0.24845  0.46979  1.0000
  H   H85       1.0  0.90479  0.28680  0.51702  1.0000
  N   N30       1.0  0.04574  0.34436  0.38941  1.0000
  N   N31       1.0  0.87997  0.34007  0.36949  1.0000
  C   C121      1.0  0.01682  0.73169  0.38409  1.0000
  C   C122      1.0  0.04028  0.70375  0.37446  1.0000
  C   C123      1.0  0.95599  0.70086  0.38432  1.0000
  N   N32       1.0  0.97605  0.72933  0.38761  1.0000
  O   O20       1.0  0.03381  0.76179  0.38546  1.0000
  C   C124      1.0  0.03943  0.77358  0.47541  1.0000
  H   H86       1.0  0.01060  0.77620  0.50880  1.0000
  H   H87       1.0  0.05366  0.79726  0.46993  1.0000
  H   H88       1.0  0.05924  0.75785  0.51702  1.0000
  N   N33       1.0  0.91548  0.70321  0.38941  1.0000
  N   N34       1.0  0.08081  0.70790  0.36929  1.0000
  C   C125      1.0  0.50567  0.34212  0.38286  1.0000
  C   C126      1.0  0.47927  0.33950  0.45665  1.0000
  N   N35       1.0  0.43878  0.33468  0.44356  1.0000
  C   C127      1.0  0.42155  0.33352  0.35918  1.0000
  H   H89       1.0  0.49036  0.34120  0.52152  1.0000
  N   N36       1.0  0.38105  0.33525  0.34345  1.0000
  N   N37       1.0  0.54532  0.34982  0.39857  1.0000
  C   C128      1.0  0.45543  0.70555  0.38272  1.0000
  C   C129      1.0  0.48346  0.70653  0.45646  1.0000
  N   N38       1.0  0.52366  0.71161  0.44331  1.0000
  C   C130      1.0  0.53901  0.71461  0.35888  1.0000
  H   H90       1.0  0.47379  0.70340  0.52135  1.0000
  N   N39       1.0  0.57918  0.71328  0.34322  1.0000
  N   N40       1.0  0.41612  0.69751  0.39851  1.0000
