data_image0
_chemical_formula_structural       C3NC3NC5NC5NC20H18N4C3NC3NC5NC5NC20H18N4C3NC3NC5NC5NC20H18N5C2HCHNC2HCHNC2HCHNC2HCHNC2HCHNC2HCHC8H8C8H8C8H8CNC2O2HCHCNC2O2HCHCNC2O2HCHCNC2O2HCHCNC2O2HCHCNC2O2HCH
_chemical_formula_sum              "C174 N36 H102 O12"
_cell_length_a       50.4053
_cell_length_b       50.4053
_cell_length_c       14.8172
_cell_angle_alpha    90.0974
_cell_angle_beta     89.9026
_cell_angle_gamma    120

_space_group_name_H-M_alt    "P 1"
_space_group_IT_number       1

loop_
  _space_group_symop_operation_xyz
  'x, y, z'

loop_
  _atom_site_type_symbol
  _atom_site_label
  _atom_site_symmetry_multiplicity
  _atom_site_fract_x
  _atom_site_fract_y
  _atom_site_fract_z
  _atom_site_occupancy
  C   C1        1.0  0.05323  0.65467  0.32742  1.0000
  C   C2        1.0  0.02155  0.63884  0.32763  1.0000
  C   C3        1.0  0.01146  0.60749  0.32625  1.0000
  N   N1        1.0  0.03736  0.60554  0.32545  1.0000
  C   C4        1.0  0.06328  0.63338  0.32622  1.0000
  C   C5        1.0  0.09450  0.64077  0.32557  1.0000
  C   C6        1.0  0.10436  0.61880  0.32514  1.0000
  N   N2        1.0  0.08702  0.58788  0.32559  1.0000
  C   C7        1.0  0.10428  0.57422  0.32532  1.0000
  C   C8        1.0  0.13473  0.59800  0.32443  1.0000
  C   C9        1.0  0.13478  0.62538  0.32468  1.0000
  C   C10       1.0  0.09434  0.54237  0.32601  1.0000
  C   C11       1.0  0.06311  0.51857  0.32630  1.0000
  N   N3        1.0  0.03721  0.52051  0.32542  1.0000
  C   C12       1.0  0.01130  0.49268  0.32625  1.0000
  C   C13       1.0  0.02134  0.47139  0.32759  1.0000
  C   C14       1.0  0.05303  0.48722  0.32784  1.0000
  C   C15       1.0  0.98008  0.48528  0.32555  1.0000
  C   C16       1.0  0.97022  0.50725  0.32508  1.0000
  N   N4        1.0  0.98756  0.53818  0.32552  1.0000
  C   C17       1.0  0.97030  0.55184  0.32528  1.0000
  C   C18       1.0  0.93985  0.52805  0.32446  1.0000
  C   C19       1.0  0.93980  0.50067  0.32470  1.0000
  C   C20       1.0  0.98024  0.58369  0.32599  1.0000
  C   C21       1.0  0.95690  0.59192  0.32769  1.0000
  C   C22       1.0  0.90401  0.59894  0.32892  1.0000
  C   C23       1.0  0.91925  0.60034  0.24740  1.0000
  C   C24       1.0  0.94524  0.59673  0.24652  1.0000
  C   C25       1.0  0.95670  0.45371  0.32545  1.0000
  C   C26       1.0  0.90392  0.39373  0.32718  1.0000
  C   C27       1.0  0.91600  0.40957  0.24496  1.0000
  C   C28       1.0  0.94199  0.43914  0.24409  1.0000
  C   C29       1.0  0.11767  0.53413  0.32776  1.0000
  C   C30       1.0  0.12919  0.52897  0.24665  1.0000
  C   C31       1.0  0.15509  0.52522  0.24752  1.0000
  C   C32       1.0  0.17031  0.52671  0.32898  1.0000
  C   C33       1.0  0.11789  0.67234  0.32542  1.0000
  C   C34       1.0  0.13263  0.68686  0.24405  1.0000
  C   C35       1.0  0.17081  0.73222  0.32717  1.0000
  C   C36       1.0  0.15869  0.71638  0.24492  1.0000
  H   H1        1.0  0.16928  0.72566  0.18497  1.0000
  H   H2        1.0  0.12523  0.67550  0.18387  1.0000
  H   H3        1.0  0.06651  0.67801  0.32815  1.0000
  H   H4        1.0  0.00829  0.64893  0.32856  1.0000
  H   H5        1.0  0.03734  0.58648  0.32409  1.0000
  H   H6        1.0  0.03724  0.53957  0.32380  1.0000
  H   H7        1.0  0.15412  0.64647  0.32454  1.0000
  H   H8        1.0  0.15404  0.59619  0.32388  1.0000
  H   H9        1.0  0.11951  0.52908  0.18607  1.0000
  H   H10       1.0  0.16340  0.52236  0.18740  1.0000
  H   H11       1.0  0.06628  0.47713  0.32889  1.0000
  H   H12       1.0  0.00807  0.44805  0.32843  1.0000
  H   H13       1.0  0.92054  0.52985  0.32404  1.0000
  H   H14       1.0  0.92045  0.47958  0.32464  1.0000
  H   H15       1.0  0.94940  0.45047  0.18391  1.0000
  H   H16       1.0  0.90548  0.40022  0.18500  1.0000
  H   H17       1.0  0.95491  0.59653  0.18593  1.0000
  H   H18       1.0  0.91084  0.60293  0.18725  1.0000
  N   N5        1.0  0.87824  0.36657  0.33432  1.0000
  N   N6        1.0  0.19590  0.52498  0.32319  1.0000
  N   N7        1.0  0.19661  0.75928  0.33433  1.0000
  N   N8        1.0  0.87829  0.60042  0.32314  1.0000
  C   C37       1.0  0.44503  0.48610  0.32661  1.0000
  C   C38       1.0  0.46086  0.47025  0.32677  1.0000
  C   C39       1.0  0.49221  0.49152  0.32533  1.0000
  N   N9        1.0  0.49415  0.51936  0.32454  1.0000
  C   C40       1.0  0.46632  0.51744  0.32538  1.0000
  C   C41       1.0  0.45891  0.54125  0.32475  1.0000
  C   C42       1.0  0.48088  0.57309  0.32428  1.0000
  N   N10       1.0  0.51181  0.58667  0.32470  1.0000
  C   C43       1.0  0.52546  0.61760  0.32443  1.0000
  C   C44       1.0  0.50168  0.62426  0.32355  1.0000
  C   C45       1.0  0.47430  0.59693  0.32383  1.0000
  C   C46       1.0  0.55731  0.63951  0.32512  1.0000
  C   C47       1.0  0.58112  0.63209  0.32539  1.0000
  N   N11       1.0  0.57918  0.60425  0.32453  1.0000
  C   C48       1.0  0.60701  0.60617  0.32539  1.0000
  C   C49       1.0  0.62830  0.63751  0.32670  1.0000
  C   C50       1.0  0.61247  0.65336  0.32691  1.0000
  C   C51       1.0  0.61442  0.58235  0.32472  1.0000
  C   C52       1.0  0.59245  0.55052  0.32421  1.0000
  N   N12       1.0  0.56153  0.53694  0.32462  1.0000
  C   C53       1.0  0.54787  0.50601  0.32435  1.0000
  C   C54       1.0  0.57166  0.49936  0.32354  1.0000
  C   C55       1.0  0.59904  0.52669  0.32381  1.0000
  C   C56       1.0  0.51602  0.48410  0.32500  1.0000
  C   C57       1.0  0.50780  0.45254  0.32672  1.0000
  C   C58       1.0  0.50076  0.39263  0.32796  1.0000
  C   C59       1.0  0.49938  0.40639  0.24644  1.0000
  C   C60       1.0  0.50296  0.43597  0.24555  1.0000
  C   C61       1.0  0.64599  0.59055  0.32470  1.0000
  C   C62       1.0  0.70598  0.59778  0.32673  1.0000
  C   C63       1.0  0.69017  0.59392  0.24444  1.0000
  C   C64       1.0  0.66061  0.59035  0.24343  1.0000
  C   C65       1.0  0.56555  0.67108  0.32684  1.0000
  C   C66       1.0  0.57070  0.68767  0.24572  1.0000
  C   C67       1.0  0.57444  0.71732  0.24657  1.0000
  C   C68       1.0  0.57293  0.73113  0.32802  1.0000
  C   C69       1.0  0.42735  0.53307  0.32472  1.0000
  C   C70       1.0  0.41279  0.53320  0.24341  1.0000
  C   C71       1.0  0.36747  0.52613  0.32674  1.0000
  C   C72       1.0  0.38329  0.52979  0.24443  1.0000
  H   H19       1.0  0.37396  0.53099  0.18451  1.0000
  H   H20       1.0  0.42413  0.53712  0.18319  1.0000
  H   H21       1.0  0.42169  0.47603  0.32738  1.0000
  H   H22       1.0  0.45078  0.44691  0.32770  1.0000
  H   H23       1.0  0.51321  0.53839  0.32310  1.0000
  H   H24       1.0  0.56012  0.58521  0.32302  1.0000
  H   H25       1.0  0.45321  0.59518  0.32372  1.0000
  H   H26       1.0  0.50348  0.64537  0.32303  1.0000
  H   H27       1.0  0.57059  0.67782  0.18515  1.0000
  H   H28       1.0  0.57728  0.72842  0.18645  1.0000
  H   H29       1.0  0.62255  0.67670  0.32794  1.0000
  H   H30       1.0  0.65164  0.64758  0.32753  1.0000
  H   H31       1.0  0.56986  0.47824  0.32304  1.0000
  H   H32       1.0  0.62013  0.52843  0.32375  1.0000
  H   H33       1.0  0.64930  0.58634  0.18320  1.0000
  H   H34       1.0  0.69955  0.59269  0.18454  1.0000
  H   H35       1.0  0.50317  0.44580  0.18495  1.0000
  H   H36       1.0  0.49674  0.39530  0.18630  1.0000
  N   N13       1.0  0.73313  0.59924  0.33403  1.0000
  N   N14       1.0  0.57465  0.75844  0.32222  1.0000
  N   N15       1.0  0.34040  0.52485  0.33402  1.0000
  N   N16       1.0  0.49927  0.36541  0.32219  1.0000
  C   C73       1.0  0.61359  0.04647  0.32624  1.0000
  C   C74       1.0  0.62944  0.07816  0.32651  1.0000
  C   C75       1.0  0.60818  0.08824  0.32500  1.0000
  N   N17       1.0  0.58034  0.06234  0.32410  1.0000
  C   C76       1.0  0.58225  0.03642  0.32491  1.0000
  C   C77       1.0  0.55843  0.00520  0.32418  1.0000
  C   C78       1.0  0.52660  0.99535  0.32372  1.0000
  N   N18       1.0  0.51302  0.01269  0.32424  1.0000
  C   C79       1.0  0.48209  0.99543  0.32400  1.0000
  C   C80       1.0  0.47543  0.96498  0.32310  1.0000
  C   C81       1.0  0.50275  0.96493  0.32328  1.0000
  C   C82       1.0  0.46019  0.00537  0.32477  1.0000
  C   C83       1.0  0.46761  0.03660  0.32503  1.0000
  N   N19       1.0  0.49546  0.06250  0.32409  1.0000
  C   C84       1.0  0.49354  0.08842  0.32491  1.0000
  C   C85       1.0  0.46220  0.07837  0.32626  1.0000
  C   C86       1.0  0.44635  0.04669  0.32655  1.0000
  C   C87       1.0  0.51736  0.11963  0.32420  1.0000
  C   C88       1.0  0.54919  0.12949  0.32374  1.0000
  N   N20       1.0  0.56277  0.11215  0.32421  1.0000
  C   C89       1.0  0.59370  0.12941  0.32398  1.0000
  C   C90       1.0  0.60036  0.15986  0.32311  1.0000
  C   C91       1.0  0.57303  0.15991  0.32330  1.0000
  C   C92       1.0  0.61560  0.11947  0.32473  1.0000
  C   C93       1.0  0.64717  0.14281  0.32656  1.0000
  C   C94       1.0  0.70708  0.19567  0.32817  1.0000
  C   C95       1.0  0.69339  0.18047  0.24657  1.0000
  C   C96       1.0  0.66380  0.15446  0.24551  1.0000
  C   C97       1.0  0.50917  0.14302  0.32410  1.0000
  C   C98       1.0  0.50193  0.19576  0.32601  1.0000
  C   C99       1.0  0.50579  0.18372  0.24375  1.0000
  C   C100      1.0  0.50935  0.15772  0.24279  1.0000
  C   C101      1.0  0.42862  0.98205  0.32663  1.0000
  C   C102      1.0  0.41198  0.97047  0.24562  1.0000
  C   C103      1.0  0.38232  0.94457  0.24665  1.0000
  C   C104      1.0  0.36857  0.92937  0.32819  1.0000
  C   C105      1.0  0.56660  0.98181  0.32409  1.0000
  C   C106      1.0  0.56646  0.96705  0.24277  1.0000
  C   C107      1.0  0.57354  0.92888  0.32600  1.0000
  C   C108      1.0  0.56989  0.94097  0.24372  1.0000
  H   H37       1.0  0.56870  0.93040  0.18378  1.0000
  H   H38       1.0  0.56257  0.97444  0.18255  1.0000
  H   H39       1.0  0.62365  0.03320  0.32702  1.0000
  H   H40       1.0  0.65278  0.09141  0.32751  1.0000
  H   H41       1.0  0.56130  0.06237  0.32254  1.0000
  H   H42       1.0  0.51449  0.06247  0.32257  1.0000
  H   H43       1.0  0.50449  0.94558  0.32313  1.0000
  H   H44       1.0  0.45431  0.94567  0.32258  1.0000
  H   H45       1.0  0.42177  0.98015  0.18499  1.0000
  H   H46       1.0  0.37118  0.93623  0.18660  1.0000
  H   H47       1.0  0.42300  0.03344  0.32761  1.0000
  H   H48       1.0  0.45214  0.09164  0.32708  1.0000
  H   H49       1.0  0.62148  0.17917  0.32261  1.0000
  H   H50       1.0  0.57129  0.17926  0.32317  1.0000
  H   H51       1.0  0.51340  0.15036  0.18259  1.0000
  H   H52       1.0  0.50705  0.19428  0.18383  1.0000
  H   H53       1.0  0.65402  0.14480  0.18486  1.0000
  H   H54       1.0  0.70453  0.18886  0.18651  1.0000
  N   N21       1.0  0.50045  0.22145  0.33324  1.0000
  N   N22       1.0  0.34126  0.90377  0.32256  1.0000
  N   N23       1.0  0.57482  0.90310  0.33323  1.0000
  N   N24       1.0  0.73432  0.22136  0.32258  1.0000
  N   N25       1.0  0.24923  0.52643  0.27017  1.0000
  C   C109      1.0  0.27462  0.52632  0.23999  1.0000
  C   C110      1.0  0.29458  0.52435  0.30286  1.0000
  H   H55       1.0  0.27902  0.52808  0.17223  1.0000
  C   C111      1.0  0.32134  0.52497  0.27646  1.0000
  H   H56       1.0  0.32613  0.52624  0.21102  1.0000
  N   N26       1.0  0.57327  0.81030  0.26925  1.0000
  C   C112      1.0  0.57336  0.83576  0.23911  1.0000
  C   C113      1.0  0.57532  0.85775  0.30201  1.0000
  H   H57       1.0  0.57161  0.83835  0.17135  1.0000
  C   C114      1.0  0.57471  0.88386  0.27564  1.0000
  H   H58       1.0  0.57343  0.88733  0.21021  1.0000
  N   N27       1.0  0.28936  0.85047  0.26992  1.0000
  C   C115      1.0  0.26389  0.82505  0.23990  1.0000
  C   C116      1.0  0.24194  0.80510  0.30292  1.0000
  H   H59       1.0  0.26125  0.82064  0.17215  1.0000
  C   C117      1.0  0.21581  0.77834  0.27667  1.0000
  H   H60       1.0  0.21227  0.77357  0.21124  1.0000
  N   N28       1.0  0.82482  0.59855  0.27013  1.0000
  C   C118      1.0  0.79932  0.59839  0.23997  1.0000
  C   C119      1.0  0.77917  0.60013  0.30286  1.0000
  H   H61       1.0  0.79501  0.59665  0.17218  1.0000
  C   C120      1.0  0.75234  0.59929  0.27646  1.0000
  H   H62       1.0  0.74764  0.59807  0.21100  1.0000
  N   N29       1.0  0.50114  0.31376  0.26925  1.0000
  C   C121      1.0  0.50131  0.28840  0.23911  1.0000
  C   C122      1.0  0.49956  0.26656  0.30201  1.0000
  H   H63       1.0  0.50305  0.28575  0.17132  1.0000
  C   C123      1.0  0.50040  0.24054  0.27565  1.0000
  H   H64       1.0  0.50165  0.23700  0.21019  1.0000
  N   N30       1.0  0.78596  0.27491  0.26987  1.0000
  C   C124      1.0  0.81135  0.30041  0.23986  1.0000
  C   C125      1.0  0.83315  0.32053  0.30288  1.0000
  H   H65       1.0  0.81400  0.30478  0.17210  1.0000
  C   C126      1.0  0.85917  0.34739  0.27664  1.0000
  H   H66       1.0  0.86273  0.35214  0.21121  1.0000
  C   C127      1.0  0.94217  0.59116  0.40965  1.0000
  C   C128      1.0  0.91614  0.59466  0.41025  1.0000
  C   C129      1.0  0.94503  0.43780  0.40751  1.0000
  C   C130      1.0  0.91907  0.40819  0.40811  1.0000
  C   C131      1.0  0.15832  0.53135  0.41027  1.0000
  C   C132      1.0  0.13241  0.53503  0.40967  1.0000
  C   C133      1.0  0.12957  0.68827  0.40751  1.0000
  C   C134      1.0  0.15560  0.71783  0.40811  1.0000
  H   H67       1.0  0.16404  0.72841  0.46886  1.0000
  H   H68       1.0  0.11992  0.67798  0.46766  1.0000
  H   H69       1.0  0.12507  0.53956  0.46915  1.0000
  H   H70       1.0  0.16881  0.53303  0.47061  1.0000
  H   H71       1.0  0.95468  0.44812  0.46765  1.0000
  H   H72       1.0  0.91068  0.39759  0.46884  1.0000
  H   H73       1.0  0.90563  0.59302  0.47063  1.0000
  H   H74       1.0  0.94956  0.58680  0.46917  1.0000
  C   C135      1.0  0.50854  0.43865  0.40870  1.0000
  C   C136      1.0  0.50507  0.40914  0.40929  1.0000
  C   C137      1.0  0.66187  0.59489  0.40683  1.0000
  C   C138      1.0  0.69148  0.59853  0.40759  1.0000
  C   C139      1.0  0.56831  0.71459  0.40932  1.0000
  C   C140      1.0  0.56466  0.68500  0.40875  1.0000
  C   C141      1.0  0.41145  0.52891  0.40687  1.0000
  C   C142      1.0  0.38189  0.52537  0.40761  1.0000
  H   H75       1.0  0.37133  0.52329  0.46840  1.0000
  H   H76       1.0  0.42177  0.52961  0.46698  1.0000
  H   H77       1.0  0.56009  0.67319  0.46822  1.0000
  H   H78       1.0  0.56659  0.72344  0.46964  1.0000
  H   H79       1.0  0.65151  0.59423  0.46693  1.0000
  H   H80       1.0  0.70203  0.60077  0.46838  1.0000
  H   H81       1.0  0.50667  0.40031  0.46969  1.0000
  H   H82       1.0  0.51292  0.45047  0.46819  1.0000
  C   C143      1.0  0.66100  0.15750  0.40862  1.0000
  C   C144      1.0  0.69053  0.18352  0.40940  1.0000
  C   C145      1.0  0.50483  0.15465  0.40622  1.0000
  C   C146      1.0  0.50114  0.18058  0.40690  1.0000
  C   C147      1.0  0.38515  0.94141  0.40940  1.0000
  C   C148      1.0  0.41475  0.96732  0.40862  1.0000
  C   C149      1.0  0.57078  0.97016  0.40622  1.0000
  C   C150      1.0  0.57427  0.94410  0.40691  1.0000
  H   H83       1.0  0.57639  0.93570  0.46767  1.0000
  H   H84       1.0  0.57007  0.97982  0.46634  1.0000
  H   H85       1.0  0.42660  0.97468  0.46803  1.0000
  H   H86       1.0  0.37636  0.93090  0.46977  1.0000
  H   H87       1.0  0.50544  0.14499  0.46633  1.0000
  H   H88       1.0  0.49889  0.18897  0.46766  1.0000
  H   H89       1.0  0.69931  0.19399  0.46985  1.0000
  H   H90       1.0  0.64914  0.15010  0.46806  1.0000
  C   C151      1.0  0.24116  0.52443  0.35878  1.0000
  N   N31       1.0  0.28661  0.52239  0.39138  1.0000
  C   C152      1.0  0.26111  0.52230  0.42262  1.0000
  C   C153      1.0  0.25592  0.51973  0.51505  1.0000
  O   O1        1.0  0.27746  0.53538  0.56504  1.0000
  O   O2        1.0  0.23582  0.49557  0.54906  1.0000
  H   H91       1.0  0.22012  0.48078  0.51940  1.0000
  C   C154      1.0  0.21512  0.52590  0.38212  1.0000
  H   H92       1.0  0.21163  0.52843  0.44666  1.0000
  C   C155      1.0  0.57527  0.80432  0.35786  1.0000
  N   N32       1.0  0.57728  0.85182  0.39052  1.0000
  C   C156      1.0  0.57737  0.82644  0.42173  1.0000
  C   C157      1.0  0.57995  0.82390  0.51420  1.0000
  O   O3        1.0  0.56386  0.82938  0.56373  1.0000
  O   O4        1.0  0.60427  0.82835  0.54792  1.0000
  H   H93       1.0  0.61915  0.82759  0.51816  1.0000
  C   C158      1.0  0.57385  0.77684  0.38119  1.0000
  H   H94       1.0  0.57148  0.77097  0.44578  1.0000
  C   C159      1.0  0.29540  0.85857  0.35848  1.0000
  N   N33       1.0  0.24793  0.81311  0.39140  1.0000
  C   C160      1.0  0.27332  0.83862  0.42247  1.0000
  C   C161      1.0  0.27592  0.84386  0.51493  1.0000
  O   O5        1.0  0.27050  0.82236  0.56447  1.0000
  O   O6        1.0  0.27146  0.86374  0.54869  1.0000
  H   H95       1.0  0.27217  0.87933  0.51895  1.0000
  C   C162      1.0  0.32287  0.88466  0.38166  1.0000
  H   H96       1.0  0.32877  0.88829  0.44623  1.0000
  C   C163      1.0  0.83280  0.60059  0.35875  1.0000
  N   N34       1.0  0.78706  0.60213  0.39140  1.0000
  C   C164      1.0  0.81265  0.60246  0.42262  1.0000
  C   C165      1.0  0.81774  0.60505  0.51512  1.0000
  O   O7        1.0  0.79622  0.58880  0.56449  1.0000
  O   O8        1.0  0.83744  0.62944  0.54906  1.0000
  H   H97       1.0  0.85301  0.64441  0.51945  1.0000
  C   C166      1.0  0.85899  0.59942  0.38209  1.0000
  H   H98       1.0  0.86251  0.59704  0.44666  1.0000
  C   C167      1.0  0.49910  0.31979  0.35787  1.0000
  N   N35       1.0  0.49755  0.27254  0.39054  1.0000
  C   C168      1.0  0.49723  0.29784  0.42176  1.0000
  C   C169      1.0  0.49461  0.30046  0.51420  1.0000
  O   O9        1.0  0.51075  0.29501  0.56336  1.0000
  O   O10       1.0  0.47026  0.29567  0.54861  1.0000
  H   H99       1.0  0.45525  0.29625  0.51926  1.0000
  C   C170      1.0  0.50024  0.34716  0.38118  1.0000
  H   H100      1.0  0.50262  0.35313  0.44573  1.0000
  C   C171      1.0  0.77989  0.26687  0.35844  1.0000
  N   N36       1.0  0.82713  0.31258  0.39136  1.0000
  C   C172      1.0  0.80183  0.28697  0.42244  1.0000
  C   C173      1.0  0.79918  0.28183  0.51486  1.0000
  O   O11       1.0  0.80488  0.30336  0.56482  1.0000
  O   O12       1.0  0.80342  0.26188  0.54901  1.0000
  H   H101      1.0  0.80266  0.24622  0.51942  1.0000
  C   C174      1.0  0.75246  0.24072  0.38161  1.0000
  H   H102      1.0  0.74635  0.23731  0.44607  1.0000
