data_image0
_chemical_formula_structural       NC2NONC2NO3CHC2HCHC2HCH2CH2CNC2H2NO2CNC2H2NO2C2HNO2C5HC6H3C4HC3NHNO2C4HC3NHNO2C3NHOCNC2H2NO2CNC2H2NO2C2HNO2C5HC6H3C4HC3NHNO2C4HC3NHNO2C3NHOCNC2H2NO2CNC2H2NO2CNC2H2NO2C6H3C6H3C4HC3NHNO2C4HC3NHNO2C4HC3NHNOCNC2H2NO2CNC2H2NO2CNC2H2NO2C6H3C6H3C4HC3NHNO2C4HC3NHNO2C4HC3NHNO
_chemical_formula_sum              "N48 C168 O48 H72"
_cell_length_a       44.3119
_cell_length_b       44.312
_cell_length_c       14.908
_cell_angle_alpha    90
_cell_angle_beta     90
_cell_angle_gamma    120

_space_group_name_H-M_alt    "P 1"
_space_group_IT_number       1

loop_
  _space_group_symop_operation_xyz
  'x, y, z'

loop_
  _atom_site_type_symbol
  _atom_site_label
  _atom_site_symmetry_multiplicity
  _atom_site_fract_x
  _atom_site_fract_y
  _atom_site_fract_z
  _atom_site_occupancy
  N   N1        1.0  0.04243  0.26734  0.27145  1.0000
  C   C1        1.0  0.02374  0.25873  0.34912  1.0000
  C   C2        1.0  0.04234  0.26994  0.43141  1.0000
  N   N2        1.0  0.02420  0.26042  0.51405  1.0000
  O   O1        1.0  0.03023  0.28678  0.55928  1.0000
  N   N3        1.0  0.04243  0.76735  0.27145  1.0000
  C   C3        1.0  0.02374  0.75873  0.34912  1.0000
  C   C4        1.0  0.04234  0.76994  0.43141  1.0000
  N   N4        1.0  0.02420  0.76042  0.51405  1.0000
  O   O2        1.0  0.03023  0.78678  0.55928  1.0000
  O   O3        1.0  0.03227  0.24174  0.56005  1.0000
  O   O4        1.0  0.03227  0.74174  0.56005  1.0000
  C   C5        1.0  0.07772  0.28586  0.26704  1.0000
  H   H1        1.0  0.08955  0.29108  0.20561  1.0000
  C   C6        1.0  0.09745  0.29770  0.34650  1.0000
  C   C7        1.0  0.07926  0.28944  0.42868  1.0000
  H   H2        1.0  0.09293  0.29737  0.48759  1.0000
  C   C8        1.0  0.07772  0.78586  0.26704  1.0000
  H   H3        1.0  0.08955  0.79108  0.20561  1.0000
  C   C9        1.0  0.09745  0.79770  0.34650  1.0000
  C   C10       1.0  0.07926  0.78944  0.42868  1.0000
  H   H4        1.0  0.09293  0.79737  0.48759  1.0000
  C   C11       1.0  0.13434  0.31704  0.34416  1.0000
  H   H5        1.0  0.14116  0.27304  0.34516  1.0000
  H   H6        1.0  0.13806  0.36656  0.34517  1.0000
  C   C12       1.0  0.13434  0.81703  0.34416  1.0000
  H   H7        1.0  0.14116  0.77304  0.34516  1.0000
  H   H8        1.0  0.13806  0.86656  0.34517  1.0000
  C   C13       1.0  0.22185  0.29340  0.26702  1.0000
  N   N5        1.0  0.24037  0.27662  0.27144  1.0000
  C   C14       1.0  0.29660  0.25831  0.28361  1.0000
  C   C15       1.0  0.31371  0.23850  0.28407  1.0000
  H   H9        1.0  0.33401  0.24531  0.24066  1.0000
  H   H10       1.0  0.21663  0.30000  0.20559  1.0000
  N   N6        1.0  0.30812  0.28783  0.22754  1.0000
  O   O5        1.0  0.30619  0.27970  0.14615  1.0000
  O   O6        1.0  0.33901  0.31064  0.24504  1.0000
  C   C16       1.0  0.21431  0.43000  0.26703  1.0000
  N   N7        1.0  0.23109  0.46529  0.27145  1.0000
  C   C17       1.0  0.24940  0.03983  0.28362  1.0000
  C   C18       1.0  0.26922  0.07675  0.28406  1.0000
  H   H11       1.0  0.26240  0.09024  0.24066  1.0000
  H   H12       1.0  0.20771  0.41817  0.20560  1.0000
  N   N8        1.0  0.21988  0.02183  0.22756  1.0000
  O   O7        1.0  0.22801  0.02803  0.14616  1.0000
  O   O8        1.0  0.19707  0.52991  0.24506  1.0000
  C   C19       1.0  0.46789  0.21111  0.28363  1.0000
  C   C20       1.0  0.43097  0.19401  0.28408  1.0000
  H   H13       1.0  0.41747  0.17371  0.24066  1.0000
  N   N9        1.0  0.48589  0.19959  0.22757  1.0000
  O   O9        1.0  0.47968  0.20152  0.14617  1.0000
  O   O10       1.0  0.97781  0.16871  0.24507  1.0000
  C   C21       1.0  0.15206  0.35386  0.34431  1.0000
  C   C22       1.0  0.18887  0.37338  0.34414  1.0000
  C   C23       1.0  0.20797  0.35565  0.34430  1.0000
  C   C24       1.0  0.19068  0.31884  0.34414  1.0000
  C   C25       1.0  0.15386  0.29975  0.34429  1.0000
  H   H14       1.0  0.23467  0.36966  0.34515  1.0000
  C   C26       1.0  0.37521  0.18715  0.34190  1.0000
  C   C27       1.0  0.35500  0.15030  0.34194  1.0000
  C   C28       1.0  0.31811  0.13250  0.34190  1.0000
  C   C29       1.0  0.30147  0.15271  0.34194  1.0000
  C   C30       1.0  0.32056  0.18960  0.34189  1.0000
  C   C31       1.0  0.35741  0.20624  0.34194  1.0000
  H   H15       1.0  0.27481  0.14027  0.34188  1.0000
  H   H16       1.0  0.37163  0.23290  0.34188  1.0000
  H   H17       1.0  0.36745  0.13609  0.34189  1.0000
  C   C32       1.0  0.21002  0.30129  0.34648  1.0000
  C   C33       1.0  0.24898  0.26655  0.34911  1.0000
  C   C34       1.0  0.23778  0.27394  0.43139  1.0000
  C   C35       1.0  0.21828  0.29136  0.42866  1.0000
  H   H18       1.0  0.21035  0.29711  0.48758  1.0000
  C   C36       1.0  0.26829  0.24875  0.34343  1.0000
  C   C37       1.0  0.30314  0.20948  0.34145  1.0000
  C   C38       1.0  0.27459  0.20120  0.39859  1.0000
  N   N10       1.0  0.25880  0.22068  0.39757  1.0000
  H   H19       1.0  0.26578  0.18095  0.44295  1.0000
  N   N11       1.0  0.24731  0.26533  0.51404  1.0000
  O   O11       1.0  0.22095  0.24500  0.55928  1.0000
  O   O12       1.0  0.26599  0.29208  0.56003  1.0000
  C   C39       1.0  0.20642  0.41027  0.34649  1.0000
  C   C40       1.0  0.24117  0.48398  0.34912  1.0000
  C   C41       1.0  0.23378  0.46538  0.43141  1.0000
  C   C42       1.0  0.21635  0.42846  0.42867  1.0000
  H   H20       1.0  0.21061  0.41478  0.48758  1.0000
  C   C43       1.0  0.25897  0.02108  0.34345  1.0000
  C   C44       1.0  0.29823  0.09520  0.34146  1.0000
  C   C45       1.0  0.30650  0.07493  0.39863  1.0000
  N   N12       1.0  0.28703  0.03967  0.39758  1.0000
  H   H21       1.0  0.32677  0.08637  0.44294  1.0000
  N   N13       1.0  0.24239  0.48351  0.51405  1.0000
  O   O13       1.0  0.26272  0.47748  0.55928  1.0000
  O   O14       1.0  0.21564  0.97545  0.56005  1.0000
  C   C46       1.0  0.48663  0.23943  0.34345  1.0000
  C   C47       1.0  0.41252  0.20458  0.34147  1.0000
  C   C48       1.0  0.43278  0.23311  0.39864  1.0000
  N   N14       1.0  0.46805  0.24891  0.39758  1.0000
  H   H22       1.0  0.42134  0.24194  0.44294  1.0000
  O   O15       1.0  0.53227  0.24174  0.56005  1.0000
  C   C49       1.0  0.22185  0.79340  0.26702  1.0000
  N   N15       1.0  0.24037  0.77662  0.27144  1.0000
  C   C50       1.0  0.29660  0.75831  0.28361  1.0000
  C   C51       1.0  0.31371  0.73850  0.28407  1.0000
  H   H23       1.0  0.33401  0.74531  0.24066  1.0000
  H   H24       1.0  0.21663  0.80000  0.20559  1.0000
  N   N16       1.0  0.30812  0.78783  0.22754  1.0000
  O   O16       1.0  0.30619  0.77970  0.14615  1.0000
  O   O17       1.0  0.33901  0.81064  0.24504  1.0000
  C   C52       1.0  0.21431  0.92999  0.26703  1.0000
  N   N17       1.0  0.23109  0.96529  0.27145  1.0000
  C   C53       1.0  0.24940  0.53983  0.28362  1.0000
  C   C54       1.0  0.26922  0.57675  0.28406  1.0000
  H   H25       1.0  0.26240  0.59024  0.24066  1.0000
  H   H26       1.0  0.20771  0.91817  0.20560  1.0000
  N   N18       1.0  0.21988  0.52183  0.22756  1.0000
  O   O18       1.0  0.22801  0.52803  0.14616  1.0000
  O   O19       1.0  0.19707  0.02991  0.24506  1.0000
  C   C55       1.0  0.46789  0.71111  0.28363  1.0000
  C   C56       1.0  0.43097  0.69401  0.28408  1.0000
  H   H27       1.0  0.41747  0.67370  0.24066  1.0000
  N   N19       1.0  0.48589  0.69959  0.22757  1.0000
  O   O20       1.0  0.47968  0.70152  0.14617  1.0000
  O   O21       1.0  0.97781  0.66871  0.24507  1.0000
  C   C57       1.0  0.15206  0.85386  0.34431  1.0000
  C   C58       1.0  0.18887  0.87338  0.34414  1.0000
  C   C59       1.0  0.20797  0.85565  0.34430  1.0000
  C   C60       1.0  0.19068  0.81884  0.34414  1.0000
  C   C61       1.0  0.15386  0.79975  0.34429  1.0000
  H   H28       1.0  0.23467  0.86965  0.34515  1.0000
  C   C62       1.0  0.37521  0.68715  0.34190  1.0000
  C   C63       1.0  0.35500  0.65030  0.34194  1.0000
  C   C64       1.0  0.31811  0.63250  0.34190  1.0000
  C   C65       1.0  0.30148  0.65271  0.34194  1.0000
  C   C66       1.0  0.32056  0.68960  0.34189  1.0000
  C   C67       1.0  0.35741  0.70624  0.34194  1.0000
  H   H29       1.0  0.27481  0.64027  0.34188  1.0000
  H   H30       1.0  0.37163  0.73290  0.34188  1.0000
  H   H31       1.0  0.36745  0.63608  0.34189  1.0000
  C   C68       1.0  0.21002  0.80129  0.34648  1.0000
  C   C69       1.0  0.24898  0.76655  0.34911  1.0000
  C   C70       1.0  0.23778  0.77394  0.43139  1.0000
  C   C71       1.0  0.21828  0.79136  0.42866  1.0000
  H   H32       1.0  0.21035  0.79711  0.48758  1.0000
  C   C72       1.0  0.26829  0.74875  0.34343  1.0000
  C   C73       1.0  0.30314  0.70948  0.34145  1.0000
  C   C74       1.0  0.27459  0.70120  0.39859  1.0000
  N   N20       1.0  0.25880  0.72068  0.39757  1.0000
  H   H33       1.0  0.26578  0.68095  0.44295  1.0000
  N   N21       1.0  0.24731  0.76533  0.51404  1.0000
  O   O22       1.0  0.22095  0.74500  0.55928  1.0000
  O   O23       1.0  0.26599  0.79208  0.56003  1.0000
  C   C75       1.0  0.20642  0.91027  0.34649  1.0000
  C   C76       1.0  0.24117  0.98398  0.34912  1.0000
  C   C77       1.0  0.23378  0.96538  0.43141  1.0000
  C   C78       1.0  0.21635  0.92846  0.42867  1.0000
  H   H34       1.0  0.21061  0.91478  0.48758  1.0000
  C   C79       1.0  0.25897  0.52108  0.34345  1.0000
  C   C80       1.0  0.29823  0.59520  0.34146  1.0000
  C   C81       1.0  0.30650  0.57493  0.39863  1.0000
  N   N22       1.0  0.28703  0.53967  0.39758  1.0000
  H   H35       1.0  0.32677  0.58637  0.44294  1.0000
  N   N23       1.0  0.24239  0.98351  0.51405  1.0000
  O   O24       1.0  0.26272  0.97748  0.55928  1.0000
  O   O25       1.0  0.21564  0.47544  0.56005  1.0000
  C   C82       1.0  0.48663  0.73943  0.34345  1.0000
  C   C83       1.0  0.41252  0.70458  0.34147  1.0000
  C   C84       1.0  0.43278  0.73311  0.39864  1.0000
  N   N24       1.0  0.46805  0.74891  0.39758  1.0000
  H   H36       1.0  0.42134  0.74194  0.44294  1.0000
  O   O26       1.0  0.53227  0.74174  0.56005  1.0000
  C   C85       1.0  0.72185  0.29340  0.26702  1.0000
  N   N25       1.0  0.74037  0.27662  0.27144  1.0000
  C   C86       1.0  0.79660  0.25831  0.28361  1.0000
  C   C87       1.0  0.81371  0.23850  0.28407  1.0000
  H   H37       1.0  0.83401  0.24531  0.24066  1.0000
  H   H38       1.0  0.71663  0.30000  0.20559  1.0000
  N   N26       1.0  0.80812  0.28783  0.22754  1.0000
  O   O27       1.0  0.80619  0.27970  0.14615  1.0000
  O   O28       1.0  0.83901  0.31064  0.24504  1.0000
  C   C88       1.0  0.71431  0.43000  0.26703  1.0000
  N   N27       1.0  0.73109  0.46529  0.27145  1.0000
  C   C89       1.0  0.74940  0.03983  0.28362  1.0000
  C   C90       1.0  0.76922  0.07675  0.28406  1.0000
  H   H39       1.0  0.76240  0.09024  0.24066  1.0000
  H   H40       1.0  0.70771  0.41817  0.20560  1.0000
  N   N28       1.0  0.71988  0.02183  0.22756  1.0000
  O   O29       1.0  0.72801  0.02803  0.14616  1.0000
  O   O30       1.0  0.69708  0.52991  0.24506  1.0000
  C   C91       1.0  0.57772  0.28586  0.26704  1.0000
  N   N29       1.0  0.54243  0.26734  0.27145  1.0000
  C   C92       1.0  0.96789  0.21111  0.28363  1.0000
  C   C93       1.0  0.93097  0.19401  0.28408  1.0000
  H   H41       1.0  0.91748  0.17371  0.24066  1.0000
  H   H42       1.0  0.58955  0.29108  0.20561  1.0000
  N   N30       1.0  0.98589  0.19959  0.22757  1.0000
  O   O31       1.0  0.97968  0.20152  0.14617  1.0000
  O   O32       1.0  0.47781  0.16871  0.24507  1.0000
  C   C94       1.0  0.63434  0.31704  0.34416  1.0000
  C   C95       1.0  0.65206  0.35386  0.34431  1.0000
  C   C96       1.0  0.68887  0.37338  0.34414  1.0000
  C   C97       1.0  0.70797  0.35565  0.34430  1.0000
  C   C98       1.0  0.69068  0.31884  0.34414  1.0000
  C   C99       1.0  0.65386  0.29975  0.34429  1.0000
  H   H43       1.0  0.73467  0.36966  0.34515  1.0000
  H   H44       1.0  0.64116  0.27304  0.34516  1.0000
  H   H45       1.0  0.63806  0.36656  0.34517  1.0000
  C   C100      1.0  0.87521  0.18715  0.34190  1.0000
  C   C101      1.0  0.85500  0.15030  0.34194  1.0000
  C   C102      1.0  0.81811  0.13250  0.34190  1.0000
  C   C103      1.0  0.80148  0.15271  0.34194  1.0000
  C   C104      1.0  0.82056  0.18960  0.34189  1.0000
  C   C105      1.0  0.85741  0.20624  0.34194  1.0000
  H   H46       1.0  0.77481  0.14027  0.34188  1.0000
  H   H47       1.0  0.87163  0.23290  0.34188  1.0000
  H   H48       1.0  0.86745  0.13609  0.34189  1.0000
  C   C106      1.0  0.71001  0.30129  0.34648  1.0000
  C   C107      1.0  0.74898  0.26655  0.34911  1.0000
  C   C108      1.0  0.73778  0.27394  0.43139  1.0000
  C   C109      1.0  0.71828  0.29136  0.42866  1.0000
  H   H49       1.0  0.71035  0.29711  0.48758  1.0000
  C   C110      1.0  0.76829  0.24875  0.34343  1.0000
  C   C111      1.0  0.80314  0.20948  0.34145  1.0000
  C   C112      1.0  0.77459  0.20120  0.39859  1.0000
  N   N31       1.0  0.75880  0.22068  0.39757  1.0000
  H   H50       1.0  0.76578  0.18095  0.44295  1.0000
  N   N32       1.0  0.74731  0.26533  0.51404  1.0000
  O   O33       1.0  0.72095  0.24500  0.55928  1.0000
  O   O34       1.0  0.76599  0.29208  0.56003  1.0000
  C   C113      1.0  0.70642  0.41027  0.34649  1.0000
  C   C114      1.0  0.74117  0.48398  0.34912  1.0000
  C   C115      1.0  0.73378  0.46538  0.43141  1.0000
  C   C116      1.0  0.71635  0.42846  0.42867  1.0000
  H   H51       1.0  0.71061  0.41478  0.48758  1.0000
  C   C117      1.0  0.75897  0.02108  0.34345  1.0000
  C   C118      1.0  0.79823  0.09520  0.34146  1.0000
  C   C119      1.0  0.80650  0.07493  0.39863  1.0000
  N   N33       1.0  0.78703  0.03967  0.39758  1.0000
  H   H52       1.0  0.82677  0.08637  0.44294  1.0000
  N   N34       1.0  0.74239  0.48351  0.51405  1.0000
  O   O35       1.0  0.76272  0.47748  0.55928  1.0000
  O   O36       1.0  0.71564  0.97545  0.56005  1.0000
  C   C120      1.0  0.59745  0.29770  0.34650  1.0000
  C   C121      1.0  0.52374  0.25873  0.34912  1.0000
  C   C122      1.0  0.54234  0.26994  0.43141  1.0000
  C   C123      1.0  0.57926  0.28944  0.42868  1.0000
  H   H53       1.0  0.59293  0.29737  0.48759  1.0000
  C   C124      1.0  0.98663  0.23943  0.34345  1.0000
  C   C125      1.0  0.91252  0.20458  0.34147  1.0000
  C   C126      1.0  0.93278  0.23311  0.39864  1.0000
  N   N35       1.0  0.96805  0.24891  0.39758  1.0000
  H   H54       1.0  0.92134  0.24194  0.44294  1.0000
  N   N36       1.0  0.52420  0.26042  0.51405  1.0000
  O   O37       1.0  0.53023  0.28678  0.55928  1.0000
  C   C127      1.0  0.72186  0.79340  0.26702  1.0000
  N   N37       1.0  0.74037  0.77662  0.27144  1.0000
  C   C128      1.0  0.79660  0.75831  0.28361  1.0000
  C   C129      1.0  0.81371  0.73850  0.28407  1.0000
  H   H55       1.0  0.83401  0.74531  0.24066  1.0000
  H   H56       1.0  0.71663  0.80000  0.20559  1.0000
  N   N38       1.0  0.80812  0.78783  0.22754  1.0000
  O   O38       1.0  0.80619  0.77970  0.14615  1.0000
  O   O39       1.0  0.83900  0.81064  0.24504  1.0000
  C   C130      1.0  0.71431  0.92999  0.26703  1.0000
  N   N39       1.0  0.73109  0.96529  0.27145  1.0000
  C   C131      1.0  0.74940  0.53983  0.28362  1.0000
  C   C132      1.0  0.76922  0.57675  0.28406  1.0000
  H   H57       1.0  0.76240  0.59024  0.24066  1.0000
  H   H58       1.0  0.70771  0.91817  0.20560  1.0000
  N   N40       1.0  0.71988  0.52183  0.22756  1.0000
  O   O40       1.0  0.72801  0.52803  0.14616  1.0000
  O   O41       1.0  0.69708  0.02991  0.24506  1.0000
  C   C133      1.0  0.57772  0.78586  0.26704  1.0000
  N   N41       1.0  0.54243  0.76735  0.27145  1.0000
  C   C134      1.0  0.96789  0.71111  0.28363  1.0000
  C   C135      1.0  0.93097  0.69401  0.28408  1.0000
  H   H59       1.0  0.91748  0.67370  0.24066  1.0000
  H   H60       1.0  0.58955  0.79108  0.20561  1.0000
  N   N42       1.0  0.98589  0.69959  0.22757  1.0000
  O   O42       1.0  0.97968  0.70152  0.14617  1.0000
  O   O43       1.0  0.47781  0.66871  0.24507  1.0000
  C   C136      1.0  0.63433  0.81703  0.34416  1.0000
  C   C137      1.0  0.65206  0.85386  0.34431  1.0000
  C   C138      1.0  0.68887  0.87338  0.34414  1.0000
  C   C139      1.0  0.70797  0.85565  0.34430  1.0000
  C   C140      1.0  0.69068  0.81884  0.34414  1.0000
  C   C141      1.0  0.65386  0.79975  0.34429  1.0000
  H   H61       1.0  0.73467  0.86965  0.34515  1.0000
  H   H62       1.0  0.64116  0.77304  0.34516  1.0000
  H   H63       1.0  0.63806  0.86656  0.34517  1.0000
  C   C142      1.0  0.87521  0.68715  0.34190  1.0000
  C   C143      1.0  0.85500  0.65030  0.34194  1.0000
  C   C144      1.0  0.81811  0.63250  0.34190  1.0000
  C   C145      1.0  0.80148  0.65271  0.34194  1.0000
  C   C146      1.0  0.82056  0.68960  0.34189  1.0000
  C   C147      1.0  0.85741  0.70624  0.34194  1.0000
  H   H64       1.0  0.77481  0.64027  0.34188  1.0000
  H   H65       1.0  0.87163  0.73290  0.34188  1.0000
  H   H66       1.0  0.86745  0.63608  0.34189  1.0000
  C   C148      1.0  0.71002  0.80129  0.34648  1.0000
  C   C149      1.0  0.74898  0.76655  0.34911  1.0000
  C   C150      1.0  0.73778  0.77394  0.43139  1.0000
  C   C151      1.0  0.71828  0.79136  0.42866  1.0000
  H   H67       1.0  0.71035  0.79711  0.48758  1.0000
  C   C152      1.0  0.76829  0.74875  0.34343  1.0000
  C   C153      1.0  0.80314  0.70948  0.34145  1.0000
  C   C154      1.0  0.77459  0.70120  0.39859  1.0000
  N   N43       1.0  0.75880  0.72068  0.39757  1.0000
  H   H68       1.0  0.76578  0.68095  0.44295  1.0000
  N   N44       1.0  0.74731  0.76533  0.51404  1.0000
  O   O44       1.0  0.72095  0.74500  0.55928  1.0000
  O   O45       1.0  0.76599  0.79208  0.56003  1.0000
  C   C155      1.0  0.70642  0.91027  0.34649  1.0000
  C   C156      1.0  0.74117  0.98398  0.34912  1.0000
  C   C157      1.0  0.73378  0.96538  0.43141  1.0000
  C   C158      1.0  0.71635  0.92846  0.42867  1.0000
  H   H69       1.0  0.71062  0.91478  0.48758  1.0000
  C   C159      1.0  0.75897  0.52108  0.34345  1.0000
  C   C160      1.0  0.79823  0.59520  0.34146  1.0000
  C   C161      1.0  0.80650  0.57493  0.39863  1.0000
  N   N45       1.0  0.78703  0.53967  0.39758  1.0000
  H   H70       1.0  0.82677  0.58637  0.44294  1.0000
  N   N46       1.0  0.74239  0.98351  0.51405  1.0000
  O   O46       1.0  0.76272  0.97748  0.55928  1.0000
  O   O47       1.0  0.71564  0.47544  0.56005  1.0000
  C   C162      1.0  0.59745  0.79770  0.34650  1.0000
  C   C163      1.0  0.52374  0.75873  0.34912  1.0000
  C   C164      1.0  0.54234  0.76994  0.43141  1.0000
  C   C165      1.0  0.57926  0.78944  0.42868  1.0000
  H   H71       1.0  0.59293  0.79737  0.48759  1.0000
  C   C166      1.0  0.98663  0.73943  0.34345  1.0000
  C   C167      1.0  0.91252  0.70458  0.34147  1.0000
  C   C168      1.0  0.93278  0.73311  0.39864  1.0000
  N   N47       1.0  0.96805  0.74891  0.39758  1.0000
  H   H72       1.0  0.92134  0.74194  0.44294  1.0000
  N   N48       1.0  0.52420  0.76042  0.51405  1.0000
  O   O48       1.0  0.53023  0.78678  0.55928  1.0000
