data_image0
_chemical_formula_structural       C3NC3NC5NC4NC35H25C21H18C16H16C4H4C4H4C6H4C4H4C4H4C6H4C18H17C3NC3NC2NC5NC34H24C3NC3NC5NC5NC36H26C4HC4H2NO2C4HC4H2NO2C3HC3H2NO2C4HC4H2NO2C4HC4H2NO2C3HC3H2NO2
_chemical_formula_sum              "C276 N18 H168 O12"
_cell_length_a       67.2463
_cell_length_b       67.2462
_cell_length_c       14.9594
_cell_angle_alpha    89.8026
_cell_angle_beta     90.1974
_cell_angle_gamma    120

_space_group_name_H-M_alt    "P 1"
_space_group_IT_number       1

loop_
  _space_group_symop_operation_xyz
  'x, y, z'

loop_
  _atom_site_type_symbol
  _atom_site_label
  _atom_site_symmetry_multiplicity
  _atom_site_fract_x
  _atom_site_fract_y
  _atom_site_fract_z
  _atom_site_occupancy
  C   C1        1.0  0.01829  0.48834  0.34594  1.0000
  C   C2        1.0  0.04200  0.50022  0.34464  1.0000
  C   C3        1.0  0.04946  0.52366  0.33889  1.0000
  N   N1        1.0  0.03006  0.52510  0.33644  1.0000
  C   C4        1.0  0.01071  0.50423  0.34020  1.0000
  C   C5        1.0  0.98730  0.49859  0.33855  1.0000
  C   C6        1.0  0.97976  0.51492  0.33549  1.0000
  N   N2        1.0  0.99272  0.53807  0.33725  1.0000
  C   C7        1.0  0.97974  0.54824  0.33390  1.0000
  C   C8        1.0  0.95695  0.53044  0.32983  1.0000
  C   C9        1.0  0.95696  0.50992  0.33058  1.0000
  C   C10       1.0  0.98726  0.57209  0.33559  1.0000
  C   C11       1.0  0.01063  0.58990  0.33886  1.0000
  N   N3        1.0  0.03003  0.58847  0.33636  1.0000
  C   C12       1.0  0.04938  0.60933  0.34022  1.0000
  C   C13       1.0  0.04180  0.62521  0.34611  1.0000
  C   C14       1.0  0.01809  0.61334  0.34477  1.0000
  C   C15       1.0  0.07279  0.61498  0.33853  1.0000
  N   N4        1.0  0.06736  0.57550  0.33733  1.0000
  C   C16       1.0  0.08034  0.56533  0.33393  1.0000
  C   C17       1.0  0.10312  0.58314  0.32981  1.0000
  C   C18       1.0  0.10311  0.60366  0.33050  1.0000
  C   C19       1.0  0.07282  0.54148  0.33567  1.0000
  C   C20       1.0  0.09009  0.53510  0.33465  1.0000
  C   C21       1.0  0.09902  0.53267  0.25275  1.0000
  C   C22       1.0  0.11711  0.52785  0.25169  1.0000
  C   C23       1.0  0.12676  0.52525  0.33220  1.0000
  C   C24       1.0  0.14590  0.52151  0.33098  1.0000
  C   C25       1.0  0.18410  0.53156  0.27467  1.0000
  C   C26       1.0  0.16491  0.53467  0.27448  1.0000
  C   C27       1.0  0.09005  0.63866  0.34134  1.0000
  C   C28       1.0  0.09592  0.65242  0.26360  1.0000
  C   C29       1.0  0.11389  0.67542  0.26548  1.0000
  C   C30       1.0  0.12664  0.68517  0.34468  1.0000
  C   C31       1.0  0.14589  0.70792  0.34499  1.0000
  C   C32       1.0  0.14445  0.72662  0.30858  1.0000
  C   C33       1.0  0.16371  0.74893  0.30768  1.0000
  C   C34       1.0  0.18517  0.75319  0.34140  1.0000
  C   C35       1.0  0.97000  0.57849  0.33457  1.0000
  C   C36       1.0  0.93365  0.58880  0.33215  1.0000
  C   C37       1.0  0.94303  0.58603  0.25163  1.0000
  C   C38       1.0  0.96098  0.58099  0.25268  1.0000
  C   C39       1.0  0.91473  0.59289  0.33095  1.0000
  C   C40       1.0  0.89556  0.57993  0.27476  1.0000
  C   C41       1.0  0.87661  0.58344  0.27482  1.0000
  C   C42       1.0  0.87606  0.60010  0.33075  1.0000
  C   C43       1.0  0.97003  0.47492  0.34147  1.0000
  C   C44       1.0  0.96385  0.46127  0.26356  1.0000
  C   C45       1.0  0.94575  0.43835  0.26545  1.0000
  C   C46       1.0  0.93315  0.42855  0.34483  1.0000
  C   C47       1.0  0.91368  0.40592  0.34508  1.0000
  C   C48       1.0  0.87394  0.36097  0.34124  1.0000
  C   C49       1.0  0.89521  0.36496  0.30689  1.0000
  C   C50       1.0  0.91469  0.38712  0.30790  1.0000
  H   H1        1.0  0.89654  0.35185  0.27848  1.0000
  H   H2        1.0  0.92974  0.38938  0.28184  1.0000
  H   H3        1.0  0.94121  0.42917  0.20717  1.0000
  H   H4        1.0  0.97213  0.46811  0.20445  1.0000
  H   H5        1.0  0.00842  0.47087  0.34999  1.0000
  H   H6        1.0  0.05195  0.49269  0.34776  1.0000
  H   H7        1.0  0.03003  0.53929  0.32971  1.0000
  H   H8        1.0  0.03005  0.57429  0.32943  1.0000
  H   H9        1.0  0.94253  0.49409  0.32775  1.0000
  H   H10       1.0  0.94251  0.53184  0.32679  1.0000
  H   H11       1.0  0.96718  0.57882  0.19331  1.0000
  H   H12       1.0  0.93688  0.58769  0.19108  1.0000
  H   H13       1.0  0.00815  0.62086  0.34799  1.0000
  H   H14       1.0  0.05167  0.64268  0.35035  1.0000
  H   H15       1.0  0.11754  0.61949  0.32759  1.0000
  H   H16       1.0  0.08750  0.64565  0.20463  1.0000
  H   H17       1.0  0.11818  0.68470  0.20733  1.0000
  H   H18       1.0  0.16206  0.76196  0.27982  1.0000
  H   H19       1.0  0.12926  0.72417  0.28298  1.0000
  H   H20       1.0  0.16531  0.54723  0.23444  1.0000
  H   H21       1.0  0.19772  0.54202  0.23475  1.0000
  H   H22       1.0  0.12322  0.52628  0.19113  1.0000
  H   H23       1.0  0.09268  0.53479  0.19338  1.0000
  H   H24       1.0  0.89487  0.56726  0.23491  1.0000
  H   H25       1.0  0.86285  0.57312  0.23512  1.0000
  C   C51       1.0  0.54014  0.51810  0.33668  1.0000
  C   C52       1.0  0.55794  0.51312  0.33268  1.0000
  C   C53       1.0  0.57845  0.53364  0.33338  1.0000
  C   C54       1.0  0.55571  0.65307  0.25544  1.0000
  C   C55       1.0  0.56051  0.67598  0.25437  1.0000
  C   C56       1.0  0.55683  0.73923  0.27724  1.0000
  C   C57       1.0  0.55370  0.71693  0.27714  1.0000
  C   C58       1.0  0.43597  0.53022  0.26607  1.0000
  C   C59       1.0  0.41298  0.52519  0.26782  1.0000
  C   C60       1.0  0.36177  0.50447  0.31063  1.0000
  C   C61       1.0  0.33946  0.50143  0.30953  1.0000
  C   C62       1.0  0.33519  0.51858  0.34319  1.0000
  C   C63       1.0  0.50236  0.44374  0.25433  1.0000
  C   C64       1.0  0.50739  0.46672  0.25538  1.0000
  C   C65       1.0  0.50846  0.40232  0.27748  1.0000
  C   C66       1.0  0.50496  0.37987  0.27754  1.0000
  C   C67       1.0  0.62708  0.58927  0.26605  1.0000
  C   C68       1.0  0.65000  0.59409  0.26782  1.0000
  C   C69       1.0  0.72740  0.59955  0.34303  1.0000
  C   C70       1.0  0.72340  0.61688  0.30876  1.0000
  C   C71       1.0  0.70124  0.61421  0.31001  1.0000
  H   H26       1.0  0.73649  0.63136  0.28026  1.0000
  H   H27       1.0  0.69897  0.62703  0.28397  1.0000
  H   H28       1.0  0.65917  0.59882  0.20952  1.0000
  H   H29       1.0  0.62022  0.59079  0.20697  1.0000
  H   H30       1.0  0.59429  0.53505  0.33059  1.0000
  H   H31       1.0  0.50958  0.47519  0.19602  1.0000
  H   H32       1.0  0.50071  0.43602  0.19377  1.0000
  H   H33       1.0  0.46751  0.47385  0.35029  1.0000
  H   H34       1.0  0.44277  0.52867  0.20714  1.0000
  H   H35       1.0  0.40371  0.52028  0.20965  1.0000
  H   H36       1.0  0.32644  0.48680  0.28161  1.0000
  H   H37       1.0  0.36422  0.49176  0.28511  1.0000
  H   H38       1.0  0.54114  0.70482  0.23709  1.0000
  H   H39       1.0  0.54634  0.74244  0.23741  1.0000
  H   H40       1.0  0.56207  0.68374  0.19380  1.0000
  H   H41       1.0  0.55356  0.64469  0.19609  1.0000
  H   H42       1.0  0.52113  0.41437  0.23762  1.0000
  H   H43       1.0  0.51528  0.37650  0.23781  1.0000
  C   C72       1.0  0.43541  0.98943  0.25673  1.0000
  C   C73       1.0  0.41250  0.97132  0.25518  1.0000
  C   C74       1.0  0.34923  0.90433  0.27656  1.0000
  C   C75       1.0  0.37153  0.92351  0.27695  1.0000
  C   C76       1.0  0.55819  0.99247  0.26856  1.0000
  C   C77       1.0  0.56324  0.97452  0.27039  1.0000
  C   C78       1.0  0.58393  0.94394  0.31327  1.0000
  C   C79       1.0  0.58697  0.92468  0.31220  1.0000
  C   C80       1.0  0.64453  0.14526  0.25505  1.0000
  C   C81       1.0  0.62155  0.12732  0.25659  1.0000
  C   C82       1.0  0.68598  0.19275  0.27709  1.0000
  C   C83       1.0  0.70844  0.21169  0.27663  1.0000
  C   C84       1.0  0.49909  0.12450  0.26849  1.0000
  C   C85       1.0  0.49424  0.14259  0.27034  1.0000
  C   C86       1.0  0.47149  0.19315  0.31140  1.0000
  C   C87       1.0  0.47416  0.17366  0.31262  1.0000
  H   H44       1.0  0.45701  0.19181  0.28292  1.0000
  H   H45       1.0  0.46133  0.15861  0.28657  1.0000
  H   H46       1.0  0.48954  0.14714  0.21203  1.0000
  H   H47       1.0  0.49756  0.11622  0.20940  1.0000
  H   H48       1.0  0.61301  0.12106  0.19740  1.0000
  H   H49       1.0  0.65217  0.15135  0.19432  1.0000
  H   H50       1.0  0.55974  0.00090  0.20962  1.0000
  H   H51       1.0  0.56812  0.97023  0.21220  1.0000
  H   H52       1.0  0.60160  0.92632  0.28426  1.0000
  H   H53       1.0  0.59664  0.95914  0.28772  1.0000
  H   H54       1.0  0.38369  0.92315  0.23708  1.0000
  H   H55       1.0  0.34606  0.89075  0.23649  1.0000
  H   H56       1.0  0.40481  0.96528  0.19445  1.0000
  H   H57       1.0  0.44386  0.99581  0.19753  1.0000
  H   H58       1.0  0.67388  0.19341  0.23750  1.0000
  H   H59       1.0  0.71176  0.22541  0.23679  1.0000
  C   C88       1.0  0.21647  0.51310  0.25272  1.0000
  C   C89       1.0  0.23698  0.51236  0.25457  1.0000
  C   C90       1.0  0.28794  0.53195  0.30199  1.0000
  C   C91       1.0  0.30977  0.53395  0.30419  1.0000
  H   H60       1.0  0.28644  0.54536  0.27728  1.0000
  H   H61       1.0  0.32344  0.54862  0.27946  1.0000
  H   H62       1.0  0.21009  0.51425  0.19193  1.0000
  H   H63       1.0  0.24493  0.51320  0.19526  1.0000
  C   C92       1.0  0.57527  0.79009  0.25533  1.0000
  C   C93       1.0  0.57602  0.81134  0.25720  1.0000
  C   C94       1.0  0.55645  0.84265  0.30456  1.0000
  C   C95       1.0  0.55444  0.86248  0.30680  1.0000
  H   H64       1.0  0.54302  0.82778  0.27990  1.0000
  H   H65       1.0  0.53978  0.86152  0.28209  1.0000
  H   H66       1.0  0.57411  0.78265  0.19455  1.0000
  H   H67       1.0  0.57517  0.81854  0.19787  1.0000
  C   C96       1.0  0.30934  0.88340  0.33357  1.0000
  C   C97       1.0  0.29839  0.87201  0.25345  1.0000
  C   C98       1.0  0.27713  0.85151  0.25476  1.0000
  C   C99       1.0  0.24575  0.80050  0.30107  1.0000
  C   C100      1.0  0.22592  0.77866  0.30289  1.0000
  C   C101      1.0  0.20500  0.77553  0.33766  1.0000
  H   H68       1.0  0.26065  0.80202  0.27659  1.0000
  H   H69       1.0  0.22691  0.76502  0.27807  1.0000
  H   H70       1.0  0.30592  0.87846  0.19284  1.0000
  H   H71       1.0  0.27001  0.84362  0.19525  1.0000
  C   C102      1.0  0.84488  0.60270  0.25238  1.0000
  C   C103      1.0  0.82460  0.60387  0.25417  1.0000
  C   C104      1.0  0.77385  0.58512  0.30202  1.0000
  C   C105      1.0  0.75220  0.58353  0.30428  1.0000
  H   H72       1.0  0.77502  0.57153  0.27766  1.0000
  H   H73       1.0  0.73833  0.56897  0.28000  1.0000
  H   H74       1.0  0.85108  0.60139  0.19163  1.0000
  H   H75       1.0  0.81662  0.60316  0.19485  1.0000
  C   C106      1.0  0.48570  0.32891  0.25503  1.0000
  C   C107      1.0  0.48452  0.30746  0.25681  1.0000
  C   C108      1.0  0.50327  0.27537  0.30465  1.0000
  C   C109      1.0  0.50485  0.25531  0.30692  1.0000
  H   H76       1.0  0.51686  0.29017  0.28031  1.0000
  H   H77       1.0  0.51942  0.25603  0.28262  1.0000
  H   H78       1.0  0.48701  0.33652  0.19429  1.0000
  H   H79       1.0  0.48524  0.30029  0.19749  1.0000
  C   C110      1.0  0.74844  0.23198  0.33323  1.0000
  C   C111      1.0  0.75937  0.24338  0.25309  1.0000
  C   C112      1.0  0.78083  0.26366  0.25435  1.0000
  C   C113      1.0  0.81298  0.31446  0.30111  1.0000
  C   C114      1.0  0.83304  0.33612  0.30301  1.0000
  C   C115      1.0  0.85388  0.33880  0.33733  1.0000
  H   H80       1.0  0.79815  0.31326  0.27701  1.0000
  H   H81       1.0  0.83228  0.34996  0.27859  1.0000
  H   H82       1.0  0.75168  0.23711  0.19253  1.0000
  H   H83       1.0  0.78793  0.27156  0.19484  1.0000
  C   C116      1.0  0.08033  0.59866  0.33547  1.0000
  C   C117      1.0  0.11739  0.52732  0.41399  1.0000
  C   C118      1.0  0.09939  0.53230  0.41532  1.0000
  C   C119      1.0  0.14681  0.50503  0.38735  1.0000
  C   C120      1.0  0.16599  0.50186  0.38722  1.0000
  C   C121      1.0  0.18506  0.51508  0.33096  1.0000
  C   C122      1.0  0.12045  0.67133  0.42256  1.0000
  C   C123      1.0  0.10233  0.64844  0.42114  1.0000
  C   C124      1.0  0.18659  0.73449  0.37777  1.0000
  C   C125      1.0  0.16727  0.71229  0.38007  1.0000
  C   C126      1.0  0.96094  0.58142  0.41524  1.0000
  C   C127      1.0  0.94309  0.58661  0.41392  1.0000
  C   C128      1.0  0.89529  0.61311  0.38675  1.0000
  C   C129      1.0  0.91423  0.60955  0.38697  1.0000
  C   C130      1.0  0.95793  0.46507  0.42147  1.0000
  C   C131      1.0  0.93967  0.44225  0.42290  1.0000
  C   C132      1.0  0.89249  0.40181  0.38076  1.0000
  C   C133      1.0  0.87295  0.37977  0.37836  1.0000
  H   H84       1.0  0.85793  0.37757  0.40460  1.0000
  H   H85       1.0  0.89090  0.41500  0.40684  1.0000
  H   H86       1.0  0.93106  0.43575  0.48169  1.0000
  H   H87       1.0  0.96196  0.47464  0.47870  1.0000
  H   H88       1.0  0.96701  0.57940  0.47545  1.0000
  H   H89       1.0  0.93648  0.58796  0.47362  1.0000
  H   H90       1.0  0.11756  0.58175  0.32670  1.0000
  H   H91       1.0  0.09849  0.63879  0.47827  1.0000
  H   H92       1.0  0.12916  0.67780  0.48124  1.0000
  H   H93       1.0  0.16917  0.69919  0.40557  1.0000
  H   H94       1.0  0.20175  0.73688  0.40355  1.0000
  H   H95       1.0  0.09342  0.53431  0.47552  1.0000
  H   H96       1.0  0.12419  0.52612  0.47368  1.0000
  H   H97       1.0  0.16576  0.48954  0.42827  1.0000
  H   H98       1.0  0.13332  0.49493  0.42849  1.0000
  H   H99       1.0  0.92786  0.61952  0.42783  1.0000
  H   H100      1.0  0.89582  0.62556  0.42749  1.0000
  C   C134      1.0  0.60004  0.61653  0.34849  1.0000
  C   C135      1.0  0.58816  0.62836  0.34721  1.0000
  C   C136      1.0  0.56471  0.61239  0.34155  1.0000
  N   N5        1.0  0.56328  0.59155  0.33913  1.0000
  C   C137      1.0  0.58414  0.59307  0.34283  1.0000
  C   C138      1.0  0.58978  0.57530  0.34119  1.0000
  C   C139      1.0  0.57346  0.55144  0.33819  1.0000
  N   N6        1.0  0.55030  0.54124  0.33995  1.0000
  C   C140      1.0  0.51629  0.50177  0.33833  1.0000
  C   C141      1.0  0.49847  0.50731  0.34144  1.0000
  N   N7        1.0  0.49990  0.52815  0.33898  1.0000
  C   C142      1.0  0.47904  0.52663  0.34277  1.0000
  C   C143      1.0  0.46315  0.50316  0.34844  1.0000
  C   C144      1.0  0.47503  0.49133  0.34713  1.0000
  C   C145      1.0  0.47339  0.54440  0.34119  1.0000
  C   C146      1.0  0.48971  0.56826  0.33824  1.0000
  N   N8        1.0  0.51287  0.57845  0.34005  1.0000
  C   C147      1.0  0.52304  0.60160  0.33673  1.0000
  C   C148      1.0  0.50523  0.60658  0.33265  1.0000
  C   C149      1.0  0.48472  0.58606  0.33334  1.0000
  C   C150      1.0  0.54689  0.61794  0.33840  1.0000
  C   C151      1.0  0.55328  0.64159  0.33735  1.0000
  C   C152      1.0  0.56313  0.68811  0.33486  1.0000
  C   C153      1.0  0.56104  0.67654  0.41665  1.0000
  C   C154      1.0  0.55609  0.65357  0.41802  1.0000
  C   C155      1.0  0.56687  0.71099  0.33362  1.0000
  C   C156      1.0  0.58335  0.72830  0.38997  1.0000
  C   C157      1.0  0.58652  0.75065  0.38983  1.0000
  C   C158      1.0  0.57329  0.75658  0.33358  1.0000
  C   C159      1.0  0.44971  0.53797  0.34388  1.0000
  C   C160      1.0  0.40320  0.52805  0.34699  1.0000
  C   C161      1.0  0.41701  0.53555  0.42495  1.0000
  C   C162      1.0  0.43990  0.54032  0.42365  1.0000
  C   C163      1.0  0.38045  0.52454  0.34717  1.0000
  C   C164      1.0  0.35388  0.53863  0.37971  1.0000
  C   C165      1.0  0.37607  0.54151  0.38213  1.0000
  C   C166      1.0  0.50988  0.47811  0.33728  1.0000
  C   C167      1.0  0.50693  0.46598  0.41795  1.0000
  C   C168      1.0  0.50175  0.44295  0.41661  1.0000
  C   C169      1.0  0.49957  0.43145  0.33484  1.0000
  C   C170      1.0  0.49549  0.40845  0.33363  1.0000
  C   C171      1.0  0.48829  0.36256  0.33344  1.0000
  C   C172      1.0  0.47527  0.36869  0.38942  1.0000
  C   C173      1.0  0.47882  0.39119  0.38963  1.0000
  C   C174      1.0  0.61346  0.58170  0.34402  1.0000
  C   C175      1.0  0.62333  0.57935  0.42398  1.0000
  C   C176      1.0  0.65983  0.59119  0.34716  1.0000
  C   C177      1.0  0.64615  0.58390  0.42530  1.0000
  C   C178      1.0  0.68246  0.59435  0.34730  1.0000
  C   C179      1.0  0.68658  0.57722  0.38292  1.0000
  C   C180      1.0  0.70862  0.57971  0.38032  1.0000
  H   H101      1.0  0.71083  0.56686  0.40647  1.0000
  H   H102      1.0  0.67340  0.56240  0.40907  1.0000
  H   H103      1.0  0.65267  0.58171  0.48406  1.0000
  H   H104      1.0  0.61378  0.57371  0.48123  1.0000
  H   H105      1.0  0.61751  0.62413  0.35247  1.0000
  H   H106      1.0  0.59568  0.64584  0.35028  1.0000
  H   H107      1.0  0.54908  0.57734  0.33249  1.0000
  H   H108      1.0  0.51410  0.54238  0.33255  1.0000
  H   H109      1.0  0.55654  0.49729  0.32970  1.0000
  H   H110      1.0  0.50896  0.47398  0.47816  1.0000
  H   H111      1.0  0.50040  0.43489  0.47631  1.0000
  H   H112      1.0  0.44569  0.49555  0.35260  1.0000
  H   H113      1.0  0.50662  0.62242  0.32958  1.0000
  H   H114      1.0  0.46888  0.58466  0.33044  1.0000
  H   H115      1.0  0.44953  0.54604  0.48083  1.0000
  H   H116      1.0  0.41052  0.53770  0.48360  1.0000
  H   H117      1.0  0.38916  0.55645  0.40781  1.0000
  H   H118      1.0  0.35148  0.55136  0.40544  1.0000
  H   H119      1.0  0.55407  0.64550  0.47823  1.0000
  H   H120      1.0  0.56227  0.68447  0.47634  1.0000
  H   H121      1.0  0.59883  0.76267  0.43089  1.0000
  H   H122      1.0  0.59345  0.72485  0.43111  1.0000
  H   H123      1.0  0.46884  0.39478  0.43047  1.0000
  H   H124      1.0  0.46282  0.35671  0.43012  1.0000
  C   C181      1.0  0.47183  0.07006  0.35049  1.0000
  C   C182      1.0  0.46000  0.04635  0.34906  1.0000
  C   C183      1.0  0.47598  0.03889  0.34354  1.0000
  N   N9        1.0  0.49682  0.05830  0.34129  1.0000
  C   C184      1.0  0.49530  0.07765  0.34505  1.0000
  C   C185      1.0  0.51306  0.10106  0.34356  1.0000
  C   C186      1.0  0.53692  0.10861  0.34047  1.0000
  N   N10       1.0  0.54713  0.09565  0.34213  1.0000
  C   C187      1.0  0.57026  0.10863  0.33862  1.0000
  C   C188      1.0  0.57524  0.13142  0.33461  1.0000
  C   C189      1.0  0.55471  0.13140  0.33555  1.0000
  C   C190      1.0  0.58660  0.10112  0.34021  1.0000
  C   C191      1.0  0.58106  0.07775  0.34363  1.0000
  N   N11       1.0  0.56022  0.05835  0.34134  1.0000
  C   C192      1.0  0.56175  0.03900  0.34521  1.0000
  C   C193      1.0  0.58523  0.04659  0.35096  1.0000
  C   C194      1.0  0.59705  0.07030  0.34944  1.0000
  C   C195      1.0  0.54399  0.01559  0.34360  1.0000
  C   C196      1.0  0.52013  0.00805  0.34054  1.0000
  N   N12       1.0  0.50993  0.02100  0.34230  1.0000
  C   C197      1.0  0.48679  0.00802  0.33883  1.0000
  C   C198      1.0  0.48181  0.98524  0.33470  1.0000
  C   C199      1.0  0.50234  0.98526  0.33553  1.0000
  C   C200      1.0  0.47045  0.01553  0.34034  1.0000
  C   C201      1.0  0.44679  0.99826  0.33887  1.0000
  C   C202      1.0  0.40028  0.96160  0.33543  1.0000
  C   C203      1.0  0.41176  0.97088  0.41746  1.0000
  C   C204      1.0  0.43472  0.98889  0.41929  1.0000
  C   C205      1.0  0.37740  0.94247  0.33368  1.0000
  C   C206      1.0  0.36002  0.94150  0.38978  1.0000
  C   C207      1.0  0.33766  0.92233  0.38909  1.0000
  C   C208      1.0  0.33180  0.90332  0.33254  1.0000
  C   C209      1.0  0.55043  0.99834  0.34634  1.0000
  C   C210      1.0  0.56035  0.96175  0.34955  1.0000
  C   C211      1.0  0.55284  0.96793  0.42747  1.0000
  C   C212      1.0  0.54806  0.98605  0.42612  1.0000
  C   C213      1.0  0.56385  0.94249  0.34976  1.0000
  C   C214      1.0  0.56982  0.90321  0.34582  1.0000
  C   C215      1.0  0.54976  0.90178  0.38230  1.0000
  C   C216      1.0  0.54690  0.92111  0.38478  1.0000
  C   C217      1.0  0.61026  0.11837  0.33872  1.0000
  C   C218      1.0  0.62248  0.12752  0.41914  1.0000
  C   C219      1.0  0.64551  0.14537  0.41732  1.0000
  C   C220      1.0  0.65691  0.15473  0.33529  1.0000
  C   C221      1.0  0.67992  0.17364  0.33357  1.0000
  C   C222      1.0  0.72581  0.21230  0.33229  1.0000
  C   C223      1.0  0.71974  0.19314  0.38858  1.0000
  C   C224      1.0  0.69724  0.17420  0.38933  1.0000
  C   C225      1.0  0.50665  0.11832  0.34644  1.0000
  C   C226      1.0  0.50902  0.13042  0.42641  1.0000
  C   C227      1.0  0.49717  0.15521  0.34969  1.0000
  C   C228      1.0  0.50446  0.14869  0.42779  1.0000
  C   C229      1.0  0.49402  0.17468  0.34987  1.0000
  C   C230      1.0  0.51115  0.19587  0.38550  1.0000
  C   C231      1.0  0.50867  0.21542  0.38292  1.0000
  C   C232      1.0  0.48882  0.21443  0.34565  1.0000
  H   H125      1.0  0.52152  0.23045  0.40906  1.0000
  H   H126      1.0  0.52597  0.19746  0.41160  1.0000
  H   H127      1.0  0.50667  0.15731  0.48656  1.0000
  H   H128      1.0  0.51465  0.12641  0.48366  1.0000
  H   H129      1.0  0.46422  0.07992  0.35447  1.0000
  H   H130      1.0  0.44252  0.03639  0.35201  1.0000
  H   H131      1.0  0.51104  0.05833  0.33506  1.0000
  H   H132      1.0  0.54600  0.05832  0.33449  1.0000
  H   H133      1.0  0.55330  0.14583  0.33273  1.0000
  H   H134      1.0  0.59107  0.14586  0.33150  1.0000
  H   H135      1.0  0.61456  0.12152  0.47951  1.0000
  H   H136      1.0  0.65364  0.15204  0.47684  1.0000
  H   H137      1.0  0.61453  0.08025  0.35245  1.0000
  H   H138      1.0  0.59284  0.03673  0.35505  1.0000
  H   H139      1.0  0.46598  0.97080  0.33151  1.0000
  H   H140      1.0  0.50375  0.97083  0.33262  1.0000
  H   H141      1.0  0.54234  0.98988  0.48328  1.0000
  H   H142      1.0  0.55068  0.95921  0.48612  1.0000
  H   H143      1.0  0.53194  0.91921  0.41035  1.0000
  H   H144      1.0  0.53703  0.88661  0.40802  1.0000
  H   H145      1.0  0.44271  0.99480  0.47966  1.0000
  H   H146      1.0  0.40375  0.96403  0.47697  1.0000
  H   H147      1.0  0.32559  0.92251  0.42993  1.0000
  H   H148      1.0  0.36342  0.95494  0.43107  1.0000
  H   H149      1.0  0.69370  0.16062  0.43039  1.0000
  H   H150      1.0  0.73177  0.19265  0.42915  1.0000
  C   C233      1.0  0.20499  0.51255  0.33255  1.0000
  C   C234      1.0  0.24671  0.51083  0.33642  1.0000
  C   C235      1.0  0.23521  0.50971  0.41734  1.0000
  C   C236      1.0  0.21455  0.51053  0.41422  1.0000
  H   H151      1.0  0.20702  0.51069  0.47333  1.0000
  C   C237      1.0  0.26850  0.51212  0.33569  1.0000
  C   C238      1.0  0.31286  0.51609  0.33916  1.0000
  C   C239      1.0  0.29329  0.49605  0.37123  1.0000
  C   C240      1.0  0.27146  0.49416  0.37018  1.0000
  H   H152      1.0  0.29489  0.48289  0.39800  1.0000
  H   H153      1.0  0.25771  0.47955  0.39486  1.0000
  N   N13       1.0  0.24508  0.50891  0.50015  1.0000
  O   O1        1.0  0.23181  0.49115  0.54369  1.0000
  O   O2        1.0  0.25001  0.52621  0.54732  1.0000
  C   C241      1.0  0.57582  0.77903  0.33517  1.0000
  C   C242      1.0  0.57756  0.82248  0.33902  1.0000
  C   C243      1.0  0.57867  0.81197  0.41996  1.0000
  C   C244      1.0  0.57784  0.79049  0.41683  1.0000
  H   H154      1.0  0.57768  0.78271  0.47596  1.0000
  C   C245      1.0  0.57627  0.84299  0.33829  1.0000
  C   C246      1.0  0.57230  0.88337  0.34178  1.0000
  C   C247      1.0  0.59234  0.88379  0.37382  1.0000
  C   C248      1.0  0.59423  0.86385  0.37280  1.0000
  H   H155      1.0  0.60550  0.89850  0.40063  1.0000
  H   H156      1.0  0.60883  0.86466  0.39748  1.0000
  N   N14       1.0  0.57947  0.82251  0.50275  1.0000
  O   O3        1.0  0.59723  0.82693  0.54630  1.0000
  O   O4        1.0  0.56217  0.81008  0.54993  1.0000
  C   C249      1.0  0.26588  0.84169  0.33631  1.0000
  C   C250      1.0  0.27628  0.85309  0.41752  1.0000
  C   C251      1.0  0.29776  0.87375  0.41496  1.0000
  H   H157      1.0  0.30547  0.88120  0.47428  1.0000
  C   C252      1.0  0.24537  0.81990  0.33505  1.0000
  C   C253      1.0  0.20453  0.79506  0.36985  1.0000
  C   C254      1.0  0.22447  0.81690  0.36929  1.0000
  H   H158      1.0  0.18980  0.79343  0.39660  1.0000
  H   H159      1.0  0.22363  0.83062  0.39416  1.0000
  N   N15       1.0  0.26563  0.84312  0.50005  1.0000
  O   O5        1.0  0.26114  0.85633  0.54369  1.0000
  O   O6        1.0  0.27800  0.83812  0.54736  1.0000
  C   C255      1.0  0.85638  0.60305  0.33223  1.0000
  C   C256      1.0  0.81514  0.60565  0.33594  1.0000
  C   C257      1.0  0.82667  0.60656  0.41688  1.0000
  C   C258      1.0  0.84709  0.60530  0.41383  1.0000
  H   H160      1.0  0.85464  0.60502  0.47297  1.0000
  C   C259      1.0  0.79354  0.60479  0.33520  1.0000
  C   C260      1.0  0.74956  0.60164  0.33880  1.0000
  C   C261      1.0  0.76938  0.62153  0.37025  1.0000
  C   C262      1.0  0.79104  0.62300  0.36921  1.0000
  H   H161      1.0  0.76811  0.63486  0.39679  1.0000
  H   H162      1.0  0.80498  0.63749  0.39353  1.0000
  N   N16       1.0  0.81705  0.60760  0.49964  1.0000
  O   O7        1.0  0.83061  0.62527  0.54284  1.0000
  O   O8        1.0  0.81188  0.59024  0.54717  1.0000
  C   C263      1.0  0.48535  0.33994  0.33489  1.0000
  C   C264      1.0  0.48274  0.29609  0.33858  1.0000
  C   C265      1.0  0.48183  0.30658  0.41952  1.0000
  C   C266      1.0  0.48308  0.32826  0.41649  1.0000
  H   H163      1.0  0.48337  0.33601  0.47563  1.0000
  C   C267      1.0  0.48360  0.27536  0.33783  1.0000
  C   C268      1.0  0.48674  0.23451  0.34144  1.0000
  C   C269      1.0  0.46687  0.23441  0.37295  1.0000
  C   C270      1.0  0.46539  0.25459  0.37184  1.0000
  H   H164      1.0  0.45353  0.21976  0.39939  1.0000
  H   H165      1.0  0.45090  0.25401  0.39614  1.0000
  N   N17       1.0  0.48078  0.29579  0.50227  1.0000
  O   O9        1.0  0.46310  0.29160  0.54545  1.0000
  O   O10       1.0  0.49814  0.30791  0.54983  1.0000
  C   C271      1.0  0.79230  0.27320  0.33585  1.0000
  C   C272      1.0  0.78191  0.26178  0.41707  1.0000
  C   C273      1.0  0.76022  0.24136  0.41456  1.0000
  H   H166      1.0  0.75255  0.23389  0.47389  1.0000
  C   C274      1.0  0.81304  0.29480  0.33457  1.0000
  C   C275      1.0  0.85402  0.31901  0.36902  1.0000
  C   C276      1.0  0.83385  0.29735  0.36836  1.0000
  H   H167      1.0  0.86869  0.32032  0.39537  1.0000
  H   H168      1.0  0.83445  0.28344  0.39284  1.0000
  N   N18       1.0  0.79281  0.27150  0.49956  1.0000
  O   O11       1.0  0.79704  0.25798  0.54285  1.0000
  O   O12       1.0  0.78076  0.27673  0.54721  1.0000
