data_image0
_chemical_formula_structural       CNHCNHCNHCNHCNHCNHC3NCH3C3NCH3C3NCH3C3NCH3C3NCH3C3NCH3C3NCH3C3NCH3C3NCH3C3NCH3C3NCH3C3NCH3C6H3C6H3C6H3C6H3C6H3C6H3C6H3C6H3C6H3C6H3C6H3C6H3C3NCH3C3NCH3C3NCH3C3NCH3C3NCH3C3NCH3CNHCNHCNHCNHCNHCNHCNHCNHCNHCNHCNHCNH
_chemical_formula_sum              "C162 N36 H108"
_cell_length_a       37.2774
_cell_length_b       37.2774
_cell_length_c       14.8309
_cell_angle_alpha    90
_cell_angle_beta     90
_cell_angle_gamma    120

_space_group_name_H-M_alt    "P 1"
_space_group_IT_number       1

loop_
  _space_group_symop_operation_xyz
  'x, y, z'

loop_
  _atom_site_type_symbol
  _atom_site_label
  _atom_site_symmetry_multiplicity
  _atom_site_fract_x
  _atom_site_fract_y
  _atom_site_fract_z
  _atom_site_occupancy
  C   C1        1.0  0.24036  0.41753  0.31815  1.0000
  N   N1        1.0  0.21863  0.37550  0.31863  1.0000
  H   H1        1.0  0.26440  0.43145  0.27357  1.0000
  C   C2        1.0  0.58789  0.81676  0.31838  1.0000
  N   N2        1.0  0.62992  0.83714  0.31881  1.0000
  H   H2        1.0  0.57392  0.82691  0.27401  1.0000
  C   C3        1.0  0.18861  0.76519  0.31815  1.0000
  N   N3        1.0  0.16832  0.78692  0.31844  1.0000
  H   H3        1.0  0.17858  0.74120  0.27347  1.0000
  C   C4        1.0  0.77095  0.58213  0.31805  1.0000
  N   N4        1.0  0.79265  0.62416  0.31846  1.0000
  H   H4        1.0  0.74690  0.56818  0.27351  1.0000
  C   C5        1.0  0.42337  0.18289  0.31820  1.0000
  N   N5        1.0  0.38134  0.16256  0.31862  1.0000
  H   H5        1.0  0.43732  0.17277  0.27371  1.0000
  C   C6        1.0  0.82257  0.23453  0.31838  1.0000
  N   N6        1.0  0.84291  0.21283  0.31875  1.0000
  H   H6        1.0  0.83265  0.25857  0.27380  1.0000
  C   C7        1.0  0.19291  0.16663  0.29603  1.0000
  C   C8        1.0  0.22687  0.17609  0.35484  1.0000
  C   C9        1.0  0.18354  0.22040  0.36139  1.0000
  N   N7        1.0  0.17282  0.18868  0.30263  1.0000
  C   C10       1.0  0.17855  0.13631  0.22105  1.0000
  H   H7        1.0  0.20038  0.12587  0.20490  1.0000
  H   H8        1.0  0.17468  0.15039  0.15999  1.0000
  H   H9        1.0  0.14875  0.10953  0.23862  1.0000
  C   C11       1.0  0.83887  0.02037  0.29599  1.0000
  C   C12       1.0  0.82942  0.04486  0.35483  1.0000
  C   C13       1.0  0.78507  0.95721  0.36127  1.0000
  N   N8        1.0  0.81681  0.97823  0.30254  1.0000
  C   C14       1.0  0.86922  0.03633  0.22107  1.0000
  H   H10       1.0  0.87968  0.06862  0.20496  1.0000
  H   H11       1.0  0.85516  0.01841  0.15998  1.0000
  H   H12       1.0  0.89599  0.03331  0.23868  1.0000
  C   C15       1.0  0.98509  0.81255  0.29575  1.0000
  C   C16       1.0  0.96059  0.77862  0.35463  1.0000
  C   C17       1.0  0.04824  0.82198  0.36114  1.0000
  N   N9        1.0  0.02722  0.83267  0.30236  1.0000
  C   C18       1.0  0.96911  0.82695  0.22088  1.0000
  H   H13       1.0  0.93683  0.80512  0.20475  1.0000
  H   H14       1.0  0.98704  0.83087  0.15979  1.0000
  H   H15       1.0  0.97210  0.85673  0.23858  1.0000
  C   C19       1.0  0.81837  0.83311  0.29593  1.0000
  C   C20       1.0  0.78441  0.82365  0.35475  1.0000
  C   C21       1.0  0.82771  0.77930  0.36118  1.0000
  N   N10       1.0  0.83844  0.81104  0.30246  1.0000
  C   C22       1.0  0.83273  0.86344  0.22098  1.0000
  H   H16       1.0  0.81091  0.87391  0.20489  1.0000
  H   H17       1.0  0.83659  0.84938  0.15989  1.0000
  H   H18       1.0  0.86254  0.89022  0.23856  1.0000
  C   C23       1.0  0.17243  0.97938  0.29579  1.0000
  C   C24       1.0  0.18184  0.95487  0.35469  1.0000
  C   C25       1.0  0.22620  0.04252  0.36117  1.0000
  N   N11       1.0  0.19448  0.02152  0.30240  1.0000
  C   C26       1.0  0.14204  0.96342  0.22094  1.0000
  H   H19       1.0  0.13158  0.93114  0.20479  1.0000
  H   H20       1.0  0.15606  0.98136  0.15985  1.0000
  H   H21       1.0  0.11527  0.96643  0.23867  1.0000
  C   C27       1.0  0.02615  0.18718  0.29600  1.0000
  C   C28       1.0  0.05064  0.22110  0.35491  1.0000
  C   C29       1.0  0.96299  0.17778  0.36133  1.0000
  N   N12       1.0  0.98401  0.16708  0.30258  1.0000
  C   C30       1.0  0.04213  0.17277  0.22116  1.0000
  H   H22       1.0  0.07441  0.19459  0.20503  1.0000
  H   H23       1.0  0.02420  0.16885  0.16005  1.0000
  H   H24       1.0  0.03912  0.14298  0.23888  1.0000
  C   C31       1.0  0.23678  0.63169  0.22324  1.0000
  C   C32       1.0  0.22692  0.64719  0.30151  1.0000
  C   C33       1.0  0.22790  0.57189  0.30369  1.0000
  N   N13       1.0  0.23861  0.59643  0.22945  1.0000
  C   C34       1.0  0.24936  0.65328  0.13520  1.0000
  H   H25       1.0  0.24560  0.68049  0.13301  1.0000
  H   H26       1.0  0.23018  0.63225  0.08193  1.0000
  H   H27       1.0  0.28172  0.66293  0.12150  1.0000
  C   C35       1.0  0.37412  0.59906  0.22233  1.0000
  C   C36       1.0  0.35838  0.57382  0.30068  1.0000
  C   C37       1.0  0.43371  0.64980  0.30333  1.0000
  N   N14       1.0  0.40946  0.63607  0.22871  1.0000
  C   C38       1.0  0.35276  0.58996  0.13399  1.0000
  H   H28       1.0  0.32549  0.55903  0.13177  1.0000
  H   H29       1.0  0.37390  0.59166  0.08114  1.0000
  H   H30       1.0  0.34325  0.61272  0.11968  1.0000
  C   C39       1.0  0.40608  0.76865  0.22398  1.0000
  C   C40       1.0  0.43151  0.77823  0.30208  1.0000
  C   C41       1.0  0.35550  0.77773  0.30519  1.0000
  N   N15       1.0  0.36910  0.76705  0.23055  1.0000
  C   C42       1.0  0.41494  0.75624  0.13556  1.0000
  H   H31       1.0  0.44585  0.75987  0.13300  1.0000
  H   H32       1.0  0.41314  0.77562  0.08269  1.0000
  H   H33       1.0  0.39213  0.72395  0.12154  1.0000
  C   C43       1.0  0.77433  0.36803  0.22316  1.0000
  C   C44       1.0  0.78402  0.35239  0.30140  1.0000
  C   C45       1.0  0.78341  0.42777  0.30418  1.0000
  N   N16       1.0  0.77268  0.40338  0.22971  1.0000
  C   C46       1.0  0.76177  0.34661  0.13493  1.0000
  H   H34       1.0  0.76544  0.31934  0.13247  1.0000
  H   H35       1.0  0.78103  0.36771  0.08183  1.0000
  H   H36       1.0  0.72945  0.33707  0.12117  1.0000
  C   C47       1.0  0.63723  0.40049  0.22314  1.0000
  C   C48       1.0  0.65293  0.42588  0.30134  1.0000
  C   C49       1.0  0.57763  0.34978  0.30400  1.0000
  N   N17       1.0  0.60191  0.36344  0.22942  1.0000
  C   C50       1.0  0.65865  0.40956  0.13488  1.0000
  H   H37       1.0  0.68590  0.44051  0.13265  1.0000
  H   H38       1.0  0.63754  0.40781  0.08190  1.0000
  H   H39       1.0  0.66822  0.38683  0.12075  1.0000
  C   C51       1.0  0.60498  0.23077  0.22303  1.0000
  C   C52       1.0  0.57972  0.22128  0.30133  1.0000
  C   C53       1.0  0.65558  0.22174  0.30412  1.0000
  N   N18       1.0  0.64197  0.23236  0.22943  1.0000
  C   C54       1.0  0.59601  0.24316  0.13471  1.0000
  H   H40       1.0  0.56510  0.23955  0.13239  1.0000
  H   H41       1.0  0.59772  0.22376  0.08178  1.0000
  H   H42       1.0  0.61882  0.27544  0.12060  1.0000
  C   C55       1.0  0.09536  0.24322  0.35866  1.0000
  C   C56       1.0  0.11795  0.22185  0.35947  1.0000
  C   C57       1.0  0.16178  0.24280  0.36316  1.0000
  C   C58       1.0  0.18335  0.28661  0.36738  1.0000
  C   C59       1.0  0.16227  0.30939  0.36868  1.0000
  C   C60       1.0  0.11840  0.28711  0.36504  1.0000
  H   H43       1.0  0.21507  0.30225  0.36945  1.0000
  H   H44       1.0  0.10298  0.30340  0.36321  1.0000
  H   H45       1.0  0.10208  0.19014  0.35924  1.0000
  C   C61       1.0  0.76229  0.84623  0.35849  1.0000
  C   C62       1.0  0.78364  0.89019  0.35930  1.0000
  C   C63       1.0  0.76267  0.91305  0.36302  1.0000
  C   C64       1.0  0.71886  0.89080  0.36727  1.0000
  C   C65       1.0  0.69610  0.84693  0.36856  1.0000
  C   C66       1.0  0.71840  0.82537  0.36489  1.0000
  H   H46       1.0  0.70321  0.90687  0.36936  1.0000
  H   H47       1.0  0.70213  0.79366  0.36305  1.0000
  H   H48       1.0  0.81535  0.90604  0.35907  1.0000
  C   C67       1.0  0.15923  0.91016  0.35841  1.0000
  C   C68       1.0  0.11527  0.88757  0.35916  1.0000
  C   C69       1.0  0.09240  0.84374  0.36290  1.0000
  C   C70       1.0  0.11463  0.82217  0.36713  1.0000
  C   C71       1.0  0.15849  0.84325  0.36842  1.0000
  C   C72       1.0  0.18008  0.88712  0.36481  1.0000
  H   H49       1.0  0.09855  0.79044  0.36922  1.0000
  H   H50       1.0  0.21179  0.90254  0.36301  1.0000
  H   H51       1.0  0.09943  0.90344  0.35899  1.0000
  C   C73       1.0  0.91589  0.75649  0.35838  1.0000
  C   C74       1.0  0.89329  0.77785  0.35916  1.0000
  C   C75       1.0  0.84946  0.75689  0.36291  1.0000
  C   C76       1.0  0.82790  0.71308  0.36714  1.0000
  C   C77       1.0  0.84899  0.69031  0.36841  1.0000
  C   C78       1.0  0.89285  0.71260  0.36472  1.0000
  H   H52       1.0  0.79617  0.69744  0.36924  1.0000
  H   H53       1.0  0.90829  0.69633  0.36297  1.0000
  H   H54       1.0  0.90916  0.80957  0.35901  1.0000
  C   C79       1.0  0.24901  0.15351  0.35850  1.0000
  C   C80       1.0  0.22765  0.10955  0.35925  1.0000
  C   C81       1.0  0.24861  0.08668  0.36296  1.0000
  C   C82       1.0  0.29241  0.10892  0.36720  1.0000
  C   C83       1.0  0.31519  0.15278  0.36851  1.0000
  C   C84       1.0  0.29290  0.17436  0.36487  1.0000
  H   H55       1.0  0.30805  0.09284  0.36928  1.0000
  H   H56       1.0  0.30917  0.20607  0.36315  1.0000
  H   H57       1.0  0.19593  0.09370  0.35909  1.0000
  C   C85       1.0  0.85200  0.08958  0.35856  1.0000
  C   C86       1.0  0.89596  0.11219  0.35934  1.0000
  C   C87       1.0  0.91882  0.15601  0.36307  1.0000
  C   C88       1.0  0.89658  0.17757  0.36731  1.0000
  C   C89       1.0  0.85271  0.15648  0.36860  1.0000
  C   C90       1.0  0.83114  0.11261  0.36491  1.0000
  H   H58       1.0  0.91265  0.20929  0.36942  1.0000
  H   H59       1.0  0.79943  0.09717  0.36315  1.0000
  H   H60       1.0  0.91181  0.09632  0.35915  1.0000
  C   C91       1.0  0.31490  0.54944  0.31550  1.0000
  C   C92       1.0  0.29051  0.56792  0.29772  1.0000
  C   C93       1.0  0.24764  0.54826  0.31606  1.0000
  C   C94       1.0  0.22813  0.50714  0.34873  1.0000
  C   C95       1.0  0.25054  0.48585  0.36223  1.0000
  C   C96       1.0  0.29444  0.50882  0.35146  1.0000
  H   H61       1.0  0.19656  0.49154  0.35455  1.0000
  H   H62       1.0  0.31148  0.49459  0.36230  1.0000
  H   H63       1.0  0.30539  0.59850  0.27890  1.0000
  C   C97       1.0  0.45590  0.75914  0.31654  1.0000
  C   C98       1.0  0.43740  0.71626  0.29885  1.0000
  C   C99       1.0  0.45720  0.69313  0.31654  1.0000
  C   C100      1.0  0.49840  0.71478  0.34866  1.0000
  C   C101      1.0  0.51965  0.75847  0.36248  1.0000
  C   C102      1.0  0.49660  0.77933  0.35204  1.0000
  H   H64       1.0  0.51409  0.69888  0.35396  1.0000
  H   H65       1.0  0.51081  0.81059  0.36311  1.0000
  H   H66       1.0  0.40680  0.70049  0.28025  1.0000
  C   C103      1.0  0.24604  0.69062  0.31673  1.0000
  C   C104      1.0  0.28899  0.71498  0.29984  1.0000
  C   C105      1.0  0.31212  0.75789  0.31766  1.0000
  C   C106      1.0  0.29042  0.77743  0.34952  1.0000
  C   C107      1.0  0.24669  0.75501  0.36278  1.0000
  C   C108      1.0  0.22579  0.71110  0.35206  1.0000
  H   H67       1.0  0.30634  0.80901  0.35506  1.0000
  H   H68       1.0  0.19448  0.69410  0.36237  1.0000
  H   H69       1.0  0.30476  0.70012  0.28141  1.0000
  C   C109      1.0  0.69638  0.45018  0.31639  1.0000
  C   C110      1.0  0.72073  0.43163  0.29900  1.0000
  C   C111      1.0  0.76363  0.45135  0.31691  1.0000
  C   C112      1.0  0.78319  0.49251  0.34927  1.0000
  C   C113      1.0  0.76080  0.51385  0.36256  1.0000
  C   C114      1.0  0.71689  0.49088  0.35193  1.0000
  H   H70       1.0  0.81478  0.50819  0.35452  1.0000
  H   H71       1.0  0.69990  0.50519  0.36242  1.0000
  H   H72       1.0  0.70586  0.40103  0.28027  1.0000
  C   C115      1.0  0.55530  0.24033  0.31605  1.0000
  C   C116      1.0  0.57379  0.28322  0.29838  1.0000
  C   C117      1.0  0.55407  0.30639  0.31654  1.0000
  C   C118      1.0  0.51294  0.28477  0.34911  1.0000
  C   C119      1.0  0.49165  0.24105  0.36249  1.0000
  C   C120      1.0  0.51466  0.22016  0.35190  1.0000
  H   H73       1.0  0.49726  0.30068  0.35447  1.0000
  H   H74       1.0  0.50040  0.18888  0.36259  1.0000
  H   H75       1.0  0.60439  0.29897  0.27973  1.0000
  C   C121      1.0  0.76500  0.30891  0.31610  1.0000
  C   C122      1.0  0.72210  0.28449  0.29866  1.0000
  C   C123      1.0  0.69897  0.24159  0.31669  1.0000
  C   C124      1.0  0.72065  0.22211  0.34908  1.0000
  C   C125      1.0  0.76436  0.24457  0.36253  1.0000
  C   C126      1.0  0.78521  0.28847  0.35190  1.0000
  H   H76       1.0  0.70474  0.19052  0.35448  1.0000
  H   H77       1.0  0.81649  0.30554  0.36265  1.0000
  H   H78       1.0  0.70630  0.29932  0.28019  1.0000
  C   C127      1.0  0.19391  0.41778  0.43001  1.0000
  C   C128      1.0  0.22912  0.44137  0.37371  1.0000
  C   C129      1.0  0.18470  0.35357  0.37113  1.0000
  N   N19       1.0  0.17331  0.37551  0.42556  1.0000
  C   C130      1.0  0.17835  0.43519  0.49936  1.0000
  H   H79       1.0  0.19945  0.46807  0.51141  1.0000
  H   H80       1.0  0.17455  0.41920  0.56334  1.0000
  H   H81       1.0  0.14834  0.43077  0.47852  1.0000
  C   C131      1.0  0.58779  0.76996  0.42979  1.0000
  C   C132      1.0  0.56413  0.78156  0.37367  1.0000
  C   C133      1.0  0.65192  0.82515  0.37109  1.0000
  N   N20       1.0  0.63005  0.79173  0.42535  1.0000
  C   C134      1.0  0.57046  0.73694  0.49904  1.0000
  H   H82       1.0  0.53757  0.72505  0.51113  1.0000
  H   H83       1.0  0.58644  0.74912  0.56304  1.0000
  H   H84       1.0  0.57498  0.71142  0.47808  1.0000
  C   C135      1.0  0.23517  0.81161  0.43026  1.0000
  C   C136      1.0  0.22364  0.77644  0.37389  1.0000
  C   C137      1.0  0.18024  0.82083  0.37099  1.0000
  N   N21       1.0  0.21349  0.83220  0.42565  1.0000
  C   C138      1.0  0.26804  0.82715  0.49981  1.0000
  H   H85       1.0  0.27984  0.80608  0.51198  1.0000
  H   H86       1.0  0.25577  0.83092  0.56371  1.0000
  H   H87       1.0  0.29366  0.85718  0.47911  1.0000
  C   C139      1.0  0.81743  0.58198  0.42999  1.0000
  C   C140      1.0  0.78227  0.55835  0.37358  1.0000
  C   C141      1.0  0.82658  0.64614  0.37093  1.0000
  N   N22       1.0  0.83799  0.62425  0.42546  1.0000
  C   C142      1.0  0.83301  0.56464  0.49943  1.0000
  H   H88       1.0  0.81195  0.53176  0.51157  1.0000
  H   H89       1.0  0.83679  0.58065  0.56336  1.0000
  H   H90       1.0  0.86304  0.56908  0.47864  1.0000
  C   C143      1.0  0.42353  0.22959  0.42997  1.0000
  C   C144      1.0  0.44716  0.21801  0.37369  1.0000
  C   C145      1.0  0.35936  0.17454  0.37104  1.0000
  N   N23       1.0  0.38127  0.20788  0.42548  1.0000
  C   C146      1.0  0.44088  0.26252  0.49942  1.0000
  H   H91       1.0  0.47376  0.27433  0.51153  1.0000
  H   H92       1.0  0.42487  0.25028  0.56336  1.0000
  H   H93       1.0  0.43644  0.28810  0.47864  1.0000
  C   C147      1.0  0.77587  0.18796  0.43009  1.0000
  C   C148      1.0  0.78745  0.22319  0.37387  1.0000
  C   C149      1.0  0.83094  0.17888  0.37115  1.0000
  N   N24       1.0  0.79759  0.16741  0.42556  1.0000
  C   C150      1.0  0.74289  0.17232  0.49940  1.0000
  H   H94       1.0  0.73106  0.19336  0.51155  1.0000
  H   H95       1.0  0.75508  0.16849  0.56336  1.0000
  H   H96       1.0  0.71733  0.14230  0.47847  1.0000
  C   C151      1.0  0.23769  0.20967  0.41470  1.0000
  N   N25       1.0  0.21650  0.23057  0.41596  1.0000
  H   H97       1.0  0.26132  0.21849  0.45992  1.0000
  C   C152      1.0  0.79580  0.02209  0.41463  1.0000
  N   N26       1.0  0.77490  0.98001  0.41586  1.0000
  H   H98       1.0  0.78701  0.03690  0.45992  1.0000
  C   C153      1.0  0.98337  0.76783  0.41453  1.0000
  N   N27       1.0  0.02545  0.78903  0.41577  1.0000
  H   H99       1.0  0.96856  0.74422  0.45981  1.0000
  C   C154      1.0  0.77360  0.79006  0.41461  1.0000
  N   N28       1.0  0.79476  0.76914  0.41580  1.0000
  H   H100      1.0  0.74998  0.78125  0.45986  1.0000
  C   C155      1.0  0.21542  0.97763  0.41455  1.0000
  N   N29       1.0  0.23634  0.01971  0.41579  1.0000
  H   H101      1.0  0.22419  0.96281  0.45986  1.0000
  C   C156      1.0  0.02786  0.23192  0.41473  1.0000
  N   N30       1.0  0.98578  0.21074  0.41594  1.0000
  H   H102      1.0  0.04267  0.25553  0.46000  1.0000
  C   C157      1.0  0.21196  0.61967  0.37605  1.0000
  N   N31       1.0  0.21482  0.58453  0.37647  1.0000
  H   H103      1.0  0.20637  0.62923  0.43641  1.0000
  C   C158      1.0  0.38562  0.58617  0.37572  1.0000
  N   N32       1.0  0.42073  0.62421  0.37635  1.0000
  H   H104      1.0  0.37570  0.57129  0.43624  1.0000
  C   C159      1.0  0.41911  0.79309  0.37710  1.0000
  N   N33       1.0  0.38119  0.79041  0.37797  1.0000
  H   H105      1.0  0.43429  0.79845  0.43736  1.0000
  C   C160      1.0  0.79930  0.37979  0.37609  1.0000
  N   N34       1.0  0.79636  0.41489  0.37680  1.0000
  H   H106      1.0  0.80450  0.36997  0.43649  1.0000
  C   C161      1.0  0.62560  0.41333  0.37630  1.0000
  N   N35       1.0  0.59044  0.37535  0.37697  1.0000
  H   H107      1.0  0.63545  0.42850  0.43656  1.0000
  C   C162      1.0  0.59212  0.20648  0.37644  1.0000
  N   N36       1.0  0.63003  0.20914  0.37714  1.0000
  H   H108      1.0  0.57700  0.20119  0.43676  1.0000
