data_image0
_chemical_formula_structural       C3NC3NC5NC5NC20H18N4CNC2OHCHCNC2OHCHC8H8NC2HCHNC2HCH
_chemical_formula_sum              "C58 N12 H34 O2"
_cell_length_a       25.5337
_cell_length_b       25.5317
_cell_length_c       14.6356
_cell_angle_alpha    90
_cell_angle_beta     90
_cell_angle_gamma    89.97

_space_group_name_H-M_alt    "P 1"
_space_group_IT_number       1

loop_
  _space_group_symop_operation_xyz
  'x, y, z'

loop_
  _atom_site_type_symbol
  _atom_site_label
  _atom_site_symmetry_multiplicity
  _atom_site_fract_x
  _atom_site_fract_y
  _atom_site_fract_z
  _atom_site_occupancy
  C   C1        1.0  0.91482  0.14829  0.34336  1.0000
  C   C2        1.0  0.87642  0.11025  0.34385  1.0000
  C   C3        1.0  0.90073  0.06119  0.34296  1.0000
  N   N1        1.0  0.95288  0.07143  0.34274  1.0000
  C   C4        1.0  0.96363  0.12348  0.34300  1.0000
  C   C5        1.0  0.01283  0.14977  0.34241  1.0000
  C   C6        1.0  0.06232  0.12425  0.34070  1.0000
  N   N2        1.0  0.07225  0.07221  0.33958  1.0000
  C   C7        1.0  0.12419  0.06180  0.33809  1.0000
  C   C8        1.0  0.14921  0.11045  0.33792  1.0000
  C   C9        1.0  0.11117  0.14885  0.34013  1.0000
  C   C10       1.0  0.14925  0.01207  0.33658  1.0000
  C   C11       1.0  0.12245  0.96313  0.33611  1.0000
  N   N3        1.0  0.07028  0.95288  0.33654  1.0000
  C   C12       1.0  0.05952  0.90082  0.33638  1.0000
  C   C13       1.0  0.10834  0.87604  0.33522  1.0000
  C   C14       1.0  0.14675  0.91407  0.33571  1.0000
  C   C15       1.0  0.01031  0.87450  0.33682  1.0000
  C   C16       1.0  0.96082  0.90001  0.33836  1.0000
  N   N4        1.0  0.95090  0.95205  0.33973  1.0000
  C   C17       1.0  0.89897  0.96249  0.34150  1.0000
  C   C18       1.0  0.87390  0.91388  0.34098  1.0000
  C   C19       1.0  0.91195  0.87544  0.33962  1.0000
  C   C20       1.0  0.87396  0.01224  0.34287  1.0000
  C   C21       1.0  0.81800  0.01298  0.34325  1.0000
  C   C22       1.0  0.70621  0.01435  0.34365  1.0000
  C   C23       1.0  0.73469  0.02284  0.26193  1.0000
  C   C24       1.0  0.78984  0.02193  0.26164  1.0000
  C   C25       1.0  0.01050  0.81851  0.33641  1.0000
  C   C26       1.0  0.01089  0.70663  0.33573  1.0000
  C   C27       1.0  0.00104  0.73518  0.25488  1.0000
  C   C28       1.0  0.00084  0.79037  0.25499  1.0000
  C   C29       1.0  0.20524  0.01140  0.33626  1.0000
  C   C30       1.0  0.23333  0.00202  0.25469  1.0000
  C   C31       1.0  0.28851  0.00199  0.25452  1.0000
  C   C32       1.0  0.31712  0.01141  0.33547  1.0000
  C   C33       1.0  0.01266  0.20574  0.34273  1.0000
  C   C34       1.0  0.02114  0.23401  0.26108  1.0000
  C   C35       1.0  0.01328  0.31754  0.34333  1.0000
  C   C36       1.0  0.02169  0.28916  0.26148  1.0000
  H   H1        1.0  0.02893  0.30830  0.20150  1.0000
  H   H2        1.0  0.02744  0.21460  0.20087  1.0000
  H   H3        1.0  0.90754  0.18764  0.34331  1.0000
  H   H4        1.0  0.83715  0.11793  0.34450  1.0000
  H   H5        1.0  0.97933  0.04471  0.34268  1.0000
  H   H6        1.0  0.04383  0.97958  0.33675  1.0000
  H   H7        1.0  0.11862  0.18816  0.34083  1.0000
  H   H8        1.0  0.18858  0.11755  0.33656  1.0000
  H   H9        1.0  0.21377  0.99527  0.19479  1.0000
  H   H10       1.0  0.30776  0.99513  0.19435  1.0000
  H   H11       1.0  0.18602  0.90638  0.33570  1.0000
  H   H12       1.0  0.11565  0.83670  0.33459  1.0000
  H   H13       1.0  0.83452  0.90683  0.34180  1.0000
  H   H14       1.0  0.90449  0.83613  0.33949  1.0000
  H   H15       1.0  0.99358  0.80989  0.19524  1.0000
  H   H16       1.0  0.99386  0.71590  0.19485  1.0000
  H   H17       1.0  0.80932  0.02815  0.20149  1.0000
  H   H18       1.0  0.71562  0.03027  0.20196  1.0000
  N   N5        1.0  0.01078  0.65443  0.32953  1.0000
  N   N6        1.0  0.36933  0.01133  0.32917  1.0000
  N   N7        1.0  0.01417  0.36976  0.34894  1.0000
  N   N8        1.0  0.65399  0.01529  0.34907  1.0000
  C   C37       1.0  0.01016  0.45907  0.30959  1.0000
  N   N9        1.0  0.01124  0.55038  0.27418  1.0000
  C   C38       1.0  0.01034  0.49997  0.24324  1.0000
  C   C39       1.0  0.01001  0.49119  0.14971  1.0000
  O   O1        1.0  0.00175  0.52780  0.09773  1.0000
  H   H19       1.0  0.03508  0.46483  0.12603  1.0000
  C   C40       1.0  0.00755  0.40588  0.28856  1.0000
  H   H20       1.0  0.99916  0.39538  0.22492  1.0000
  C   C41       1.0  0.56475  0.01108  0.30948  1.0000
  N   N10       1.0  0.47345  0.01174  0.27386  1.0000
  C   C42       1.0  0.52388  0.01091  0.24308  1.0000
  C   C43       1.0  0.53248  0.01025  0.14959  1.0000
  O   O2        1.0  0.49637  0.00173  0.09676  1.0000
  H   H21       1.0  0.55957  0.03449  0.12556  1.0000
  C   C44       1.0  0.61796  0.00848  0.28861  1.0000
  H   H22       1.0  0.62855  0.99987  0.22511  1.0000
  C   C45       1.0  0.78975  0.00513  0.42514  1.0000
  C   C46       1.0  0.73457  0.00598  0.42519  1.0000
  C   C47       1.0  0.02048  0.79016  0.41748  1.0000
  C   C48       1.0  0.02087  0.73500  0.41706  1.0000
  C   C49       1.0  0.28881  0.02105  0.41698  1.0000
  C   C50       1.0  0.23365  0.02085  0.41745  1.0000
  C   C51       1.0  0.00481  0.23390  0.42473  1.0000
  C   C52       1.0  0.00528  0.28908  0.42487  1.0000
  H   H23       1.0  0.99957  0.30844  0.48530  1.0000
  H   H24       1.0  0.99891  0.21439  0.48495  1.0000
  H   H25       1.0  0.21432  0.02804  0.47743  1.0000
  H   H26       1.0  0.30793  0.02860  0.47682  1.0000
  H   H27       1.0  0.02778  0.80954  0.47736  1.0000
  H   H28       1.0  0.02873  0.71589  0.47681  1.0000
  H   H29       1.0  0.71515  0.00015  0.48551  1.0000
  H   H30       1.0  0.80918  0.99879  0.48530  1.0000
  N   N11       1.0  0.01120  0.47364  0.39915  1.0000
  C   C53       1.0  0.01242  0.52403  0.42846  1.0000
  C   C54       1.0  0.01220  0.56488  0.36356  1.0000
  H   H31       1.0  0.01310  0.53145  0.49709  1.0000
  C   C55       1.0  0.01310  0.61725  0.38885  1.0000
  H   H32       1.0  0.01513  0.62606  0.45488  1.0000
  N   N12       1.0  0.55010  0.01237  0.39899  1.0000
  C   C56       1.0  0.49970  0.01355  0.42819  1.0000
  C   C57       1.0  0.45889  0.01295  0.36321  1.0000
  H   H33       1.0  0.49223  0.01443  0.49680  1.0000
  C   C58       1.0  0.40652  0.01379  0.38845  1.0000
  H   H34       1.0  0.39771  0.01596  0.45447  1.0000
