data_image0
_chemical_formula_structural       HNCNCOH2NCNCOH2OH2OHC2OHC2HC2OHC2HC7OH2C3OH2C3HOHC3HOHC3HOHCNC2N2CNCNCNCNCNCNCNC3HOHC3HOHC3OH2C3OH2C3OH2C3OH2C3OH2C3HOHC3HOHC3HOHCNC2N2CNCNCNCNCNCNCNC3HOHC3HOHC3OH2C3OH2C3OH2C3OH2C3OH2C3OHC3HOHC3HOHC3HOHCNCNCNCNCNCNCNCNCNCNCNCNC3HOHC3HC3HOHC3OH2C3OH2C3OH2C3OH2C3OH2C3OHC3HOHC3HOHC3HOHCNCNCNCNCNCNCNCNCNCNCNCNC3HOHC3HC3HOHC3OH2C3OH2C3OH2
_chemical_formula_sum              "H96 N48 C192 O48"
_cell_length_a       45.1451
_cell_length_b       45.1499
_cell_length_c       14.8708
_cell_angle_alpha    90
_cell_angle_beta     90
_cell_angle_gamma    120.01

_space_group_name_H-M_alt    "P 1"
_space_group_IT_number       1

loop_
  _space_group_symop_operation_xyz
  'x, y, z'

loop_
  _atom_site_type_symbol
  _atom_site_label
  _atom_site_symmetry_multiplicity
  _atom_site_fract_x
  _atom_site_fract_y
  _atom_site_fract_z
  _atom_site_occupancy
  H   H1        1.0  0.08166  0.08581  0.29867  1.0000
  N   N1        1.0  0.02136  0.03726  0.34350  1.0000
  C   C1        1.0  0.03938  0.02044  0.34367  1.0000
  N   N2        1.0  0.02070  0.48564  0.34352  1.0000
  C   C2        1.0  0.07610  0.03864  0.34332  1.0000
  O   O1        1.0  0.08088  0.98998  0.39503  1.0000
  H   H2        1.0  0.07660  0.98996  0.45989  1.0000
  H   H3        1.0  0.08166  0.58581  0.29867  1.0000
  N   N3        1.0  0.02136  0.53726  0.34350  1.0000
  C   C3        1.0  0.03938  0.52044  0.34367  1.0000
  N   N4        1.0  0.02070  0.98564  0.34352  1.0000
  C   C4        1.0  0.07610  0.53864  0.34332  1.0000
  O   O2        1.0  0.08088  0.48998  0.39503  1.0000
  H   H4        1.0  0.07660  0.48997  0.45990  1.0000
  H   H5        1.0  0.00897  0.42535  0.29893  1.0000
  O   O3        1.0  0.01705  0.09313  0.39492  1.0000
  H   H6        1.0  0.01709  0.08888  0.45979  1.0000
  H   H7        1.0  0.00897  0.92535  0.29893  1.0000
  O   O4        1.0  0.01705  0.59312  0.39492  1.0000
  H   H8        1.0  0.01709  0.58888  0.45979  1.0000
  C   C5        1.0  0.09453  0.07355  0.31787  1.0000
  C   C6        1.0  0.13064  0.09228  0.31529  1.0000
  O   O5        1.0  0.14538  0.12543  0.28783  1.0000
  H   H9        1.0  0.14977  0.12539  0.22305  1.0000
  C   C7        1.0  0.13180  0.04193  0.36548  1.0000
  C   C8        1.0  0.09569  0.02318  0.36787  1.0000
  H   H10       1.0  0.14466  0.02966  0.38474  1.0000
  C   C9        1.0  0.09453  0.57355  0.31786  1.0000
  C   C10       1.0  0.13064  0.59228  0.31529  1.0000
  O   O6        1.0  0.14538  0.62543  0.28783  1.0000
  H   H11       1.0  0.14977  0.62539  0.22305  1.0000
  C   C11       1.0  0.13180  0.54193  0.36548  1.0000
  C   C12       1.0  0.09569  0.52317  0.36787  1.0000
  H   H12       1.0  0.14466  0.52966  0.38474  1.0000
  C   C13       1.0  0.15026  0.07685  0.34006  1.0000
  C   C14       1.0  0.18702  0.09516  0.34035  1.0000
  C   C15       1.0  0.15026  0.57686  0.34006  1.0000
  C   C16       1.0  0.18702  0.59516  0.34035  1.0000
  C   C17       1.0  0.43344  0.02317  0.31801  1.0000
  C   C18       1.0  0.41471  0.04054  0.31546  1.0000
  C   C19       1.0  0.43015  0.07560  0.34015  1.0000
  O   O7        1.0  0.38154  0.02211  0.28809  1.0000
  H   H13       1.0  0.42116  0.99802  0.29889  1.0000
  H   H14       1.0  0.38156  0.02652  0.22329  1.0000
  C   C20       1.0  0.48382  0.41247  0.31806  1.0000
  C   C21       1.0  0.46644  0.37637  0.31550  1.0000
  C   C22       1.0  0.43139  0.35674  0.34019  1.0000
  O   O8        1.0  0.48488  0.36164  0.28815  1.0000
  H   H15       1.0  0.50897  0.42535  0.29893  1.0000
  H   H16       1.0  0.48049  0.35727  0.22335  1.0000
  C   C23       1.0  0.27537  0.07809  0.26121  1.0000
  C   C24       1.0  0.30648  0.07781  0.26004  1.0000
  C   C25       1.0  0.32345  0.07955  0.34172  1.0000
  H   H17       1.0  0.26597  0.08134  0.20159  1.0000
  O   O9        1.0  0.32231  0.08223  0.17910  1.0000
  H   H18       1.0  0.32264  0.06098  0.16705  1.0000
  C   C26       1.0  0.42840  0.19927  0.26092  1.0000
  C   C27       1.0  0.42869  0.23065  0.25969  1.0000
  C   C28       1.0  0.42741  0.24608  0.34155  1.0000
  H   H19       1.0  0.42490  0.18653  0.20131  1.0000
  O   O10       1.0  0.42385  0.24184  0.17890  1.0000
  H   H20       1.0  0.44502  0.26342  0.16614  1.0000
  C   C29       1.0  0.30756  0.23156  0.26108  1.0000
  C   C30       1.0  0.27620  0.20044  0.25994  1.0000
  C   C31       1.0  0.26092  0.18358  0.34172  1.0000
  H   H21       1.0  0.32026  0.24091  0.20148  1.0000
  O   O11       1.0  0.26483  0.18453  0.17907  1.0000
  H   H22       1.0  0.24324  0.18415  0.16684  1.0000
  C   C32       1.0  0.48585  0.46762  0.34371  1.0000
  N   N5        1.0  0.46972  0.48628  0.34354  1.0000
  C   C33       1.0  0.48655  0.02113  0.34370  1.0000
  C   C34       1.0  0.24014  0.14764  0.34190  1.0000
  N   N6        1.0  0.20538  0.13016  0.34077  1.0000
  N   N7        1.0  0.20503  0.07813  0.34130  1.0000
  C   C35       1.0  0.23981  0.09513  0.34217  1.0000
  N   N8        1.0  0.25676  0.12970  0.34244  1.0000
  C   C36       1.0  0.35939  0.09470  0.34185  1.0000
  N   N9        1.0  0.37686  0.07741  0.34082  1.0000
  C   C37       1.0  0.41186  0.09406  0.34039  1.0000
  N   N10       1.0  0.42890  0.12910  0.34123  1.0000
  C   C38       1.0  0.41191  0.14688  0.34192  1.0000
  N   N11       1.0  0.37734  0.12926  0.34225  1.0000
  C   C39       1.0  0.41227  0.26686  0.34170  1.0000
  N   N12       1.0  0.42956  0.30162  0.34076  1.0000
  C   C40       1.0  0.41292  0.31998  0.34042  1.0000
  N   N13       1.0  0.37788  0.30197  0.34134  1.0000
  C   C41       1.0  0.36008  0.26720  0.34207  1.0000
  N   N14       1.0  0.37771  0.25025  0.34226  1.0000
  C   C42       1.0  0.46509  0.09208  0.36546  1.0000
  C   C43       1.0  0.48384  0.07472  0.36785  1.0000
  C   C44       1.0  0.46836  0.03966  0.34337  1.0000
  H   H23       1.0  0.47738  0.11722  0.38467  1.0000
  O   O12       1.0  0.51705  0.09313  0.39492  1.0000
  H   H24       1.0  0.51709  0.08888  0.45979  1.0000
  C   C45       1.0  0.41490  0.37519  0.36550  1.0000
  C   C46       1.0  0.43226  0.41130  0.36787  1.0000
  C   C47       1.0  0.46732  0.43089  0.34340  1.0000
  H   H25       1.0  0.38976  0.36232  0.38468  1.0000
  O   O13       1.0  0.41385  0.42610  0.39491  1.0000
  H   H26       1.0  0.41808  0.43038  0.45978  1.0000
  C   C48       1.0  0.30746  0.07924  0.42372  1.0000
  C   C49       1.0  0.27616  0.07913  0.42496  1.0000
  C   C50       1.0  0.26036  0.07972  0.34309  1.0000
  O   O14       1.0  0.26538  0.08471  0.50548  1.0000
  H   H27       1.0  0.32047  0.08327  0.48308  1.0000
  H   H28       1.0  0.24391  0.06365  0.51971  1.0000
  C   C51       1.0  0.42830  0.23068  0.42347  1.0000
  C   C52       1.0  0.42840  0.19950  0.42457  1.0000
  C   C53       1.0  0.42732  0.18284  0.34280  1.0000
  O   O15       1.0  0.42325  0.18332  0.50523  1.0000
  H   H29       1.0  0.42452  0.23980  0.48290  1.0000
  H   H30       1.0  0.44441  0.18300  0.51873  1.0000
  C   C54       1.0  0.27652  0.19963  0.42373  1.0000
  C   C55       1.0  0.30769  0.23093  0.42494  1.0000
  C   C56       1.0  0.32410  0.24665  0.34302  1.0000
  O   O16       1.0  0.32403  0.24180  0.50546  1.0000
  H   H31       1.0  0.26750  0.18665  0.48313  1.0000
  H   H32       1.0  0.32446  0.26330  0.51942  1.0000
  C   C57       1.0  0.43344  0.52317  0.31801  1.0000
  C   C58       1.0  0.41471  0.54054  0.31545  1.0000
  C   C59       1.0  0.43015  0.57560  0.34015  1.0000
  O   O17       1.0  0.38154  0.52211  0.28809  1.0000
  H   H33       1.0  0.42116  0.49802  0.29889  1.0000
  H   H34       1.0  0.38156  0.52652  0.22329  1.0000
  C   C60       1.0  0.48382  0.91247  0.31806  1.0000
  C   C61       1.0  0.46644  0.87637  0.31550  1.0000
  C   C62       1.0  0.43139  0.85674  0.34019  1.0000
  O   O18       1.0  0.48488  0.86164  0.28815  1.0000
  H   H35       1.0  0.50897  0.92535  0.29893  1.0000
  H   H36       1.0  0.48049  0.85727  0.22335  1.0000
  C   C63       1.0  0.27537  0.57809  0.26121  1.0000
  C   C64       1.0  0.30647  0.57781  0.26004  1.0000
  C   C65       1.0  0.32345  0.57955  0.34172  1.0000
  H   H37       1.0  0.26597  0.58134  0.20159  1.0000
  O   O19       1.0  0.32231  0.58223  0.17910  1.0000
  H   H38       1.0  0.32264  0.56098  0.16705  1.0000
  C   C66       1.0  0.42840  0.69927  0.26092  1.0000
  C   C67       1.0  0.42869  0.73065  0.25969  1.0000
  C   C68       1.0  0.42741  0.74608  0.34155  1.0000
  H   H39       1.0  0.42490  0.68653  0.20131  1.0000
  O   O20       1.0  0.42386  0.74184  0.17890  1.0000
  H   H40       1.0  0.44502  0.76342  0.16614  1.0000
  C   C69       1.0  0.30756  0.73156  0.26108  1.0000
  C   C70       1.0  0.27619  0.70044  0.25994  1.0000
  C   C71       1.0  0.26092  0.68358  0.34172  1.0000
  H   H41       1.0  0.32026  0.74091  0.20148  1.0000
  O   O21       1.0  0.26483  0.68453  0.17907  1.0000
  H   H42       1.0  0.24324  0.68415  0.16684  1.0000
  C   C72       1.0  0.48585  0.96762  0.34371  1.0000
  N   N15       1.0  0.46972  0.98628  0.34354  1.0000
  C   C73       1.0  0.48655  0.52113  0.34370  1.0000
  C   C74       1.0  0.24014  0.64763  0.34190  1.0000
  N   N16       1.0  0.20538  0.63016  0.34077  1.0000
  N   N17       1.0  0.20503  0.57814  0.34130  1.0000
  C   C75       1.0  0.23981  0.59513  0.34217  1.0000
  N   N18       1.0  0.25676  0.62970  0.34244  1.0000
  C   C76       1.0  0.35939  0.59470  0.34185  1.0000
  N   N19       1.0  0.37686  0.57741  0.34082  1.0000
  C   C77       1.0  0.41186  0.59405  0.34039  1.0000
  N   N20       1.0  0.42890  0.62909  0.34123  1.0000
  C   C78       1.0  0.41191  0.64689  0.34192  1.0000
  N   N21       1.0  0.37734  0.62926  0.34225  1.0000
  C   C79       1.0  0.41227  0.76686  0.34170  1.0000
  N   N22       1.0  0.42956  0.80162  0.34076  1.0000
  C   C80       1.0  0.41292  0.81998  0.34042  1.0000
  N   N23       1.0  0.37788  0.80197  0.34134  1.0000
  C   C81       1.0  0.36008  0.76720  0.34207  1.0000
  N   N24       1.0  0.37771  0.75025  0.34226  1.0000
  C   C82       1.0  0.46509  0.59208  0.36547  1.0000
  C   C83       1.0  0.48384  0.57472  0.36785  1.0000
  C   C84       1.0  0.46836  0.53966  0.34337  1.0000
  H   H43       1.0  0.47738  0.61722  0.38467  1.0000
  O   O22       1.0  0.51705  0.59312  0.39492  1.0000
  H   H44       1.0  0.51709  0.58888  0.45979  1.0000
  C   C85       1.0  0.41490  0.87519  0.36551  1.0000
  C   C86       1.0  0.43225  0.91129  0.36788  1.0000
  C   C87       1.0  0.46732  0.93089  0.34340  1.0000
  H   H45       1.0  0.38976  0.86232  0.38469  1.0000
  O   O23       1.0  0.41385  0.92610  0.39491  1.0000
  H   H46       1.0  0.41808  0.93038  0.45978  1.0000
  C   C88       1.0  0.30746  0.57924  0.42372  1.0000
  C   C89       1.0  0.27617  0.57913  0.42496  1.0000
  C   C90       1.0  0.26036  0.57972  0.34309  1.0000
  O   O24       1.0  0.26538  0.58471  0.50548  1.0000
  H   H47       1.0  0.32047  0.58326  0.48308  1.0000
  H   H48       1.0  0.24391  0.56365  0.51971  1.0000
  C   C91       1.0  0.42830  0.73068  0.42347  1.0000
  C   C92       1.0  0.42840  0.69950  0.42457  1.0000
  C   C93       1.0  0.42732  0.68284  0.34280  1.0000
  O   O25       1.0  0.42325  0.68332  0.50523  1.0000
  H   H49       1.0  0.42452  0.73980  0.48290  1.0000
  H   H50       1.0  0.44441  0.68300  0.51873  1.0000
  C   C94       1.0  0.27652  0.69963  0.42373  1.0000
  C   C95       1.0  0.30769  0.73093  0.42494  1.0000
  C   C96       1.0  0.32410  0.74664  0.34302  1.0000
  O   O26       1.0  0.32403  0.74180  0.50546  1.0000
  H   H51       1.0  0.26750  0.68665  0.48313  1.0000
  H   H52       1.0  0.32446  0.76330  0.51942  1.0000
  C   C97       1.0  0.59453  0.07355  0.31787  1.0000
  C   C98       1.0  0.63064  0.09228  0.31529  1.0000
  C   C99       1.0  0.65026  0.07685  0.34006  1.0000
  O   O27       1.0  0.64538  0.12543  0.28783  1.0000
  H   H53       1.0  0.58166  0.08581  0.29867  1.0000
  H   H54       1.0  0.64977  0.12539  0.22305  1.0000
  C   C100      1.0  0.93344  0.02317  0.31801  1.0000
  C   C101      1.0  0.91471  0.04054  0.31546  1.0000
  C   C102      1.0  0.93015  0.07560  0.34015  1.0000
  O   O28       1.0  0.88154  0.02211  0.28809  1.0000
  H   H55       1.0  0.92116  0.99802  0.29889  1.0000
  H   H56       1.0  0.88156  0.02652  0.22329  1.0000
  C   C103      1.0  0.98382  0.41247  0.31806  1.0000
  C   C104      1.0  0.96644  0.37637  0.31550  1.0000
  C   C105      1.0  0.93139  0.35674  0.34019  1.0000
  O   O29       1.0  0.98488  0.36164  0.28815  1.0000
  H   H57       1.0  0.98049  0.35727  0.22335  1.0000
  C   C106      1.0  0.77538  0.07809  0.26121  1.0000
  C   C107      1.0  0.80648  0.07781  0.26004  1.0000
  C   C108      1.0  0.82345  0.07955  0.34172  1.0000
  H   H58       1.0  0.76597  0.08134  0.20159  1.0000
  O   O30       1.0  0.82231  0.08223  0.17910  1.0000
  H   H59       1.0  0.82264  0.06098  0.16705  1.0000
  C   C109      1.0  0.92840  0.19927  0.26092  1.0000
  C   C110      1.0  0.92869  0.23065  0.25969  1.0000
  C   C111      1.0  0.92741  0.24608  0.34155  1.0000
  H   H60       1.0  0.92489  0.18653  0.20131  1.0000
  O   O31       1.0  0.92386  0.24184  0.17890  1.0000
  H   H61       1.0  0.94502  0.26342  0.16614  1.0000
  C   C112      1.0  0.80756  0.23156  0.26108  1.0000
  C   C113      1.0  0.77619  0.20044  0.25994  1.0000
  C   C114      1.0  0.76092  0.18358  0.34172  1.0000
  H   H62       1.0  0.82026  0.24091  0.20148  1.0000
  O   O32       1.0  0.76483  0.18453  0.17907  1.0000
  H   H63       1.0  0.74324  0.18415  0.16684  1.0000
  C   C115      1.0  0.98585  0.46762  0.34371  1.0000
  N   N25       1.0  0.96972  0.48628  0.34354  1.0000
  C   C116      1.0  0.98655  0.02113  0.34370  1.0000
  N   N26       1.0  0.52136  0.03726  0.34350  1.0000
  C   C117      1.0  0.53938  0.02044  0.34367  1.0000
  N   N27       1.0  0.52070  0.48564  0.34352  1.0000
  C   C118      1.0  0.74014  0.14764  0.34190  1.0000
  N   N28       1.0  0.70538  0.13016  0.34077  1.0000
  C   C119      1.0  0.68702  0.09516  0.34035  1.0000
  N   N29       1.0  0.70503  0.07813  0.34130  1.0000
  C   C120      1.0  0.73981  0.09513  0.34217  1.0000
  N   N30       1.0  0.75676  0.12970  0.34244  1.0000
  C   C121      1.0  0.85939  0.09470  0.34185  1.0000
  N   N31       1.0  0.87686  0.07741  0.34082  1.0000
  C   C122      1.0  0.91186  0.09406  0.34039  1.0000
  N   N32       1.0  0.92890  0.12910  0.34123  1.0000
  C   C123      1.0  0.91191  0.14688  0.34192  1.0000
  N   N33       1.0  0.87734  0.12926  0.34225  1.0000
  C   C124      1.0  0.91227  0.26686  0.34170  1.0000
  N   N34       1.0  0.92956  0.30162  0.34076  1.0000
  C   C125      1.0  0.91292  0.31998  0.34042  1.0000
  N   N35       1.0  0.87788  0.30197  0.34134  1.0000
  C   C126      1.0  0.86008  0.26720  0.34207  1.0000
  N   N36       1.0  0.87770  0.25025  0.34226  1.0000
  C   C127      1.0  0.63180  0.04193  0.36548  1.0000
  C   C128      1.0  0.59569  0.02318  0.36787  1.0000
  C   C129      1.0  0.57610  0.03864  0.34332  1.0000
  H   H64       1.0  0.64466  0.02966  0.38474  1.0000
  O   O33       1.0  0.58088  0.98998  0.39503  1.0000
  H   H65       1.0  0.57660  0.98996  0.45989  1.0000
  C   C130      1.0  0.96509  0.09208  0.36546  1.0000
  C   C131      1.0  0.98384  0.07472  0.36785  1.0000
  C   C132      1.0  0.96836  0.03966  0.34337  1.0000
  H   H66       1.0  0.97738  0.11722  0.38467  1.0000
  C   C133      1.0  0.91490  0.37519  0.36550  1.0000
  C   C134      1.0  0.93225  0.41130  0.36787  1.0000
  C   C135      1.0  0.96732  0.43089  0.34340  1.0000
  H   H67       1.0  0.88976  0.36232  0.38468  1.0000
  O   O34       1.0  0.91385  0.42610  0.39491  1.0000
  H   H68       1.0  0.91808  0.43038  0.45978  1.0000
  C   C136      1.0  0.80746  0.07924  0.42372  1.0000
  C   C137      1.0  0.77617  0.07913  0.42496  1.0000
  C   C138      1.0  0.76036  0.07972  0.34309  1.0000
  O   O35       1.0  0.76539  0.08471  0.50548  1.0000
  H   H69       1.0  0.82047  0.08327  0.48308  1.0000
  H   H70       1.0  0.74391  0.06365  0.51971  1.0000
  C   C139      1.0  0.92830  0.23068  0.42347  1.0000
  C   C140      1.0  0.92840  0.19950  0.42457  1.0000
  C   C141      1.0  0.92732  0.18284  0.34280  1.0000
  O   O36       1.0  0.92325  0.18332  0.50523  1.0000
  H   H71       1.0  0.92452  0.23980  0.48290  1.0000
  H   H72       1.0  0.94441  0.18300  0.51873  1.0000
  C   C142      1.0  0.77652  0.19963  0.42373  1.0000
  C   C143      1.0  0.80769  0.23093  0.42494  1.0000
  C   C144      1.0  0.82410  0.24665  0.34302  1.0000
  O   O37       1.0  0.82403  0.24180  0.50546  1.0000
  H   H73       1.0  0.76750  0.18665  0.48313  1.0000
  H   H74       1.0  0.82446  0.26330  0.51942  1.0000
  C   C145      1.0  0.59453  0.57355  0.31786  1.0000
  C   C146      1.0  0.63064  0.59228  0.31529  1.0000
  C   C147      1.0  0.65026  0.57686  0.34006  1.0000
  O   O38       1.0  0.64538  0.62543  0.28783  1.0000
  H   H75       1.0  0.58166  0.58581  0.29867  1.0000
  H   H76       1.0  0.64977  0.62539  0.22305  1.0000
  C   C148      1.0  0.93344  0.52317  0.31801  1.0000
  C   C149      1.0  0.91471  0.54054  0.31545  1.0000
  C   C150      1.0  0.93015  0.57560  0.34015  1.0000
  O   O39       1.0  0.88154  0.52211  0.28809  1.0000
  H   H77       1.0  0.92115  0.49802  0.29889  1.0000
  H   H78       1.0  0.88157  0.52652  0.22329  1.0000
  C   C151      1.0  0.98382  0.91247  0.31806  1.0000
  C   C152      1.0  0.96644  0.87637  0.31550  1.0000
  C   C153      1.0  0.93139  0.85674  0.34019  1.0000
  O   O40       1.0  0.98488  0.86164  0.28815  1.0000
  H   H79       1.0  0.98049  0.85727  0.22335  1.0000
  C   C154      1.0  0.77537  0.57809  0.26121  1.0000
  C   C155      1.0  0.80647  0.57781  0.26004  1.0000
  C   C156      1.0  0.82345  0.57955  0.34172  1.0000
  H   H80       1.0  0.76597  0.58134  0.20159  1.0000
  O   O41       1.0  0.82231  0.58223  0.17910  1.0000
  H   H81       1.0  0.82264  0.56098  0.16705  1.0000
  C   C157      1.0  0.92840  0.69927  0.26092  1.0000
  C   C158      1.0  0.92869  0.73065  0.25969  1.0000
  C   C159      1.0  0.92741  0.74608  0.34155  1.0000
  H   H82       1.0  0.92489  0.68653  0.20131  1.0000
  O   O42       1.0  0.92386  0.74184  0.17890  1.0000
  H   H83       1.0  0.94502  0.76342  0.16614  1.0000
  C   C160      1.0  0.80756  0.73156  0.26108  1.0000
  C   C161      1.0  0.77619  0.70044  0.25994  1.0000
  C   C162      1.0  0.76092  0.68358  0.34172  1.0000
  H   H84       1.0  0.82026  0.74091  0.20148  1.0000
  O   O43       1.0  0.76483  0.68453  0.17907  1.0000
  H   H85       1.0  0.74324  0.68415  0.16684  1.0000
  C   C163      1.0  0.98585  0.96762  0.34371  1.0000
  N   N37       1.0  0.96972  0.98628  0.34354  1.0000
  C   C164      1.0  0.98655  0.52113  0.34370  1.0000
  N   N38       1.0  0.52136  0.53726  0.34350  1.0000
  C   C165      1.0  0.53938  0.52044  0.34367  1.0000
  N   N39       1.0  0.52070  0.98564  0.34352  1.0000
  C   C166      1.0  0.74014  0.64763  0.34190  1.0000
  N   N40       1.0  0.70538  0.63016  0.34077  1.0000
  C   C167      1.0  0.68702  0.59516  0.34035  1.0000
  N   N41       1.0  0.70503  0.57814  0.34130  1.0000
  C   C168      1.0  0.73981  0.59513  0.34217  1.0000
  N   N42       1.0  0.75676  0.62970  0.34244  1.0000
  C   C169      1.0  0.85939  0.59470  0.34185  1.0000
  N   N43       1.0  0.87686  0.57741  0.34082  1.0000
  C   C170      1.0  0.91186  0.59405  0.34039  1.0000
  N   N44       1.0  0.92890  0.62909  0.34123  1.0000
  C   C171      1.0  0.91191  0.64689  0.34192  1.0000
  N   N45       1.0  0.87734  0.62926  0.34225  1.0000
  C   C172      1.0  0.91227  0.76686  0.34170  1.0000
  N   N46       1.0  0.92956  0.80162  0.34076  1.0000
  C   C173      1.0  0.91292  0.81998  0.34042  1.0000
  N   N47       1.0  0.87788  0.80197  0.34134  1.0000
  C   C174      1.0  0.86008  0.76720  0.34207  1.0000
  N   N48       1.0  0.87770  0.75025  0.34226  1.0000
  C   C175      1.0  0.63180  0.54193  0.36548  1.0000
  C   C176      1.0  0.59569  0.52317  0.36787  1.0000
  C   C177      1.0  0.57610  0.53864  0.34332  1.0000
  H   H86       1.0  0.64466  0.52966  0.38474  1.0000
  O   O44       1.0  0.58088  0.48998  0.39503  1.0000
  H   H87       1.0  0.57660  0.48997  0.45990  1.0000
  C   C178      1.0  0.96509  0.59208  0.36547  1.0000
  C   C179      1.0  0.98384  0.57472  0.36785  1.0000
  C   C180      1.0  0.96836  0.53966  0.34337  1.0000
  H   H88       1.0  0.97738  0.61722  0.38467  1.0000
  C   C181      1.0  0.91490  0.87519  0.36551  1.0000
  C   C182      1.0  0.93226  0.91129  0.36788  1.0000
  C   C183      1.0  0.96732  0.93089  0.34340  1.0000
  H   H89       1.0  0.88976  0.86232  0.38469  1.0000
  O   O45       1.0  0.91385  0.92610  0.39491  1.0000
  H   H90       1.0  0.91808  0.93038  0.45978  1.0000
  C   C184      1.0  0.80746  0.57924  0.42372  1.0000
  C   C185      1.0  0.77617  0.57913  0.42496  1.0000
  C   C186      1.0  0.76036  0.57972  0.34309  1.0000
  O   O46       1.0  0.76538  0.58471  0.50548  1.0000
  H   H91       1.0  0.82047  0.58326  0.48308  1.0000
  H   H92       1.0  0.74391  0.56365  0.51971  1.0000
  C   C187      1.0  0.92830  0.73068  0.42347  1.0000
  C   C188      1.0  0.92840  0.69950  0.42457  1.0000
  C   C189      1.0  0.92732  0.68284  0.34280  1.0000
  O   O47       1.0  0.92324  0.68332  0.50523  1.0000
  H   H93       1.0  0.92452  0.73980  0.48290  1.0000
  H   H94       1.0  0.94441  0.68300  0.51873  1.0000
  C   C190      1.0  0.77652  0.69963  0.42373  1.0000
  C   C191      1.0  0.80769  0.73093  0.42494  1.0000
  C   C192      1.0  0.82410  0.74664  0.34302  1.0000
  O   O48       1.0  0.82403  0.74180  0.50546  1.0000
  H   H95       1.0  0.76750  0.68665  0.48313  1.0000
  H   H96       1.0  0.82446  0.76330  0.51942  1.0000
