data_image0
_chemical_formula_structural       HCH3CH2CNC2ONH2NCNC2ONH2N2CHNCHCNC2ONH2NCNC2ONH2N2CHNCHNC2ONH2NC2ONH2C6HOC6OH5C4H4C6HOC6OH5C4H4C6HOC6OH5C4H4C6HOC6OH4C3H2C6HOC6OH4C3H2NC2HN2C2HNC2NC2ONH2N2C2NC2ONH2N3C2HN2C2HNC2NC2ONH2N2C2NC2ONH2N2CNC2HN2CNC2HN2
_chemical_formula_sum              "H80 C130 N50 O20"
_cell_length_a       33.1646
_cell_length_b       41.5624
_cell_length_c       14.7802
_cell_angle_alpha    88.206
_cell_angle_beta     91.4063
_cell_angle_gamma    90.3233

_space_group_name_H-M_alt    "P 1"
_space_group_IT_number       1

loop_
  _space_group_symop_operation_xyz
  'x, y, z'

loop_
  _atom_site_type_symbol
  _atom_site_label
  _atom_site_symmetry_multiplicity
  _atom_site_fract_x
  _atom_site_fract_y
  _atom_site_fract_z
  _atom_site_occupancy
  H   H1        1.0  0.78837  0.37333  0.31250  1.0000
  C   C1        1.0  0.86286  0.35431  0.33247  1.0000
  H   H2        1.0  0.86093  0.37763  0.30864  1.0000
  H   H3        1.0  0.60254  0.30878  0.34954  1.0000
  H   H4        1.0  0.17052  0.67424  0.31189  1.0000
  C   C2        1.0  0.09609  0.69150  0.33161  1.0000
  H   H5        1.0  0.09824  0.66872  0.30803  1.0000
  H   H6        1.0  0.35631  0.73941  0.34977  1.0000
  C   C3        1.0  0.13283  0.19317  0.33305  1.0000
  N   N1        1.0  0.07895  0.15529  0.32560  1.0000
  C   C4        1.0  0.09105  0.18657  0.32030  1.0000
  C   C5        1.0  0.06048  0.20974  0.30186  1.0000
  O   O1        1.0  0.02258  0.20285  0.32869  1.0000
  N   N2        1.0  0.06516  0.23575  0.24571  1.0000
  H   H7        1.0  0.09017  0.23981  0.21434  1.0000
  H   H8        1.0  0.04227  0.24952  0.23003  1.0000
  N   N3        1.0  0.14557  0.22404  0.33875  1.0000
  C   C6        1.0  0.82643  0.85488  0.33387  1.0000
  N   N4        1.0  0.88028  0.89283  0.32659  1.0000
  C   C7        1.0  0.86799  0.86167  0.32148  1.0000
  C   C8        1.0  0.89812  0.83882  0.30363  1.0000
  O   O2        1.0  0.93652  0.84497  0.33135  1.0000
  N   N5        1.0  0.89233  0.81414  0.24715  1.0000
  H   H9        1.0  0.86670  0.81079  0.21551  1.0000
  H   H10       1.0  0.91485  0.80057  0.23214  1.0000
  N   N6        1.0  0.81371  0.82390  0.33954  1.0000
  N   N7        1.0  0.78426  0.17650  0.34739  1.0000
  C   C9        1.0  0.79727  0.14596  0.33486  1.0000
  H   H11       1.0  0.78254  0.13186  0.28916  1.0000
  N   N8        1.0  0.17668  0.87132  0.35094  1.0000
  C   C10       1.0  0.16368  0.90223  0.33840  1.0000
  H   H12       1.0  0.17785  0.91737  0.29346  1.0000
  C   C11       1.0  0.24877  0.48892  0.35792  1.0000
  N   N9        1.0  0.21766  0.54067  0.35193  1.0000
  C   C12       1.0  0.21319  0.50787  0.35123  1.0000
  C   C13       1.0  0.17348  0.49548  0.34001  1.0000
  O   O3        1.0  0.14536  0.51467  0.29838  1.0000
  N   N10       1.0  0.16071  0.46656  0.37309  1.0000
  H   H13       1.0  0.17776  0.45315  0.41277  1.0000
  H   H14       1.0  0.13245  0.46047  0.36646  1.0000
  N   N11       1.0  0.24955  0.45619  0.35291  1.0000
  C   C14       1.0  0.71083  0.55877  0.35778  1.0000
  N   N12       1.0  0.74198  0.50722  0.35164  1.0000
  C   C15       1.0  0.74633  0.54004  0.35100  1.0000
  C   C16       1.0  0.78574  0.55276  0.33955  1.0000
  O   O4        1.0  0.81298  0.53454  0.29786  1.0000
  N   N13       1.0  0.79919  0.58095  0.37265  1.0000
  H   H15       1.0  0.78296  0.59358  0.41203  1.0000
  H   H16       1.0  0.82723  0.58732  0.36556  1.0000
  N   N14       1.0  0.70981  0.59161  0.35279  1.0000
  N   N15       1.0  0.00777  0.36178  0.33809  1.0000
  C   C17       1.0  0.96725  0.36710  0.32936  1.0000
  H   H17       1.0  0.95673  0.38843  0.30223  1.0000
  N   N16       1.0  0.95038  0.68513  0.33796  1.0000
  C   C18       1.0  0.99053  0.67935  0.32897  1.0000
  H   H18       1.0  0.99989  0.65838  0.30227  1.0000
  N   N17       1.0  0.45805  0.31968  0.35356  1.0000
  C   C19       1.0  0.49910  0.31587  0.35670  1.0000
  C   C20       1.0  0.51413  0.28419  0.35849  1.0000
  O   O5        1.0  0.49454  0.26201  0.30845  1.0000
  N   N18       1.0  0.54163  0.27350  0.42124  1.0000
  H   H19       1.0  0.55254  0.28753  0.46734  1.0000
  H   H20       1.0  0.54857  0.25079  0.42568  1.0000
  N   N19       1.0  0.50128  0.72821  0.35342  1.0000
  C   C21       1.0  0.46032  0.73207  0.35654  1.0000
  C   C22       1.0  0.44544  0.76374  0.35829  1.0000
  O   O6        1.0  0.46407  0.78699  0.30834  1.0000
  N   N20       1.0  0.41924  0.77310  0.42085  1.0000
  H   H21       1.0  0.40910  0.75807  0.46672  1.0000
  H   H22       1.0  0.41234  0.79570  0.42500  1.0000
  C   C23       1.0  0.95882  0.02578  0.37804  1.0000
  C   C24       1.0  0.93068  0.00031  0.36352  1.0000
  C   C25       1.0  0.88815  0.00436  0.36048  1.0000
  C   C26       1.0  0.87283  0.03601  0.36847  1.0000
  C   C27       1.0  0.89908  0.06247  0.38401  1.0000
  C   C28       1.0  0.94114  0.05637  0.39120  1.0000
  H   H23       1.0  0.94123  0.97793  0.35125  1.0000
  O   O7        1.0  0.83211  0.04079  0.36465  1.0000
  C   C29       1.0  0.00195  0.02110  0.37796  1.0000
  C   C30       1.0  0.01999  0.99023  0.39083  1.0000
  C   C31       1.0  0.06194  0.98438  0.38394  1.0000
  C   C32       1.0  0.08779  0.01125  0.36868  1.0000
  C   C33       1.0  0.07219  0.04303  0.36051  1.0000
  C   C34       1.0  0.02972  0.04693  0.36347  1.0000
  O   O8        1.0  0.12844  0.00666  0.36503  1.0000
  H   H24       1.0  0.01884  0.06955  0.35100  1.0000
  H   H25       1.0  0.82297  0.03911  0.42747  1.0000
  H   H26       1.0  0.13889  0.00701  0.42789  1.0000
  H   H27       1.0  0.95944  0.07528  0.40722  1.0000
  H   H28       1.0  0.00207  0.97092  0.40656  1.0000
  C   C35       1.0  0.88529  0.09435  0.39522  1.0000
  C   C36       1.0  0.86154  0.97765  0.35177  1.0000
  C   C37       1.0  0.07613  0.95231  0.39511  1.0000
  C   C38       1.0  0.09851  0.06998  0.35178  1.0000
  H   H29       1.0  0.12902  0.06654  0.35363  1.0000
  H   H30       1.0  0.90560  0.11095  0.41890  1.0000
  H   H31       1.0  0.83108  0.98113  0.35345  1.0000
  H   H32       1.0  0.05630  0.93512  0.41832  1.0000
  C   C39       1.0  0.21251  0.33026  0.34721  1.0000
  C   C40       1.0  0.21224  0.29581  0.34844  1.0000
  C   C41       1.0  0.17691  0.27648  0.35399  1.0000
  C   C42       1.0  0.13972  0.29254  0.36482  1.0000
  C   C43       1.0  0.13670  0.32654  0.35654  1.0000
  C   C44       1.0  0.17312  0.34422  0.34634  1.0000
  H   H33       1.0  0.23855  0.28359  0.34382  1.0000
  O   O9        1.0  0.10613  0.27497  0.38445  1.0000
  C   C45       1.0  0.24932  0.34943  0.34644  1.0000
  C   C46       1.0  0.28885  0.33568  0.34635  1.0000
  C   C47       1.0  0.32548  0.35363  0.34788  1.0000
  C   C48       1.0  0.32239  0.38769  0.34874  1.0000
  C   C49       1.0  0.28442  0.40324  0.35056  1.0000
  C   C50       1.0  0.24922  0.38382  0.34895  1.0000
  O   O10       1.0  0.35660  0.40619  0.34943  1.0000
  H   H34       1.0  0.22285  0.39594  0.35195  1.0000
  H   H35       1.0  0.10940  0.26786  0.44831  1.0000
  H   H36       1.0  0.36222  0.41164  0.28566  1.0000
  H   H37       1.0  0.16991  0.36846  0.33983  1.0000
  H   H38       1.0  0.29201  0.31137  0.34577  1.0000
  C   C51       1.0  0.09907  0.34292  0.35623  1.0000
  C   C52       1.0  0.17918  0.24235  0.34931  1.0000
  C   C53       1.0  0.36337  0.33750  0.34883  1.0000
  C   C54       1.0  0.28295  0.43730  0.35482  1.0000
  H   H39       1.0  0.30992  0.44923  0.35904  1.0000
  H   H40       1.0  0.09798  0.36716  0.34197  1.0000
  H   H41       1.0  0.20657  0.23119  0.34829  1.0000
  H   H42       1.0  0.36430  0.31291  0.34784  1.0000
  C   C55       1.0  0.74665  0.71758  0.34719  1.0000
  C   C56       1.0  0.74703  0.75201  0.34861  1.0000
  C   C57       1.0  0.78253  0.77116  0.35432  1.0000
  C   C58       1.0  0.81992  0.75479  0.36511  1.0000
  C   C59       1.0  0.82267  0.72099  0.35654  1.0000
  C   C60       1.0  0.78599  0.70360  0.34616  1.0000
  H   H43       1.0  0.72064  0.76436  0.34417  1.0000
  O   O11       1.0  0.85397  0.77182  0.38508  1.0000
  C   C61       1.0  0.70980  0.69846  0.34635  1.0000
  C   C62       1.0  0.67026  0.71221  0.34622  1.0000
  C   C63       1.0  0.63366  0.69423  0.34777  1.0000
  C   C64       1.0  0.63677  0.66015  0.34869  1.0000
  C   C65       1.0  0.67478  0.64456  0.35052  1.0000
  C   C66       1.0  0.70995  0.66401  0.34891  1.0000
  O   O12       1.0  0.60258  0.64162  0.34947  1.0000
  H   H44       1.0  0.73636  0.65182  0.35212  1.0000
  H   H45       1.0  0.85212  0.77731  0.44911  1.0000
  H   H46       1.0  0.59556  0.63757  0.28573  1.0000
  H   H47       1.0  0.78902  0.67951  0.33941  1.0000
  H   H48       1.0  0.66712  0.73654  0.34553  1.0000
  C   C67       1.0  0.86024  0.70453  0.35618  1.0000
  C   C68       1.0  0.78028  0.80540  0.34985  1.0000
  C   C69       1.0  0.59578  0.71033  0.34872  1.0000
  C   C70       1.0  0.67640  0.61040  0.35478  1.0000
  H   H49       1.0  0.64954  0.59834  0.35900  1.0000
  H   H50       1.0  0.86090  0.68060  0.34203  1.0000
  H   H51       1.0  0.75289  0.81663  0.34855  1.0000
  H   H52       1.0  0.59485  0.73494  0.34768  1.0000
  C   C71       1.0  0.75178  0.33436  0.35887  1.0000
  C   C72       1.0  0.75523  0.30111  0.38591  1.0000
  C   C73       1.0  0.79296  0.28568  0.40005  1.0000
  C   C74       1.0  0.82869  0.30341  0.38190  1.0000
  C   C75       1.0  0.82742  0.33595  0.35006  1.0000
  C   C76       1.0  0.78890  0.35030  0.33847  1.0000
  H   H53       1.0  0.73044  0.28861  0.40713  1.0000
  O   O13       1.0  0.86480  0.28773  0.39157  1.0000
  C   C77       1.0  0.71385  0.35140  0.35616  1.0000
  C   C78       1.0  0.67569  0.33534  0.35410  1.0000
  C   C79       1.0  0.63795  0.35138  0.35493  1.0000
  C   C80       1.0  0.63867  0.38556  0.35687  1.0000
  C   C81       1.0  0.67552  0.40320  0.35918  1.0000
  C   C82       1.0  0.71198  0.38569  0.35864  1.0000
  O   O14       1.0  0.60317  0.40212  0.35696  1.0000
  H   H54       1.0  0.73788  0.39878  0.36593  1.0000
  H   H55       1.0  0.86882  0.27663  0.33463  1.0000
  H   H56       1.0  0.59605  0.40724  0.29310  1.0000
  H   H57       1.0  0.67490  0.31090  0.34909  1.0000
  C   C83       1.0  0.79707  0.25511  0.44424  1.0000
  C   C84       1.0  0.60136  0.33323  0.35370  1.0000
  C   C85       1.0  0.67476  0.43731  0.36241  1.0000
  H   H58       1.0  0.64710  0.44765  0.36538  1.0000
  H   H59       1.0  0.82197  0.25306  0.48497  1.0000
  C   C86       1.0  0.20720  0.71274  0.35831  1.0000
  C   C87       1.0  0.20347  0.74550  0.38417  1.0000
  C   C88       1.0  0.16562  0.75997  0.39863  1.0000
  C   C89       1.0  0.12997  0.74188  0.38108  1.0000
  C   C90       1.0  0.13139  0.71006  0.34954  1.0000
  C   C91       1.0  0.17002  0.69664  0.33809  1.0000
  H   H60       1.0  0.22846  0.75816  0.40385  1.0000
  O   O15       1.0  0.09348  0.75661  0.38955  1.0000
  C   C92       1.0  0.24535  0.69613  0.35610  1.0000
  C   C93       1.0  0.28334  0.71244  0.35428  1.0000
  C   C94       1.0  0.32126  0.69656  0.35505  1.0000
  C   C95       1.0  0.32088  0.66233  0.35688  1.0000
  C   C96       1.0  0.28424  0.64445  0.35945  1.0000
  C   C97       1.0  0.24765  0.66178  0.35901  1.0000
  O   O16       1.0  0.35648  0.64592  0.35681  1.0000
  H   H61       1.0  0.22211  0.64835  0.36695  1.0000
  H   H62       1.0  0.08813  0.76877  0.33233  1.0000
  H   H63       1.0  0.36218  0.64224  0.29292  1.0000
  H   H64       1.0  0.28377  0.73700  0.34967  1.0000
  C   C98       1.0  0.16104  0.79010  0.43931  1.0000
  C   C99       1.0  0.35772  0.71487  0.35380  1.0000
  C   C100      1.0  0.28526  0.61026  0.36269  1.0000
  H   H65       1.0  0.31303  0.59991  0.36556  1.0000
  H   H66       1.0  0.13567  0.79208  0.47542  1.0000
  N   N21       1.0  0.15826  0.16774  0.34646  1.0000
  C   C101      1.0  0.14546  0.13649  0.34838  1.0000
  C   C102      1.0  0.10378  0.12977  0.33932  1.0000
  H   H67       1.0  0.16594  0.11849  0.35971  1.0000
  N   N22       1.0  0.08521  0.10067  0.34324  1.0000
  N   N23       1.0  0.80134  0.88009  0.34673  1.0000
  C   C103      1.0  0.81426  0.91128  0.34846  1.0000
  C   C104      1.0  0.85579  0.91811  0.33977  1.0000
  H   H68       1.0  0.79406  0.92908  0.35946  1.0000
  N   N24       1.0  0.87453  0.94710  0.34360  1.0000
  C   C105      1.0  0.80183  0.19749  0.40565  1.0000
  C   C106      1.0  0.83286  0.13533  0.38000  1.0000
  N   N25       1.0  0.85020  0.15592  0.43893  1.0000
  C   C107      1.0  0.83637  0.18581  0.45589  1.0000
  C   C108      1.0  0.85733  0.20099  0.52692  1.0000
  O   O17       1.0  0.89814  0.20123  0.52734  1.0000
  N   N26       1.0  0.83874  0.20785  0.60433  1.0000
  H   H69       1.0  0.80977  0.20508  0.61034  1.0000
  H   H70       1.0  0.85425  0.21587  0.65565  1.0000
  N   N27       1.0  0.78649  0.22803  0.40031  1.0000
  N   N28       1.0  0.84854  0.10571  0.36730  1.0000
  C   C109      1.0  0.15966  0.84896  0.40789  1.0000
  C   C110      1.0  0.12860  0.91185  0.38176  1.0000
  N   N29       1.0  0.11209  0.88998  0.44005  1.0000
  C   C111      1.0  0.12600  0.85966  0.45735  1.0000
  C   C112      1.0  0.10655  0.84330  0.52915  1.0000
  O   O18       1.0  0.06584  0.84462  0.53249  1.0000
  N   N30       1.0  0.12719  0.83269  0.60414  1.0000
  H   H71       1.0  0.15647  0.83403  0.60844  1.0000
  H   H72       1.0  0.11288  0.82373  0.65581  1.0000
  N   N31       1.0  0.17394  0.81828  0.40070  1.0000
  N   N32       1.0  0.11258  0.94172  0.36853  1.0000
  N   N33       1.0  0.28432  0.50516  0.36662  1.0000
  C   C113      1.0  0.28818  0.53748  0.36881  1.0000
  C   C114      1.0  0.25335  0.55681  0.36038  1.0000
  H   H73       1.0  0.31651  0.54681  0.37562  1.0000
  N   N34       1.0  0.25327  0.58967  0.35893  1.0000
  N   N35       1.0  0.67554  0.54227  0.36663  1.0000
  C   C115      1.0  0.67183  0.50990  0.36883  1.0000
  C   C116      1.0  0.70653  0.49081  0.36022  1.0000
  H   H74       1.0  0.64368  0.50038  0.37576  1.0000
  N   N36       1.0  0.70668  0.45798  0.35864  1.0000
  C   C117      1.0  0.02385  0.33377  0.37315  1.0000
  C   C118      1.0  0.94053  0.34224  0.35547  1.0000
  N   N37       1.0  0.95678  0.31471  0.39076  1.0000
  C   C119      1.0  0.99685  0.30913  0.40202  1.0000
  C   C120      1.0  0.00781  0.27946  0.44516  1.0000
  O   O19       1.0  0.98372  0.25352  0.43224  1.0000
  N   N38       1.0  0.03536  0.27747  0.51399  1.0000
  H   H75       1.0  0.04992  0.29633  0.53475  1.0000
  H   H76       1.0  0.03945  0.25720  0.54756  1.0000
  N   N39       1.0  0.06389  0.32761  0.37407  1.0000
  N   N40       1.0  0.89994  0.34221  0.35064  1.0000
  C   C121      1.0  0.93580  0.71272  0.37244  1.0000
  C   C122      1.0  0.01846  0.70329  0.35421  1.0000
  N   N41       1.0  0.00373  0.73043  0.38893  1.0000
  C   C123      1.0  0.96405  0.73640  0.40041  1.0000
  C   C124      1.0  0.95469  0.76548  0.44246  1.0000
  O   O20       1.0  0.97927  0.79122  0.42895  1.0000
  N   N42       1.0  0.92858  0.76679  0.51101  1.0000
  H   H77       1.0  0.91431  0.74772  0.53303  1.0000
  H   H78       1.0  0.92607  0.78646  0.54436  1.0000
  N   N43       1.0  0.89590  0.71936  0.37365  1.0000
  N   N44       1.0  0.05890  0.70247  0.34855  1.0000
  C   C125      1.0  0.52379  0.34391  0.35973  1.0000
  N   N45       1.0  0.50473  0.37272  0.36063  1.0000
  C   C126      1.0  0.46415  0.37626  0.35872  1.0000
  C   C127      1.0  0.43936  0.34876  0.35438  1.0000
  H   H79       1.0  0.45222  0.39887  0.35955  1.0000
  N   N46       1.0  0.56449  0.34695  0.35789  1.0000
  N   N47       1.0  0.39900  0.35356  0.35218  1.0000
  C   C128      1.0  0.43556  0.70403  0.35953  1.0000
  N   N48       1.0  0.45452  0.67516  0.36044  1.0000
  C   C129      1.0  0.49505  0.67154  0.35855  1.0000
  C   C130      1.0  0.51989  0.69907  0.35423  1.0000
  H   H80       1.0  0.50691  0.64888  0.35936  1.0000
  N   N49       1.0  0.39478  0.70120  0.35780  1.0000
  N   N50       1.0  0.56019  0.69422  0.35205  1.0000
