data_image0
_chemical_formula_structural       C3NC3NC5NC5NC20H18NHNHNHNHC8H8CNCNCNC18H12C3O3CNCNCNC18H12C3O3
_chemical_formula_sum              "C92 N14 H54 O6"
_cell_length_a       35.8375
_cell_length_b       26.4212
_cell_length_c       15.0456
_cell_angle_alpha    89.9506
_cell_angle_beta     90.0364
_cell_angle_gamma    90.0303

_space_group_name_H-M_alt    "P 1"
_space_group_IT_number       1

loop_
  _space_group_symop_operation_xyz
  'x, y, z'

loop_
  _atom_site_type_symbol
  _atom_site_label
  _atom_site_symmetry_multiplicity
  _atom_site_fract_x
  _atom_site_fract_y
  _atom_site_fract_z
  _atom_site_occupancy
  C   C1        1.0  0.09641  0.98040  0.29101  1.0000
  C   C2        1.0  0.09429  0.03250  0.28900  1.0000
  C   C3        1.0  0.05666  0.04630  0.29244  1.0000
  N   N1        1.0  0.03740  0.00225  0.29531  1.0000
  C   C4        1.0  0.06009  0.96125  0.29486  1.0000
  C   C5        1.0  0.05072  0.90904  0.29833  1.0000
  C   C6        1.0  0.01380  0.88963  0.29901  1.0000
  N   N2        1.0  0.98161  0.91611  0.29583  1.0000
  C   C7        1.0  0.95148  0.88544  0.29674  1.0000
  C   C8        1.0  0.96523  0.83602  0.30056  1.0000
  C   C9        1.0  0.00368  0.83860  0.30206  1.0000
  C   C10       1.0  0.91335  0.89978  0.29414  1.0000
  C   C11       1.0  0.89982  0.95034  0.29325  1.0000
  N   N3        1.0  0.91907  0.99439  0.29648  1.0000
  C   C12       1.0  0.89637  0.03539  0.29567  1.0000
  C   C13       1.0  0.86007  0.01623  0.29159  1.0000
  C   C14       1.0  0.86218  0.96414  0.28951  1.0000
  C   C15       1.0  0.90574  0.08761  0.29890  1.0000
  C   C16       1.0  0.94266  0.10702  0.29934  1.0000
  N   N4        1.0  0.97485  0.08054  0.29583  1.0000
  C   C17       1.0  0.00499  0.11120  0.29645  1.0000
  C   C18       1.0  0.99125  0.16062  0.30038  1.0000
  C   C19       1.0  0.95279  0.15804  0.30216  1.0000
  C   C20       1.0  0.04312  0.09686  0.29363  1.0000
  C   C21       1.0  0.07003  0.13629  0.29275  1.0000
  C   C22       1.0  0.07957  0.16045  0.21222  1.0000
  C   C23       1.0  0.10615  0.19957  0.21170  1.0000
  C   C24       1.0  0.12439  0.21439  0.29088  1.0000
  C   C25       1.0  0.87601  0.12318  0.30209  1.0000
  C   C26       1.0  0.85894  0.14047  0.22307  1.0000
  C   C27       1.0  0.83044  0.17701  0.22657  1.0000
  C   C28       1.0  0.81896  0.19763  0.30877  1.0000
  C   C29       1.0  0.88647  0.86034  0.29173  1.0000
  C   C30       1.0  0.83199  0.78242  0.28629  1.0000
  C   C31       1.0  0.85053  0.79804  0.20800  1.0000
  C   C32       1.0  0.87717  0.83704  0.21029  1.0000
  C   C33       1.0  0.08044  0.87348  0.30250  1.0000
  C   C34       1.0  0.09714  0.85501  0.22398  1.0000
  C   C35       1.0  0.12551  0.81831  0.22864  1.0000
  C   C36       1.0  0.13718  0.79864  0.31153  1.0000
  H   H1        1.0  0.13640  0.80423  0.17089  1.0000
  H   H2        1.0  0.08830  0.86743  0.16305  1.0000
  H   H3        1.0  0.12078  0.96034  0.28978  1.0000
  H   H4        1.0  0.11694  0.05597  0.28631  1.0000
  H   H5        1.0  0.01071  0.00041  0.29955  1.0000
  H   H6        1.0  0.94574  0.99622  0.30159  1.0000
  H   H7        1.0  0.02104  0.80795  0.30452  1.0000
  H   H8        1.0  0.95015  0.80318  0.30234  1.0000
  H   H9        1.0  0.89000  0.84787  0.15254  1.0000
  H   H10       1.0  0.84465  0.78103  0.14853  1.0000
  H   H11       1.0  0.83954  0.94067  0.28649  1.0000
  H   H12       1.0  0.83569  0.03628  0.29003  1.0000
  H   H13       1.0  0.00632  0.19346  0.30199  1.0000
  H   H14       1.0  0.93544  0.18870  0.30471  1.0000
  H   H15       1.0  0.86759  0.12726  0.16255  1.0000
  H   H16       1.0  0.81922  0.19017  0.16843  1.0000
  H   H17       1.0  0.11219  0.21727  0.15291  1.0000
  H   H18       1.0  0.06692  0.15024  0.15389  1.0000
  N   N5        1.0  0.79347  0.23620  0.31059  1.0000
  H   H19       1.0  0.77242  0.23382  0.26967  1.0000
  N   N6        1.0  0.14768  0.25536  0.28980  1.0000
  H   H20       1.0  0.14048  0.28312  0.25048  1.0000
  N   N7        1.0  0.16266  0.76001  0.31459  1.0000
  H   H21       1.0  0.18311  0.76146  0.27194  1.0000
  N   N8        1.0  0.80860  0.74157  0.28336  1.0000
  H   H22       1.0  0.81577  0.71433  0.24303  1.0000
  C   C37       1.0  0.11461  0.18998  0.37130  1.0000
  C   C38       1.0  0.08770  0.15129  0.37234  1.0000
  C   C39       1.0  0.83526  0.17884  0.38783  1.0000
  C   C40       1.0  0.86353  0.14202  0.38466  1.0000
  C   C41       1.0  0.86851  0.84455  0.37047  1.0000
  C   C42       1.0  0.84160  0.80589  0.36766  1.0000
  C   C43       1.0  0.09316  0.85568  0.38566  1.0000
  C   C44       1.0  0.12131  0.81874  0.38999  1.0000
  H   H23       1.0  0.12975  0.80586  0.45091  1.0000
  H   H24       1.0  0.08154  0.86874  0.44340  1.0000
  H   H25       1.0  0.87522  0.86062  0.43028  1.0000
  H   H26       1.0  0.83009  0.79373  0.42608  1.0000
  H   H27       1.0  0.87541  0.12983  0.44275  1.0000
  H   H28       1.0  0.82702  0.19256  0.44826  1.0000
  H   H29       1.0  0.08082  0.13457  0.43153  1.0000
  H   H30       1.0  0.12590  0.20155  0.43030  1.0000
  C   C45       1.0  0.30965  0.50089  0.32066  1.0000
  N   N9        1.0  0.29217  0.45532  0.32688  1.0000
  C   C46       1.0  0.25473  0.45073  0.33712  1.0000
  N   N10       1.0  0.23479  0.49428  0.34032  1.0000
  C   C47       1.0  0.25031  0.54103  0.33454  1.0000
  N   N11       1.0  0.28804  0.54326  0.32494  1.0000
  C   C48       1.0  0.23669  0.40281  0.34151  1.0000
  C   C49       1.0  0.25697  0.35689  0.33594  1.0000
  C   C50       1.0  0.23859  0.30978  0.33618  1.0000
  C   C51       1.0  0.19926  0.30721  0.34044  1.0000
  C   C52       1.0  0.17902  0.35280  0.34904  1.0000
  C   C53       1.0  0.19738  0.39967  0.34967  1.0000
  C   C54       1.0  0.34910  0.50326  0.31053  1.0000
  C   C55       1.0  0.37003  0.45916  0.29060  1.0000
  C   C56       1.0  0.40909  0.46074  0.28356  1.0000
  C   C57       1.0  0.42844  0.50660  0.29694  1.0000
  C   C58       1.0  0.40797  0.55101  0.31535  1.0000
  C   C59       1.0  0.36882  0.54931  0.32168  1.0000
  C   C60       1.0  0.22717  0.58487  0.33810  1.0000
  C   C61       1.0  0.24236  0.63435  0.34030  1.0000
  C   C62       1.0  0.21912  0.67727  0.34501  1.0000
  C   C63       1.0  0.17983  0.67225  0.34799  1.0000
  C   C64       1.0  0.16462  0.62291  0.34548  1.0000
  C   C65       1.0  0.18777  0.58021  0.34019  1.0000
  H   H31       1.0  0.42330  0.42799  0.27015  1.0000
  H   H32       1.0  0.35715  0.42501  0.28126  1.0000
  H   H33       1.0  0.42142  0.58469  0.32580  1.0000
  H   H34       1.0  0.35501  0.58207  0.33681  1.0000
  H   H35       1.0  0.27063  0.63977  0.33971  1.0000
  H   H36       1.0  0.23131  0.71223  0.34877  1.0000
  H   H37       1.0  0.17516  0.54548  0.33815  1.0000
  H   H38       1.0  0.13634  0.61741  0.34653  1.0000
  H   H39       1.0  0.18134  0.43156  0.35477  1.0000
  H   H40       1.0  0.15056  0.35245  0.35503  1.0000
  H   H41       1.0  0.25414  0.27749  0.32988  1.0000
  H   H42       1.0  0.28542  0.35713  0.33018  1.0000
  C   C66       1.0  0.46703  0.50755  0.29466  1.0000
  C   C67       1.0  0.15578  0.71489  0.35560  1.0000
  C   C68       1.0  0.18003  0.26032  0.33664  1.0000
  O   O1        1.0  0.19577  0.21954  0.37633  1.0000
  O   O2        1.0  0.12285  0.70781  0.39824  1.0000
  O   O3        1.0  0.48109  0.52686  0.22859  1.0000
  C   C69       1.0  0.64600  0.49555  0.34492  1.0000
  N   N12       1.0  0.66367  0.54112  0.34382  1.0000
  C   C70       1.0  0.70130  0.54568  0.33883  1.0000
  N   N13       1.0  0.72119  0.50212  0.33487  1.0000
  C   C71       1.0  0.70550  0.45537  0.33543  1.0000
  N   N14       1.0  0.66761  0.45317  0.34070  1.0000
  C   C72       1.0  0.71951  0.59353  0.33817  1.0000
  C   C73       1.0  0.69919  0.63949  0.33465  1.0000
  C   C74       1.0  0.71763  0.68655  0.33263  1.0000
  C   C75       1.0  0.75702  0.68910  0.33283  1.0000
  C   C76       1.0  0.77733  0.64339  0.33852  1.0000
  C   C77       1.0  0.75894  0.59656  0.34100  1.0000
  C   C78       1.0  0.60638  0.49317  0.35077  1.0000
  C   C79       1.0  0.58510  0.53718  0.36924  1.0000
  C   C80       1.0  0.54597  0.53544  0.37357  1.0000
  C   C81       1.0  0.52690  0.48951  0.35883  1.0000
  C   C82       1.0  0.54766  0.44524  0.34132  1.0000
  C   C83       1.0  0.58687  0.44710  0.33765  1.0000
  C   C84       1.0  0.72870  0.41154  0.33375  1.0000
  C   C85       1.0  0.71372  0.36203  0.33987  1.0000
  C   C86       1.0  0.73715  0.31923  0.34265  1.0000
  C   C87       1.0  0.77642  0.32445  0.33997  1.0000
  C   C88       1.0  0.79141  0.37373  0.33252  1.0000
  C   C89       1.0  0.76805  0.41628  0.32885  1.0000
  H   H43       1.0  0.53155  0.56806  0.38664  1.0000
  H   H44       1.0  0.59777  0.57133  0.37995  1.0000
  H   H45       1.0  0.53441  0.41148  0.33020  1.0000
  H   H46       1.0  0.60094  0.41439  0.32362  1.0000
  H   H47       1.0  0.68552  0.35655  0.34433  1.0000
  H   H48       1.0  0.72520  0.28430  0.35002  1.0000
  H   H49       1.0  0.78052  0.45102  0.32415  1.0000
  H   H50       1.0  0.81966  0.37931  0.32954  1.0000
  H   H51       1.0  0.77502  0.56464  0.34500  1.0000
  H   H52       1.0  0.80586  0.64362  0.34203  1.0000
  H   H53       1.0  0.70199  0.71888  0.32871  1.0000
  H   H54       1.0  0.67066  0.63931  0.33259  1.0000
  C   C90       1.0  0.48831  0.48825  0.36054  1.0000
  C   C91       1.0  0.80073  0.28214  0.34807  1.0000
  C   C92       1.0  0.77618  0.73610  0.32964  1.0000
  O   O4        1.0  0.76057  0.77645  0.37082  1.0000
  O   O5        1.0  0.83415  0.29018  0.38803  1.0000
  O   O6        1.0  0.47424  0.46906  0.42673  1.0000
