data_image0
_chemical_formula_structural       C3NC3NC5NC5NC20H18N4CNC2O2CH2CHCNC2O2CH2CHC8H8NC2H2CHNC2H2CH
_chemical_formula_sum              "C60 N12 H38 O4"
_cell_length_a       25.5188
_cell_length_b       25.5167
_cell_length_c       14.6248
_cell_angle_alpha    90
_cell_angle_beta     90
_cell_angle_gamma    89.97

_space_group_name_H-M_alt    "P 1"
_space_group_IT_number       1

loop_
  _space_group_symop_operation_xyz
  'x, y, z'

loop_
  _atom_site_type_symbol
  _atom_site_label
  _atom_site_symmetry_multiplicity
  _atom_site_fract_x
  _atom_site_fract_y
  _atom_site_fract_z
  _atom_site_occupancy
  C   C1        1.0  0.91485  0.14711  0.34598  1.0000
  C   C2        1.0  0.87657  0.10889  0.34590  1.0000
  C   C3        1.0  0.90115  0.05992  0.34486  1.0000
  N   N1        1.0  0.95327  0.07034  0.34435  1.0000
  C   C4        1.0  0.96377  0.12245  0.34504  1.0000
  C   C5        1.0  0.01289  0.14887  0.34463  1.0000
  C   C6        1.0  0.06252  0.12362  0.34249  1.0000
  N   N2        1.0  0.07269  0.07160  0.34163  1.0000
  C   C7        1.0  0.12470  0.06146  0.33913  1.0000
  C   C8        1.0  0.14948  0.11027  0.33795  1.0000
  C   C9        1.0  0.11123  0.14851  0.34044  1.0000
  C   C10       1.0  0.14997  0.01180  0.33747  1.0000
  C   C11       1.0  0.12332  0.96273  0.33734  1.0000
  N   N3        1.0  0.07117  0.95225  0.33763  1.0000
  C   C12       1.0  0.06060  0.90012  0.33731  1.0000
  C   C13       1.0  0.10955  0.87553  0.33647  1.0000
  C   C14       1.0  0.14783  0.91374  0.33720  1.0000
  C   C15       1.0  0.01149  0.87355  0.33740  1.0000
  C   C16       1.0  0.96186  0.89888  0.33927  1.0000
  N   N4        1.0  0.95179  0.95091  0.34032  1.0000
  C   C17       1.0  0.89980  0.96116  0.34296  1.0000
  C   C18       1.0  0.87486  0.91245  0.34365  1.0000
  C   C19       1.0  0.91305  0.87413  0.34171  1.0000
  C   C20       1.0  0.87464  0.01083  0.34477  1.0000
  C   C21       1.0  0.81872  0.01136  0.34592  1.0000
  C   C22       1.0  0.70706  0.01277  0.34783  1.0000
  C   C23       1.0  0.73501  0.01385  0.26422  1.0000
  C   C24       1.0  0.79017  0.01302  0.26323  1.0000
  C   C25       1.0  0.01185  0.81752  0.33677  1.0000
  C   C26       1.0  0.01158  0.70554  0.33621  1.0000
  C   C27       1.0  0.00101  0.73415  0.25561  1.0000
  C   C28       1.0  0.00127  0.78937  0.25561  1.0000
  C   C29       1.0  0.20601  0.01136  0.33683  1.0000
  C   C30       1.0  0.23409  0.00115  0.25546  1.0000
  C   C31       1.0  0.28930  0.00076  0.25534  1.0000
  C   C32       1.0  0.31799  0.01096  0.33600  1.0000
  C   C33       1.0  0.01250  0.20480  0.34566  1.0000
  C   C34       1.0  0.01350  0.23337  0.26296  1.0000
  C   C35       1.0  0.01295  0.31649  0.34759  1.0000
  C   C36       1.0  0.01387  0.28854  0.26395  1.0000
  H   H1        1.0  0.01563  0.30810  0.20302  1.0000
  H   H2        1.0  0.01442  0.21419  0.20151  1.0000
  H   H3        1.0  0.90747  0.18648  0.34658  1.0000
  H   H4        1.0  0.83723  0.11636  0.34655  1.0000
  H   H5        1.0  0.97985  0.04371  0.34402  1.0000
  H   H6        1.0  0.04458  0.97888  0.33736  1.0000
  H   H7        1.0  0.11841  0.18791  0.33987  1.0000
  H   H8        1.0  0.18882  0.11756  0.33530  1.0000
  H   H9        1.0  0.21448  0.99380  0.19576  1.0000
  H   H10       1.0  0.30854  0.99308  0.19538  1.0000
  H   H11       1.0  0.18716  0.90619  0.33734  1.0000
  H   H12       1.0  0.11704  0.83618  0.33580  1.0000
  H   H13       1.0  0.83548  0.90532  0.34607  1.0000
  H   H14       1.0  0.90574  0.83476  0.34271  1.0000
  H   H15       1.0  0.99344  0.80893  0.19604  1.0000
  H   H16       1.0  0.99299  0.71487  0.19584  1.0000
  H   H17       1.0  0.80936  0.01394  0.20178  1.0000
  H   H18       1.0  0.71547  0.01595  0.20331  1.0000
  N   N5        1.0  0.01025  0.65329  0.33038  1.0000
  N   N6        1.0  0.37024  0.00967  0.33006  1.0000
  N   N7        1.0  0.01467  0.36865  0.35301  1.0000
  N   N8        1.0  0.65490  0.01458  0.35321  1.0000
  C   C37       1.0  0.00417  0.45758  0.31580  1.0000
  N   N9        1.0  0.00209  0.54864  0.27800  1.0000
  C   C38       1.0  0.99624  0.49796  0.24998  1.0000
  C   C39       1.0  0.98443  0.48834  0.15907  1.0000
  O   O1        1.0  0.95585  0.52027  0.12119  1.0000
  O   O2        1.0  0.02404  0.46966  0.10860  1.0000
  C   C40       1.0  0.00872  0.43211  0.04012  1.0000
  H   H19       1.0  0.04404  0.41838  0.00568  1.0000
  H   H20       1.0  0.98914  0.39819  0.07027  1.0000
  C   C41       1.0  0.99835  0.40437  0.29768  1.0000
  H   H21       1.0  0.98000  0.39355  0.24092  1.0000
  C   C42       1.0  0.56601  0.00402  0.31578  1.0000
  N   N10       1.0  0.47497  0.00142  0.27788  1.0000
  C   C43       1.0  0.52569  0.99545  0.25013  1.0000
  C   C44       1.0  0.53541  0.98275  0.15956  1.0000
  O   O3        1.0  0.50389  0.95346  0.12254  1.0000
  O   O4        1.0  0.55241  0.02314  0.10915  1.0000
  C   C45       1.0  0.59034  0.00919  0.04040  1.0000
  H   H22       1.0  0.60257  0.04496  0.00573  1.0000
  H   H23       1.0  0.62510  0.99098  0.07035  1.0000
  C   C46       1.0  0.61925  0.99820  0.29784  1.0000
  H   H24       1.0  0.63015  0.97977  0.24118  1.0000
  C   C47       1.0  0.79100  0.01089  0.42954  1.0000
  C   C48       1.0  0.73580  0.01192  0.43031  1.0000
  C   C49       1.0  0.02221  0.78913  0.41771  1.0000
  C   C50       1.0  0.02222  0.73394  0.41736  1.0000
  C   C51       1.0  0.28966  0.02120  0.41739  1.0000
  C   C52       1.0  0.23448  0.02129  0.41785  1.0000
  C   C53       1.0  0.01210  0.23253  0.42930  1.0000
  C   C54       1.0  0.01266  0.28774  0.43006  1.0000
  H   H25       1.0  0.01261  0.30688  0.49158  1.0000
  H   H26       1.0  0.01179  0.21271  0.49015  1.0000
  H   H27       1.0  0.21517  0.02873  0.47783  1.0000
  H   H28       1.0  0.30877  0.02843  0.47742  1.0000
  H   H29       1.0  0.02979  0.80849  0.47756  1.0000
  H   H30       1.0  0.02978  0.71487  0.47732  1.0000
  H   H31       1.0  0.71665  0.01168  0.49182  1.0000
  H   H32       1.0  0.81081  0.01004  0.49038  1.0000
  N   N11       1.0  0.01693  0.47272  0.40229  1.0000
  C   C55       1.0  0.02258  0.52330  0.42892  1.0000
  C   C56       1.0  0.01469  0.56370  0.36448  1.0000
  H   H33       1.0  0.03211  0.53118  0.49541  1.0000
  H   H34       1.0  0.98314  0.44986  0.65545  1.0000
  C   C57       1.0  0.01936  0.61618  0.38790  1.0000
  H   H35       1.0  0.02983  0.62512  0.45142  1.0000
  N   N12       1.0  0.55078  0.01751  0.40190  1.0000
  C   C58       1.0  0.50017  0.02328  0.42828  1.0000
  C   C59       1.0  0.45983  0.01474  0.36400  1.0000
  H   H36       1.0  0.49223  0.03337  0.49450  1.0000
  H   H37       1.0  0.57349  0.98287  0.65597  1.0000
  C   C60       1.0  0.40733  0.01951  0.38724  1.0000
  H   H38       1.0  0.39835  0.03073  0.45036  1.0000
