data_image0
_chemical_formula_structural       C4NC4NH4N2C7H3NO2CHC7H3NO2CHC2HC2H3N2C2HC3HC2H4CHC2HC3HC2H4CHC4NC4NH4N2C7H3NO2CHC7H3NO2CHC2HC2H3N2C2HC3HC2H4CHC2HC3HC2H4CHC4NC4NH4N2C7H3NO2CHC7H3NO2CHC2HC2H3N2C2HC3HC2H4CHC2HC3HC2H4CHC4NC4NH4N2C7H3NO2CHC7H3NO2CHC2HC2H3N2C2HC3HC2H4CHC2HC3HC2H4CH
_chemical_formula_sum              "C176 N32 H120 O16"
_cell_length_a       39.0876
_cell_length_b       39.0876
_cell_length_c       15.061
_cell_angle_alpha    90
_cell_angle_beta     90
_cell_angle_gamma    90

_space_group_name_H-M_alt    "P 1"
_space_group_IT_number       1

loop_
  _space_group_symop_operation_xyz
  'x, y, z'

loop_
  _atom_site_type_symbol
  _atom_site_label
  _atom_site_symmetry_multiplicity
  _atom_site_fract_x
  _atom_site_fract_y
  _atom_site_fract_z
  _atom_site_occupancy
  C   C1        1.0  0.01284  0.48118  0.27710  1.0000
  C   C2        1.0  0.06420  0.43002  0.30967  1.0000
  C   C3        1.0  0.07293  0.46210  0.27186  1.0000
  C   C4        1.0  0.04753  0.48684  0.25520  1.0000
  N   N1        1.0  0.08903  0.40661  0.32954  1.0000
  C   C5        1.0  0.48889  0.00869  0.27836  1.0000
  C   C6        1.0  0.45345  0.00286  0.26701  1.0000
  C   C7        1.0  0.42892  0.02810  0.28649  1.0000
  C   C8        1.0  0.43935  0.06182  0.30957  1.0000
  N   N2        1.0  0.41611  0.08789  0.31475  1.0000
  H   H1        1.0  0.39297  0.08513  0.29274  1.0000
  H   H2        1.0  0.11319  0.41139  0.32068  1.0000
  H   H3        1.0  0.05487  0.01009  0.23073  1.0000
  H   H4        1.0  0.44499  0.47905  0.24903  1.0000
  N   N3        1.0  0.39626  0.01669  0.28671  1.0000
  N   N4        1.0  0.10620  0.46972  0.25909  1.0000
  C   C9        1.0  0.99333  0.33708  0.38219  1.0000
  C   C10       1.0  0.96353  0.31696  0.37699  1.0000
  C   C11       1.0  0.96457  0.28077  0.38291  1.0000
  C   C12       1.0  0.99623  0.26353  0.40037  1.0000
  C   C13       1.0  0.00056  0.22705  0.40096  1.0000
  C   C14       1.0  0.47346  0.20369  0.41604  1.0000
  C   C15       1.0  0.47754  0.16834  0.40405  1.0000
  H   H5        1.0  0.45034  0.21168  0.43925  1.0000
  H   H6        1.0  0.45674  0.15302  0.41454  1.0000
  H   H7        1.0  0.44080  0.32849  0.36091  1.0000
  N   N5        1.0  0.93446  0.26271  0.35935  1.0000
  O   O1        1.0  0.90968  0.26962  0.40953  1.0000
  O   O2        1.0  0.92577  0.26771  0.28000  1.0000
  C   C16       1.0  0.49170  0.37248  0.36407  1.0000
  H   H8        1.0  0.46864  0.38364  0.35022  1.0000
  C   C17       1.0  0.15827  0.99783  0.22492  1.0000
  C   C18       1.0  0.17915  0.01233  0.15879  1.0000
  C   C19       1.0  0.21486  0.01610  0.17124  1.0000
  C   C20       1.0  0.22981  0.00741  0.25483  1.0000
  C   C21       1.0  0.26529  0.01073  0.27470  1.0000
  C   C22       1.0  0.29123  0.50582  0.21027  1.0000
  C   C23       1.0  0.32598  0.50859  0.23232  1.0000
  H   H9        1.0  0.28544  0.49791  0.14747  1.0000
  H   H10       1.0  0.34375  0.50524  0.18314  1.0000
  H   H11       1.0  0.16856  0.51933  0.09928  1.0000
  N   N6        1.0  0.23430  0.03247  0.10404  1.0000
  O   O3        1.0  0.23328  0.01634  0.03182  1.0000
  O   O4        1.0  0.22459  0.06269  0.09063  1.0000
  C   C24       1.0  0.12302  0.49351  0.21127  1.0000
  H   H12       1.0  0.11094  0.50512  0.15904  1.0000
  C   C25       1.0  0.00398  0.44769  0.30562  1.0000
  C   C26       1.0  0.02901  0.42240  0.32242  1.0000
  H   H13       1.0  0.47939  0.44236  0.32353  1.0000
  C   C27       1.0  0.47489  0.06853  0.31817  1.0000
  C   C28       1.0  0.49902  0.04244  0.30159  1.0000
  H   H14       1.0  0.02408  0.04772  0.31499  1.0000
  H   H15       1.0  0.42315  0.11138  0.32441  1.0000
  H   H16       1.0  0.08370  0.38460  0.35601  1.0000
  N   N7        1.0  0.48442  0.10037  0.34303  1.0000
  N   N8        1.0  0.02065  0.39040  0.34920  1.0000
  C   C29       1.0  0.02615  0.28427  0.40894  1.0000
  C   C30       1.0  0.02445  0.32016  0.39987  1.0000
  H   H17       1.0  0.04648  0.33411  0.40570  1.0000
  C   C31       1.0  0.00929  0.15428  0.37795  1.0000
  C   C32       1.0  0.03751  0.17670  0.37282  1.0000
  C   C33       1.0  0.03358  0.21239  0.38561  1.0000
  H   H18       1.0  0.06103  0.16719  0.35560  1.0000
  C   C34       1.0  0.06395  0.23485  0.37413  1.0000
  C   C35       1.0  0.05982  0.26810  0.42839  1.0000
  H   H19       1.0  0.06686  0.24095  0.30367  1.0000
  H   H20       1.0  0.08727  0.22198  0.39648  1.0000
  H   H21       1.0  0.08134  0.28505  0.41345  1.0000
  H   H22       1.0  0.56080  0.26205  0.49924  1.0000
  C   C36       1.0  0.01278  0.11933  0.35603  1.0000
  H   H23       1.0  0.03610  0.10940  0.33915  1.0000
  C   C37       1.0  0.20773  0.99675  0.32498  1.0000
  C   C38       1.0  0.17305  0.98993  0.30783  1.0000
  H   H24       1.0  0.15795  0.98137  0.35881  1.0000
  C   C39       1.0  0.33592  0.01843  0.31870  1.0000
  C   C40       1.0  0.31048  0.02234  0.38426  1.0000
  C   C41       1.0  0.27576  0.01651  0.36417  1.0000
  H   H25       1.0  0.31732  0.02843  0.44803  1.0000
  C   C42       1.0  0.24978  0.01791  0.43613  1.0000
  C   C43       1.0  0.22113  0.99167  0.41673  1.0000
  H   H26       1.0  0.23900  0.04371  0.43883  1.0000
  H   H27       1.0  0.26098  0.01212  0.50098  1.0000
  H   H28       1.0  0.20105  0.99484  0.46666  1.0000
  H   H29       1.0  0.23123  0.46567  0.42244  1.0000
  C   C44       1.0  0.37001  0.02619  0.33925  1.0000
  H   H30       1.0  0.37546  0.03871  0.39737  1.0000
  C   C45       1.0  0.01284  0.98118  0.27710  1.0000
  C   C46       1.0  0.06420  0.93002  0.30967  1.0000
  C   C47       1.0  0.07293  0.96210  0.27186  1.0000
  C   C48       1.0  0.04753  0.98684  0.25520  1.0000
  N   N9        1.0  0.08903  0.90661  0.32954  1.0000
  C   C49       1.0  0.48889  0.50869  0.27836  1.0000
  C   C50       1.0  0.45345  0.50286  0.26701  1.0000
  C   C51       1.0  0.42892  0.52810  0.28649  1.0000
  C   C52       1.0  0.43935  0.56181  0.30957  1.0000
  N   N10       1.0  0.41611  0.58789  0.31475  1.0000
  H   H31       1.0  0.39297  0.58513  0.29274  1.0000
  H   H32       1.0  0.11319  0.91139  0.32068  1.0000
  H   H33       1.0  0.05487  0.51009  0.23073  1.0000
  H   H34       1.0  0.44499  0.97905  0.24903  1.0000
  N   N11       1.0  0.39626  0.51669  0.28671  1.0000
  N   N12       1.0  0.10620  0.96973  0.25909  1.0000
  C   C53       1.0  0.99333  0.83709  0.38219  1.0000
  C   C54       1.0  0.96353  0.81696  0.37699  1.0000
  C   C55       1.0  0.96457  0.78077  0.38291  1.0000
  C   C56       1.0  0.99623  0.76353  0.40037  1.0000
  C   C57       1.0  0.00056  0.72705  0.40096  1.0000
  C   C58       1.0  0.47346  0.70369  0.41604  1.0000
  C   C59       1.0  0.47754  0.66834  0.40405  1.0000
  H   H35       1.0  0.45034  0.71168  0.43925  1.0000
  H   H36       1.0  0.45674  0.65302  0.41454  1.0000
  H   H37       1.0  0.44080  0.82849  0.36091  1.0000
  N   N13       1.0  0.93446  0.76271  0.35935  1.0000
  O   O5        1.0  0.90968  0.76962  0.40953  1.0000
  O   O6        1.0  0.92577  0.76771  0.28000  1.0000
  C   C60       1.0  0.49170  0.87248  0.36407  1.0000
  H   H38       1.0  0.46864  0.88364  0.35022  1.0000
  C   C61       1.0  0.15827  0.49783  0.22492  1.0000
  C   C62       1.0  0.17915  0.51233  0.15879  1.0000
  C   C63       1.0  0.21486  0.51610  0.17124  1.0000
  C   C64       1.0  0.22981  0.50741  0.25483  1.0000
  C   C65       1.0  0.26529  0.51073  0.27470  1.0000
  C   C66       1.0  0.29123  0.00582  0.21027  1.0000
  C   C67       1.0  0.32598  0.00859  0.23232  1.0000
  H   H39       1.0  0.28544  0.99791  0.14747  1.0000
  H   H40       1.0  0.34375  0.00524  0.18314  1.0000
  H   H41       1.0  0.16856  0.01932  0.09928  1.0000
  N   N14       1.0  0.23430  0.53247  0.10404  1.0000
  O   O7        1.0  0.23328  0.51634  0.03182  1.0000
  O   O8        1.0  0.22459  0.56269  0.09063  1.0000
  C   C68       1.0  0.12302  0.99351  0.21127  1.0000
  H   H42       1.0  0.11094  0.00512  0.15904  1.0000
  C   C69       1.0  0.00398  0.94769  0.30562  1.0000
  C   C70       1.0  0.02901  0.92240  0.32242  1.0000
  H   H43       1.0  0.47939  0.94236  0.32353  1.0000
  C   C71       1.0  0.47489  0.56853  0.31817  1.0000
  C   C72       1.0  0.49902  0.54244  0.30159  1.0000
  H   H44       1.0  0.02408  0.54771  0.31499  1.0000
  H   H45       1.0  0.42315  0.61138  0.32441  1.0000
  H   H46       1.0  0.08370  0.88461  0.35601  1.0000
  N   N15       1.0  0.48442  0.60037  0.34303  1.0000
  N   N16       1.0  0.02065  0.89040  0.34920  1.0000
  C   C73       1.0  0.02615  0.78427  0.40894  1.0000
  C   C74       1.0  0.02445  0.82016  0.39987  1.0000
  H   H47       1.0  0.04648  0.83411  0.40570  1.0000
  C   C75       1.0  0.00929  0.65428  0.37795  1.0000
  C   C76       1.0  0.03751  0.67670  0.37282  1.0000
  C   C77       1.0  0.03358  0.71239  0.38561  1.0000
  H   H48       1.0  0.06103  0.66719  0.35560  1.0000
  C   C78       1.0  0.06395  0.73485  0.37413  1.0000
  C   C79       1.0  0.05982  0.76811  0.42839  1.0000
  H   H49       1.0  0.06686  0.74095  0.30367  1.0000
  H   H50       1.0  0.08727  0.72198  0.39648  1.0000
  H   H51       1.0  0.08134  0.78506  0.41345  1.0000
  H   H52       1.0  0.56080  0.76205  0.49924  1.0000
  C   C80       1.0  0.01278  0.61934  0.35603  1.0000
  H   H53       1.0  0.03610  0.60940  0.33915  1.0000
  C   C81       1.0  0.20773  0.49674  0.32498  1.0000
  C   C82       1.0  0.17305  0.48994  0.30783  1.0000
  H   H54       1.0  0.15795  0.48137  0.35881  1.0000
  C   C83       1.0  0.33592  0.51843  0.31870  1.0000
  C   C84       1.0  0.31048  0.52234  0.38426  1.0000
  C   C85       1.0  0.27576  0.51651  0.36417  1.0000
  H   H55       1.0  0.31732  0.52843  0.44803  1.0000
  C   C86       1.0  0.24978  0.51791  0.43613  1.0000
  C   C87       1.0  0.22113  0.49167  0.41673  1.0000
  H   H56       1.0  0.23900  0.54371  0.43883  1.0000
  H   H57       1.0  0.26098  0.51212  0.50098  1.0000
  H   H58       1.0  0.20105  0.49484  0.46666  1.0000
  H   H59       1.0  0.23123  0.96567  0.42244  1.0000
  C   C88       1.0  0.37001  0.52619  0.33925  1.0000
  H   H60       1.0  0.37546  0.53871  0.39737  1.0000
  C   C89       1.0  0.51284  0.48118  0.27710  1.0000
  C   C90       1.0  0.56420  0.43002  0.30967  1.0000
  C   C91       1.0  0.57294  0.46210  0.27186  1.0000
  C   C92       1.0  0.54753  0.48684  0.25520  1.0000
  N   N17       1.0  0.58903  0.40661  0.32954  1.0000
  C   C93       1.0  0.98889  0.00869  0.27836  1.0000
  C   C94       1.0  0.95346  0.00286  0.26701  1.0000
  C   C95       1.0  0.92892  0.02810  0.28649  1.0000
  C   C96       1.0  0.93935  0.06182  0.30957  1.0000
  N   N18       1.0  0.91611  0.08789  0.31475  1.0000
  H   H61       1.0  0.89297  0.08513  0.29274  1.0000
  H   H62       1.0  0.61319  0.41139  0.32068  1.0000
  H   H63       1.0  0.55487  0.01009  0.23073  1.0000
  H   H64       1.0  0.94499  0.47905  0.24903  1.0000
  N   N19       1.0  0.89626  0.01669  0.28671  1.0000
  N   N20       1.0  0.60620  0.46972  0.25909  1.0000
  C   C97       1.0  0.49333  0.33708  0.38219  1.0000
  C   C98       1.0  0.46353  0.31696  0.37699  1.0000
  C   C99       1.0  0.46457  0.28077  0.38291  1.0000
  C   C100      1.0  0.49623  0.26353  0.40037  1.0000
  C   C101      1.0  0.50056  0.22705  0.40096  1.0000
  C   C102      1.0  0.97346  0.20369  0.41604  1.0000
  C   C103      1.0  0.97754  0.16834  0.40405  1.0000
  H   H65       1.0  0.95034  0.21168  0.43925  1.0000
  H   H66       1.0  0.95674  0.15302  0.41454  1.0000
  H   H67       1.0  0.94080  0.32849  0.36091  1.0000
  N   N21       1.0  0.43446  0.26271  0.35935  1.0000
  O   O9        1.0  0.40968  0.26962  0.40953  1.0000
  O   O10       1.0  0.42577  0.26771  0.28000  1.0000
  C   C104      1.0  0.99170  0.37248  0.36407  1.0000
  H   H68       1.0  0.96864  0.38364  0.35022  1.0000
  C   C105      1.0  0.65827  0.99783  0.22492  1.0000
  C   C106      1.0  0.67915  0.01233  0.15879  1.0000
  C   C107      1.0  0.71486  0.01610  0.17124  1.0000
  C   C108      1.0  0.72981  0.00741  0.25483  1.0000
  C   C109      1.0  0.76529  0.01073  0.27470  1.0000
  C   C110      1.0  0.79123  0.50582  0.21027  1.0000
  C   C111      1.0  0.82598  0.50859  0.23232  1.0000
  H   H69       1.0  0.78544  0.49791  0.14747  1.0000
  H   H70       1.0  0.84375  0.50524  0.18314  1.0000
  H   H71       1.0  0.66856  0.51933  0.09928  1.0000
  N   N22       1.0  0.73430  0.03247  0.10404  1.0000
  O   O11       1.0  0.73329  0.01634  0.03182  1.0000
  O   O12       1.0  0.72459  0.06269  0.09063  1.0000
  C   C112      1.0  0.62302  0.49351  0.21127  1.0000
  H   H72       1.0  0.61094  0.50512  0.15904  1.0000
  C   C113      1.0  0.50399  0.44769  0.30562  1.0000
  C   C114      1.0  0.52902  0.42240  0.32242  1.0000
  H   H73       1.0  0.97939  0.44236  0.32353  1.0000
  C   C115      1.0  0.97489  0.06853  0.31817  1.0000
  C   C116      1.0  0.99901  0.04244  0.30159  1.0000
  H   H74       1.0  0.52408  0.04772  0.31499  1.0000
  H   H75       1.0  0.92315  0.11138  0.32441  1.0000
  H   H76       1.0  0.58370  0.38460  0.35601  1.0000
  N   N23       1.0  0.98442  0.10037  0.34303  1.0000
  N   N24       1.0  0.52066  0.39040  0.34920  1.0000
  C   C117      1.0  0.52615  0.28427  0.40894  1.0000
  C   C118      1.0  0.52446  0.32016  0.39987  1.0000
  H   H77       1.0  0.54648  0.33411  0.40570  1.0000
  C   C119      1.0  0.50929  0.15428  0.37795  1.0000
  C   C120      1.0  0.53751  0.17670  0.37282  1.0000
  C   C121      1.0  0.53358  0.21239  0.38561  1.0000
  H   H78       1.0  0.56103  0.16719  0.35560  1.0000
  C   C122      1.0  0.56395  0.23485  0.37413  1.0000
  C   C123      1.0  0.55982  0.26810  0.42839  1.0000
  H   H79       1.0  0.56686  0.24095  0.30367  1.0000
  H   H80       1.0  0.58727  0.22198  0.39648  1.0000
  H   H81       1.0  0.58134  0.28505  0.41345  1.0000
  H   H82       1.0  0.06080  0.26205  0.49924  1.0000
  C   C124      1.0  0.51278  0.11933  0.35603  1.0000
  H   H83       1.0  0.53610  0.10940  0.33915  1.0000
  C   C125      1.0  0.70773  0.99675  0.32498  1.0000
  C   C126      1.0  0.67305  0.98993  0.30783  1.0000
  H   H84       1.0  0.65795  0.98137  0.35881  1.0000
  C   C127      1.0  0.83592  0.01843  0.31870  1.0000
  C   C128      1.0  0.81048  0.02234  0.38426  1.0000
  C   C129      1.0  0.77576  0.01651  0.36417  1.0000
  H   H85       1.0  0.81732  0.02843  0.44803  1.0000
  C   C130      1.0  0.74978  0.01791  0.43613  1.0000
  C   C131      1.0  0.72114  0.99167  0.41673  1.0000
  H   H86       1.0  0.73900  0.04371  0.43883  1.0000
  H   H87       1.0  0.76098  0.01212  0.50098  1.0000
  H   H88       1.0  0.70105  0.99484  0.46666  1.0000
  H   H89       1.0  0.73124  0.46567  0.42244  1.0000
  C   C132      1.0  0.87001  0.02619  0.33925  1.0000
  H   H90       1.0  0.87546  0.03871  0.39737  1.0000
  C   C133      1.0  0.51284  0.98118  0.27710  1.0000
  C   C134      1.0  0.56420  0.93002  0.30967  1.0000
  C   C135      1.0  0.57294  0.96210  0.27186  1.0000
  C   C136      1.0  0.54753  0.98684  0.25520  1.0000
  N   N25       1.0  0.58903  0.90661  0.32954  1.0000
  C   C137      1.0  0.98889  0.50869  0.27836  1.0000
  C   C138      1.0  0.95346  0.50286  0.26701  1.0000
  C   C139      1.0  0.92892  0.52810  0.28649  1.0000
  C   C140      1.0  0.93935  0.56181  0.30957  1.0000
  N   N26       1.0  0.91611  0.58789  0.31475  1.0000
  H   H91       1.0  0.89297  0.58513  0.29274  1.0000
  H   H92       1.0  0.61319  0.91139  0.32068  1.0000
  H   H93       1.0  0.55487  0.51009  0.23073  1.0000
  H   H94       1.0  0.94499  0.97905  0.24903  1.0000
  N   N27       1.0  0.89626  0.51669  0.28671  1.0000
  N   N28       1.0  0.60620  0.96973  0.25909  1.0000
  C   C141      1.0  0.49333  0.83709  0.38219  1.0000
  C   C142      1.0  0.46353  0.81696  0.37699  1.0000
  C   C143      1.0  0.46457  0.78077  0.38291  1.0000
  C   C144      1.0  0.49623  0.76353  0.40037  1.0000
  C   C145      1.0  0.50056  0.72705  0.40096  1.0000
  C   C146      1.0  0.97346  0.70369  0.41604  1.0000
  C   C147      1.0  0.97754  0.66834  0.40405  1.0000
  H   H95       1.0  0.95034  0.71168  0.43925  1.0000
  H   H96       1.0  0.95674  0.65302  0.41454  1.0000
  H   H97       1.0  0.94080  0.82849  0.36091  1.0000
  N   N29       1.0  0.43446  0.76271  0.35935  1.0000
  O   O13       1.0  0.40968  0.76962  0.40953  1.0000
  O   O14       1.0  0.42577  0.76771  0.28000  1.0000
  C   C148      1.0  0.99170  0.87248  0.36407  1.0000
  H   H98       1.0  0.96864  0.88364  0.35022  1.0000
  C   C149      1.0  0.65827  0.49783  0.22492  1.0000
  C   C150      1.0  0.67915  0.51233  0.15879  1.0000
  C   C151      1.0  0.71486  0.51610  0.17124  1.0000
  C   C152      1.0  0.72981  0.50741  0.25483  1.0000
  C   C153      1.0  0.76529  0.51073  0.27470  1.0000
  C   C154      1.0  0.79123  0.00582  0.21027  1.0000
  C   C155      1.0  0.82598  0.00859  0.23232  1.0000
  H   H99       1.0  0.78544  0.99791  0.14747  1.0000
  H   H100      1.0  0.84375  0.00524  0.18314  1.0000
  H   H101      1.0  0.66856  0.01932  0.09928  1.0000
  N   N30       1.0  0.73430  0.53247  0.10404  1.0000
  O   O15       1.0  0.73329  0.51634  0.03182  1.0000
  O   O16       1.0  0.72459  0.56269  0.09063  1.0000
  C   C156      1.0  0.62302  0.99351  0.21127  1.0000
  H   H102      1.0  0.61094  0.00512  0.15904  1.0000
  C   C157      1.0  0.50399  0.94769  0.30562  1.0000
  C   C158      1.0  0.52902  0.92240  0.32242  1.0000
  H   H103      1.0  0.97939  0.94236  0.32353  1.0000
  C   C159      1.0  0.97489  0.56853  0.31817  1.0000
  C   C160      1.0  0.99901  0.54244  0.30159  1.0000
  H   H104      1.0  0.52408  0.54771  0.31499  1.0000
  H   H105      1.0  0.92315  0.61138  0.32441  1.0000
  H   H106      1.0  0.58370  0.88461  0.35601  1.0000
  N   N31       1.0  0.98442  0.60037  0.34303  1.0000
  N   N32       1.0  0.52066  0.89040  0.34920  1.0000
  C   C161      1.0  0.52615  0.78427  0.40894  1.0000
  C   C162      1.0  0.52446  0.82016  0.39987  1.0000
  H   H107      1.0  0.54648  0.83411  0.40570  1.0000
  C   C163      1.0  0.50929  0.65428  0.37795  1.0000
  C   C164      1.0  0.53751  0.67670  0.37282  1.0000
  C   C165      1.0  0.53358  0.71239  0.38561  1.0000
  H   H108      1.0  0.56103  0.66719  0.35560  1.0000
  C   C166      1.0  0.56395  0.73485  0.37413  1.0000
  C   C167      1.0  0.55982  0.76811  0.42839  1.0000
  H   H109      1.0  0.56686  0.74095  0.30367  1.0000
  H   H110      1.0  0.58727  0.72198  0.39648  1.0000
  H   H111      1.0  0.58134  0.78506  0.41345  1.0000
  H   H112      1.0  0.06080  0.76205  0.49924  1.0000
  C   C168      1.0  0.51278  0.61934  0.35603  1.0000
  H   H113      1.0  0.53610  0.60940  0.33915  1.0000
  C   C169      1.0  0.70773  0.49674  0.32498  1.0000
  C   C170      1.0  0.67305  0.48994  0.30783  1.0000
  H   H114      1.0  0.65795  0.48137  0.35881  1.0000
  C   C171      1.0  0.83592  0.51843  0.31870  1.0000
  C   C172      1.0  0.81048  0.52234  0.38426  1.0000
  C   C173      1.0  0.77576  0.51651  0.36417  1.0000
  H   H115      1.0  0.81732  0.52843  0.44803  1.0000
  C   C174      1.0  0.74978  0.51791  0.43613  1.0000
  C   C175      1.0  0.72114  0.49167  0.41673  1.0000
  H   H116      1.0  0.73900  0.54371  0.43883  1.0000
  H   H117      1.0  0.76098  0.51212  0.50098  1.0000
  H   H118      1.0  0.70105  0.49484  0.46666  1.0000
  H   H119      1.0  0.73124  0.96567  0.42244  1.0000
  C   C176      1.0  0.87001  0.52619  0.33925  1.0000
  H   H120      1.0  0.87546  0.53871  0.39737  1.0000
