data_image0
_chemical_formula_structural       HCNC2NCH3C4H2C2NC5NC35H19C21H18C16H16C3H3CH3C3H3CH3C5H3CH3C3H3CH3C3H3CH3C5H3CH3C18H17C3NC3NC2NC5NC34H24C3NC3NC5NC5NC36H26C5H3CH3C5H3CH3C3H3CH3C5H3CH3C5H3CH3C3H3CH3
_chemical_formula_sum              "H198 C264 N12"
_cell_length_a       58.6657
_cell_length_b       58.6658
_cell_length_c       14.9454
_cell_angle_alpha    89.774
_cell_angle_beta     90.226
_cell_angle_gamma    120

_space_group_name_H-M_alt    "P 1"
_space_group_IT_number       1

loop_
  _space_group_symop_operation_xyz
  'x, y, z'

loop_
  _atom_site_type_symbol
  _atom_site_label
  _atom_site_symmetry_multiplicity
  _atom_site_fract_x
  _atom_site_fract_y
  _atom_site_fract_z
  _atom_site_occupancy
  H   H1        1.0  0.00994  0.46670  0.33782  1.0000
  C   C1        1.0  0.02126  0.48676  0.33706  1.0000
  N   N1        1.0  0.03487  0.52897  0.33611  1.0000
  C   C2        1.0  0.01261  0.50505  0.33693  1.0000
  C   C3        1.0  0.01266  0.60346  0.33526  1.0000
  N   N2        1.0  0.03490  0.60177  0.33606  1.0000
  C   C4        1.0  0.02134  0.63041  0.33493  1.0000
  H   H2        1.0  0.03487  0.54534  0.33620  1.0000
  H   H3        1.0  0.03489  0.58540  0.33622  1.0000
  H   H4        1.0  0.01005  0.63917  0.33402  1.0000
  C   C5        1.0  0.04843  0.50033  0.33501  1.0000
  C   C6        1.0  0.05711  0.52728  0.33527  1.0000
  C   C7        1.0  0.05716  0.62569  0.33681  1.0000
  C   C8        1.0  0.04851  0.64398  0.33690  1.0000
  H   H5        1.0  0.05973  0.49158  0.33410  1.0000
  H   H6        1.0  0.05982  0.66403  0.33772  1.0000
  C   C9        1.0  0.98576  0.49860  0.33801  1.0000
  C   C10       1.0  0.97721  0.51742  0.33712  1.0000
  N   N3        1.0  0.99208  0.54399  0.33611  1.0000
  C   C11       1.0  0.97723  0.55571  0.33526  1.0000
  C   C12       1.0  0.95108  0.53526  0.33619  1.0000
  C   C13       1.0  0.95107  0.51175  0.33643  1.0000
  C   C14       1.0  0.98580  0.58308  0.33439  1.0000
  C   C15       1.0  0.08402  0.63214  0.33785  1.0000
  N   N4        1.0  0.07769  0.58676  0.33606  1.0000
  C   C16       1.0  0.09254  0.57504  0.33518  1.0000
  C   C17       1.0  0.11869  0.59549  0.33613  1.0000
  C   C18       1.0  0.11870  0.61900  0.33637  1.0000
  C   C19       1.0  0.08397  0.54767  0.33429  1.0000
  C   C20       1.0  0.10385  0.54034  0.33230  1.0000
  C   C21       1.0  0.11854  0.54382  0.25360  1.0000
  C   C22       1.0  0.13962  0.53880  0.25356  1.0000
  C   C23       1.0  0.14625  0.52959  0.33154  1.0000
  C   C24       1.0  0.16842  0.52578  0.33254  1.0000
  C   C25       1.0  0.21564  0.54298  0.30875  1.0000
  C   C26       1.0  0.19352  0.54634  0.30624  1.0000
  C   C27       1.0  0.10390  0.65935  0.33991  1.0000
  C   C28       1.0  0.11018  0.67514  0.26214  1.0000
  C   C29       1.0  0.13074  0.70153  0.26316  1.0000
  C   C30       1.0  0.14597  0.71266  0.34130  1.0000
  C   C31       1.0  0.16790  0.73877  0.34074  1.0000
  C   C32       1.0  0.16522  0.76039  0.31268  1.0000
  C   C33       1.0  0.18702  0.78614  0.31246  1.0000
  C   C34       1.0  0.21225  0.79085  0.33784  1.0000
  C   C35       1.0  0.96594  0.59044  0.33261  1.0000
  C   C36       1.0  0.92396  0.60182  0.33180  1.0000
  C   C37       1.0  0.93025  0.59246  0.25394  1.0000
  C   C38       1.0  0.95112  0.58712  0.25400  1.0000
  C   C39       1.0  0.90211  0.60613  0.33263  1.0000
  C   C40       1.0  0.87680  0.58588  0.30662  1.0000
  C   C41       1.0  0.85499  0.58976  0.30894  1.0000
  C   C42       1.0  0.85795  0.61417  0.33582  1.0000
  C   C43       1.0  0.96586  0.47140  0.34025  1.0000
  C   C44       1.0  0.95929  0.45572  0.26243  1.0000
  C   C45       1.0  0.93853  0.42942  0.26342  1.0000
  C   C46       1.0  0.92337  0.41829  0.34159  1.0000
  C   C47       1.0  0.90113  0.39236  0.34085  1.0000
  C   C48       1.0  0.85615  0.34069  0.33759  1.0000
  C   C49       1.0  0.88117  0.34496  0.31202  1.0000
  C   C50       1.0  0.90328  0.37053  0.31237  1.0000
  H   H7        1.0  0.88337  0.32951  0.29200  1.0000
  H   H8        1.0  0.92112  0.37300  0.29331  1.0000
  H   H9        1.0  0.93384  0.41882  0.20533  1.0000
  H   H10       1.0  0.96927  0.46351  0.20400  1.0000
  H   H11       1.0  0.93445  0.49363  0.33630  1.0000
  H   H12       1.0  0.93448  0.53679  0.33652  1.0000
  H   H13       1.0  0.95499  0.58012  0.19683  1.0000
  H   H14       1.0  0.91964  0.58945  0.19627  1.0000
  H   H15       1.0  0.13532  0.63712  0.33623  1.0000
  H   H16       1.0  0.10009  0.66738  0.20378  1.0000
  H   H17       1.0  0.13519  0.71224  0.20517  1.0000
  H   H18       1.0  0.18443  0.80143  0.29267  1.0000
  H   H19       1.0  0.14722  0.75760  0.29368  1.0000
  H   H20       1.0  0.19604  0.56421  0.28685  1.0000
  H   H21       1.0  0.23357  0.55836  0.29026  1.0000
  H   H22       1.0  0.15016  0.54198  0.19589  1.0000
  H   H23       1.0  0.11448  0.55080  0.19642  1.0000
  H   H24       1.0  0.87389  0.56788  0.28751  1.0000
  H   H25       1.0  0.83690  0.57459  0.29067  1.0000
  C   C51       1.0  0.54619  0.52065  0.33795  1.0000
  C   C52       1.0  0.56664  0.51495  0.33885  1.0000
  C   C53       1.0  0.59015  0.53845  0.33904  1.0000
  C   C54       1.0  0.55809  0.67401  0.25627  1.0000
  C   C55       1.0  0.56310  0.70011  0.25623  1.0000
  C   C56       1.0  0.55891  0.77183  0.31139  1.0000
  C   C57       1.0  0.55554  0.74636  0.30892  1.0000
  C   C58       1.0  0.42680  0.53431  0.26438  1.0000
  C   C59       1.0  0.40041  0.52848  0.26517  1.0000
  C   C60       1.0  0.34152  0.50398  0.31428  1.0000
  C   C61       1.0  0.31576  0.50003  0.31374  1.0000
  C   C62       1.0  0.31105  0.52053  0.33881  1.0000
  C   C63       1.0  0.50944  0.43709  0.25660  1.0000
  C   C64       1.0  0.51477  0.46329  0.25666  1.0000
  C   C65       1.0  0.51602  0.39011  0.30931  1.0000
  C   C66       1.0  0.51215  0.36443  0.31160  1.0000
  C   C67       1.0  0.64614  0.60285  0.26470  1.0000
  C   C68       1.0  0.67243  0.60837  0.26547  1.0000
  C   C69       1.0  0.76120  0.61458  0.33859  1.0000
  C   C70       1.0  0.75691  0.63539  0.31328  1.0000
  C   C71       1.0  0.73135  0.63195  0.31402  1.0000
  H   H26       1.0  0.77235  0.65308  0.29315  1.0000
  H   H27       1.0  0.72886  0.64735  0.29506  1.0000
  H   H28       1.0  0.68301  0.61444  0.20734  1.0000
  H   H29       1.0  0.63832  0.60517  0.20634  1.0000
  H   H30       1.0  0.60827  0.53995  0.33884  1.0000
  H   H31       1.0  0.52179  0.47429  0.19952  1.0000
  H   H32       1.0  0.51245  0.42961  0.19894  1.0000
  H   H33       1.0  0.46272  0.47001  0.33667  1.0000
  H   H34       1.0  0.43458  0.53207  0.20612  1.0000
  H   H35       1.0  0.38972  0.52229  0.20715  1.0000
  H   H36       1.0  0.30050  0.48221  0.29394  1.0000
  H   H37       1.0  0.34431  0.48879  0.29555  1.0000
  H   H38       1.0  0.53768  0.73105  0.28951  1.0000
  H   H39       1.0  0.54353  0.77442  0.29290  1.0000
  H   H40       1.0  0.55990  0.70758  0.19856  1.0000
  H   H41       1.0  0.55107  0.66307  0.19914  1.0000
  H   H42       1.0  0.53402  0.40524  0.29018  1.0000
  H   H43       1.0  0.52731  0.36153  0.29333  1.0000
  C   C72       1.0  0.42801  0.98343  0.25712  1.0000
  C   C73       1.0  0.40191  0.96234  0.25661  1.0000
  C   C74       1.0  0.33009  0.88628  0.31028  1.0000
  C   C75       1.0  0.35558  0.90839  0.30834  1.0000
  C   C76       1.0  0.56762  0.99176  0.26663  1.0000
  C   C77       1.0  0.57347  0.97122  0.26756  1.0000
  C   C78       1.0  0.59793  0.93671  0.31685  1.0000
  C   C79       1.0  0.60187  0.91491  0.31636  1.0000
  C   C80       1.0  0.66468  0.17158  0.25694  1.0000
  C   C81       1.0  0.63847  0.15070  0.25750  1.0000
  C   C82       1.0  0.71175  0.22508  0.30856  1.0000
  C   C83       1.0  0.73743  0.24688  0.31036  1.0000
  C   C84       1.0  0.49901  0.14256  0.26691  1.0000
  C   C85       1.0  0.49346  0.16331  0.26782  1.0000
  C   C86       1.0  0.46650  0.22070  0.31586  1.0000
  C   C87       1.0  0.46994  0.19858  0.31654  1.0000
  H   H44       1.0  0.44881  0.21849  0.29576  1.0000
  H   H45       1.0  0.45453  0.18074  0.29755  1.0000
  H   H46       1.0  0.48744  0.16799  0.20970  1.0000
  H   H47       1.0  0.49669  0.13255  0.20853  1.0000
  H   H48       1.0  0.62739  0.14676  0.20051  1.0000
  H   H49       1.0  0.67207  0.18211  0.19910  1.0000
  H   H50       1.0  0.56985  0.00188  0.20833  1.0000
  H   H51       1.0  0.57962  0.96679  0.20954  1.0000
  H   H52       1.0  0.61970  0.91750  0.29653  1.0000
  H   H53       1.0  0.61312  0.95472  0.29805  1.0000
  H   H54       1.0  0.37092  0.90588  0.28918  1.0000
  H   H55       1.0  0.32753  0.86836  0.29166  1.0000
  H   H56       1.0  0.39452  0.95186  0.19877  1.0000
  H   H57       1.0  0.43903  0.98753  0.20016  1.0000
  H   H58       1.0  0.69658  0.22797  0.28972  1.0000
  H   H59       1.0  0.74031  0.26496  0.29193  1.0000
  C   C88       1.0  0.24737  0.51434  0.25451  1.0000
  C   C89       1.0  0.27289  0.51683  0.25450  1.0000
  C   C90       1.0  0.23306  0.51070  0.16725  1.0000
  H   H60       1.0  0.21269  0.50598  0.17414  1.0000
  H   H61       1.0  0.23230  0.49436  0.13014  1.0000
  H   H62       1.0  0.24318  0.52858  0.12697  1.0000
  C   C91       1.0  0.28647  0.51971  0.16647  1.0000
  H   H63       1.0  0.30681  0.52423  0.17155  1.0000
  H   H64       1.0  0.28702  0.53581  0.12794  1.0000
  H   H65       1.0  0.27589  0.50154  0.12819  1.0000
  C   C92       1.0  0.58754  0.83232  0.25713  1.0000
  C   C93       1.0  0.58506  0.85536  0.25712  1.0000
  C   C94       1.0  0.59117  0.82182  0.16986  1.0000
  H   H66       1.0  0.59589  0.80615  0.17676  1.0000
  H   H67       1.0  0.60752  0.83747  0.13275  1.0000
  H   H68       1.0  0.57329  0.81414  0.12959  1.0000
  C   C95       1.0  0.58218  0.86623  0.16909  1.0000
  H   H69       1.0  0.57767  0.88204  0.17417  1.0000
  H   H70       1.0  0.56607  0.85076  0.13056  1.0000
  H   H71       1.0  0.60035  0.87390  0.13080  1.0000
  C   C96       1.0  0.23468  0.81682  0.33716  1.0000
  C   C97       1.0  0.28248  0.86593  0.33771  1.0000
  C   C98       1.0  0.26971  0.85462  0.25480  1.0000
  C   C99       1.0  0.24667  0.82911  0.25427  1.0000
  C   C100      1.0  0.28036  0.86902  0.16778  1.0000
  H   H72       1.0  0.29602  0.88938  0.17503  1.0000
  H   H73       1.0  0.26478  0.86985  0.13041  1.0000
  H   H74       1.0  0.28809  0.85894  0.12759  1.0000
  C   C101      1.0  0.23593  0.81563  0.16600  1.0000
  H   H75       1.0  0.22010  0.79530  0.17072  1.0000
  H   H76       1.0  0.25146  0.81510  0.12775  1.0000
  H   H77       1.0  0.22835  0.82627  0.12762  1.0000
  C   C102      1.0  0.82411  0.61939  0.25415  1.0000
  C   C103      1.0  0.79884  0.61748  0.25418  1.0000
  C   C104      1.0  0.83815  0.62272  0.16681  1.0000
  H   H78       1.0  0.85840  0.62700  0.17361  1.0000
  H   H79       1.0  0.83923  0.63924  0.12944  1.0000
  H   H80       1.0  0.82764  0.60488  0.12683  1.0000
  C   C105      1.0  0.78517  0.61488  0.16620  1.0000
  H   H81       1.0  0.76499  0.61081  0.17136  1.0000
  H   H82       1.0  0.78415  0.59859  0.12797  1.0000
  H   H83       1.0  0.79599  0.63301  0.12760  1.0000
  C   C106      1.0  0.48251  0.30402  0.25678  1.0000
  C   C107      1.0  0.48443  0.28066  0.25680  1.0000
  C   C108      1.0  0.47919  0.31491  0.16945  1.0000
  H   H84       1.0  0.47490  0.33086  0.17625  1.0000
  H   H85       1.0  0.46267  0.29954  0.13207  1.0000
  H   H86       1.0  0.49704  0.32233  0.12948  1.0000
  C   C109      1.0  0.48703  0.26978  0.16882  1.0000
  H   H87       1.0  0.49110  0.25366  0.17397  1.0000
  H   H88       1.0  0.50331  0.28512  0.13057  1.0000
  H   H89       1.0  0.46890  0.26254  0.13023  1.0000
  C   C110      1.0  0.83340  0.31492  0.33683  1.0000
  C   C111      1.0  0.78503  0.26636  0.33733  1.0000
  C   C112      1.0  0.79776  0.27767  0.25441  1.0000
  C   C113      1.0  0.82112  0.30294  0.25393  1.0000
  C   C114      1.0  0.78673  0.26353  0.16734  1.0000
  H   H90       1.0  0.77077  0.24330  0.17451  1.0000
  H   H91       1.0  0.80203  0.26238  0.12977  1.0000
  H   H92       1.0  0.77927  0.27400  0.12738  1.0000
  C   C115      1.0  0.83189  0.31649  0.16570  1.0000
  H   H93       1.0  0.84804  0.33666  0.17047  1.0000
  H   H94       1.0  0.81650  0.31748  0.12766  1.0000
  H   H95       1.0  0.83905  0.30560  0.12707  1.0000
  C   C116      1.0  0.09256  0.61333  0.33708  1.0000
  C   C117      1.0  0.13100  0.52537  0.40947  1.0000
  C   C118      1.0  0.11029  0.53098  0.41019  1.0000
  C   C119      1.0  0.16609  0.50163  0.36056  1.0000
  C   C120      1.0  0.18811  0.49804  0.36113  1.0000
  C   C121      1.0  0.21322  0.51877  0.33609  1.0000
  C   C122      1.0  0.13951  0.69682  0.41912  1.0000
  C   C123      1.0  0.11860  0.67063  0.41876  1.0000
  C   C124      1.0  0.21502  0.76927  0.36525  1.0000
  C   C125      1.0  0.19312  0.74365  0.36745  1.0000
  C   C126      1.0  0.95980  0.59990  0.41043  1.0000
  C   C127      1.0  0.93930  0.60582  0.40967  1.0000
  C   C128      1.0  0.88328  0.63459  0.36055  1.0000
  C   C129      1.0  0.90498  0.63048  0.36018  1.0000
  C   C130      1.0  0.95127  0.46009  0.41918  1.0000
  C   C131      1.0  0.93016  0.43401  0.41952  1.0000
  C   C132      1.0  0.87612  0.38790  0.36767  1.0000
  C   C133      1.0  0.85390  0.36248  0.36533  1.0000
  H   H96       1.0  0.83604  0.35999  0.38425  1.0000
  H   H97       1.0  0.87373  0.40326  0.38738  1.0000
  H   H98       1.0  0.91969  0.42658  0.47735  1.0000
  H   H99       1.0  0.95544  0.47106  0.47632  1.0000
  H   H100      1.0  0.96999  0.60218  0.46860  1.0000
  H   H101      1.0  0.93497  0.61206  0.46769  1.0000
  H   H102      1.0  0.13530  0.59397  0.33646  1.0000
  H   H103      1.0  0.11461  0.65960  0.47590  1.0000
  H   H104      1.0  0.15003  0.70424  0.47696  1.0000
  H   H105      1.0  0.19589  0.72846  0.38686  1.0000
  H   H106      1.0  0.23305  0.77208  0.38402  1.0000
  H   H107      1.0  0.10022  0.52862  0.46847  1.0000
  H   H108      1.0  0.13559  0.51926  0.46760  1.0000
  H   H109      1.0  0.18573  0.48021  0.38034  1.0000
  H   H110      1.0  0.14817  0.48625  0.37911  1.0000
  H   H111      1.0  0.92306  0.64566  0.37845  1.0000
  H   H112      1.0  0.88605  0.65255  0.37942  1.0000
  C   C134      1.0  0.61514  0.63363  0.33960  1.0000
  C   C135      1.0  0.60156  0.64723  0.33761  1.0000
  C   C136      1.0  0.57461  0.62896  0.33793  1.0000
  N   N5        1.0  0.57293  0.60503  0.33879  1.0000
  C   C137      1.0  0.59685  0.60669  0.33951  1.0000
  C   C138      1.0  0.60330  0.58628  0.34056  1.0000
  C   C139      1.0  0.58448  0.55892  0.33976  1.0000
  N   N6        1.0  0.55791  0.54722  0.33877  1.0000
  C   C140      1.0  0.51882  0.50185  0.33708  1.0000
  C   C141      1.0  0.49844  0.50833  0.33791  1.0000
  N   N7        1.0  0.50013  0.53226  0.33871  1.0000
  C   C142      1.0  0.47620  0.53060  0.33939  1.0000
  C   C143      1.0  0.45792  0.50366  0.33948  1.0000
  C   C144      1.0  0.47149  0.49006  0.33757  1.0000
  C   C145      1.0  0.46975  0.55100  0.34038  1.0000
  C   C146      1.0  0.48857  0.57836  0.33964  1.0000
  N   N8        1.0  0.51514  0.59006  0.33871  1.0000
  C   C147      1.0  0.52685  0.61663  0.33787  1.0000
  C   C148      1.0  0.50640  0.62233  0.33876  1.0000
  C   C149      1.0  0.48289  0.59883  0.33894  1.0000
  C   C150      1.0  0.55422  0.63543  0.33699  1.0000
  C   C151      1.0  0.56155  0.66264  0.33500  1.0000
  C   C152      1.0  0.57230  0.71580  0.33420  1.0000
  C   C153      1.0  0.57651  0.70461  0.41214  1.0000
  C   C154      1.0  0.57093  0.67830  0.41287  1.0000
  C   C155      1.0  0.57611  0.74177  0.33520  1.0000
  C   C156      1.0  0.60026  0.76354  0.36318  1.0000
  C   C157      1.0  0.60385  0.78915  0.36375  1.0000
  C   C158      1.0  0.58311  0.79358  0.33873  1.0000
  C   C159      1.0  0.44255  0.54367  0.34223  1.0000
  C   C160      1.0  0.38923  0.53241  0.34320  1.0000
  C   C161      1.0  0.40503  0.54165  0.42112  1.0000
  C   C162      1.0  0.43121  0.54692  0.42098  1.0000
  C   C163      1.0  0.36311  0.52823  0.34239  1.0000
  C   C164      1.0  0.33261  0.54483  0.36627  1.0000
  C   C165      1.0  0.35822  0.54853  0.36876  1.0000
  C   C166      1.0  0.51146  0.47464  0.33529  1.0000
  C   C167      1.0  0.50199  0.45888  0.41310  1.0000
  C   C168      1.0  0.49608  0.43247  0.41234  1.0000
  C   C169      1.0  0.50007  0.42128  0.33445  1.0000
  C   C170      1.0  0.49577  0.39512  0.33530  1.0000
  C   C171      1.0  0.48773  0.34291  0.33848  1.0000
  C   C172      1.0  0.46731  0.34777  0.36319  1.0000
  C   C173      1.0  0.47141  0.37358  0.36282  1.0000
  C   C174      1.0  0.63050  0.59359  0.34262  1.0000
  C   C175      1.0  0.64186  0.59016  0.42146  1.0000
  C   C176      1.0  0.68361  0.60421  0.34354  1.0000
  C   C177      1.0  0.66794  0.59512  0.42156  1.0000
  C   C178      1.0  0.70954  0.60791  0.34258  1.0000
  C   C179      1.0  0.71402  0.58729  0.36917  1.0000
  C   C180      1.0  0.73943  0.59049  0.36648  1.0000
  H   H113      1.0  0.74193  0.57508  0.38519  1.0000
  H   H114      1.0  0.69867  0.56949  0.38892  1.0000
  H   H115      1.0  0.67539  0.59195  0.47931  1.0000
  H   H116      1.0  0.63092  0.58322  0.47862  1.0000
  H   H117      1.0  0.63519  0.64237  0.34031  1.0000
  H   H118      1.0  0.61032  0.66729  0.33666  1.0000
  H   H119      1.0  0.55656  0.58867  0.33894  1.0000
  H   H120      1.0  0.51649  0.54862  0.33886  1.0000
  H   H121      1.0  0.56512  0.49682  0.33912  1.0000
  H   H122      1.0  0.49973  0.46668  0.47129  1.0000
  H   H123      1.0  0.48984  0.42178  0.47036  1.0000
  H   H124      1.0  0.43786  0.49491  0.34029  1.0000
  H   H125      1.0  0.50792  0.64045  0.33908  1.0000
  H   H126      1.0  0.46477  0.59732  0.33873  1.0000
  H   H127      1.0  0.44221  0.55387  0.47816  1.0000
  H   H128      1.0  0.39756  0.54464  0.47886  1.0000
  H   H129      1.0  0.37340  0.56645  0.38826  1.0000
  H   H130      1.0  0.32979  0.56002  0.38480  1.0000
  H   H131      1.0  0.57327  0.67047  0.47116  1.0000
  H   H132      1.0  0.58264  0.71520  0.47024  1.0000
  H   H133      1.0  0.62167  0.80456  0.38295  1.0000
  H   H134      1.0  0.61564  0.76097  0.38174  1.0000
  H   H135      1.0  0.45624  0.37645  0.38111  1.0000
  H   H136      1.0  0.44935  0.33254  0.38207  1.0000
  C   C181      1.0  0.46825  0.08061  0.34146  1.0000
  C   C182      1.0  0.45466  0.05344  0.33929  1.0000
  C   C183      1.0  0.47293  0.04477  0.33960  1.0000
  N   N9        1.0  0.49686  0.06701  0.34063  1.0000
  C   C184      1.0  0.49519  0.08927  0.34146  1.0000
  C   C185      1.0  0.51560  0.11612  0.34260  1.0000
  C   C186      1.0  0.54296  0.12468  0.34169  1.0000
  N   N10       1.0  0.55466  0.10981  0.34060  1.0000
  C   C187      1.0  0.58123  0.12467  0.33957  1.0000
  C   C188      1.0  0.58693  0.15081  0.34047  1.0000
  C   C189      1.0  0.56343  0.15082  0.34086  1.0000
  C   C190      1.0  0.60004  0.11611  0.33860  1.0000
  C   C191      1.0  0.59357  0.08924  0.33966  1.0000
  N   N11       1.0  0.56964  0.06700  0.34064  1.0000
  C   C192      1.0  0.57131  0.04475  0.34141  1.0000
  C   C193      1.0  0.59825  0.05340  0.34146  1.0000
  C   C194      1.0  0.61184  0.08057  0.33932  1.0000
  C   C195      1.0  0.55091  0.01789  0.34245  1.0000
  C   C196      1.0  0.52355  0.00933  0.34158  1.0000
  N   N12       1.0  0.51185  0.02420  0.34055  1.0000
  C   C197      1.0  0.48527  0.00935  0.33954  1.0000
  C   C198      1.0  0.47958  0.98320  0.34040  1.0000
  C   C199      1.0  0.50309  0.98319  0.34078  1.0000
  C   C200      1.0  0.46647  0.01791  0.33850  1.0000
  C   C201      1.0  0.43927  0.99803  0.33608  1.0000
  C   C202      1.0  0.38611  0.95563  0.33432  1.0000
  C   C203      1.0  0.39719  0.97078  0.41251  1.0000
  C   C204      1.0  0.42351  0.99151  0.41370  1.0000
  C   C205      1.0  0.36014  0.93346  0.33481  1.0000
  C   C206      1.0  0.33833  0.93577  0.36246  1.0000
  C   C207      1.0  0.31271  0.91376  0.36243  1.0000
  C   C208      1.0  0.30831  0.88867  0.33722  1.0000
  C   C209      1.0  0.55825  0.99801  0.34442  1.0000
  C   C210      1.0  0.56951  0.95595  0.34562  1.0000
  C   C211      1.0  0.56025  0.96236  0.42346  1.0000
  C   C212      1.0  0.55497  0.98328  0.42321  1.0000
  C   C213      1.0  0.57369  0.93402  0.34492  1.0000
  C   C214      1.0  0.58137  0.88965  0.34143  1.0000
  C   C215      1.0  0.55708  0.88687  0.36888  1.0000
  C   C216      1.0  0.55339  0.90878  0.37137  1.0000
  C   C217      1.0  0.62725  0.13597  0.33636  1.0000
  C   C218      1.0  0.64311  0.14220  0.41392  1.0000
  C   C219      1.0  0.66952  0.16271  0.41268  1.0000
  C   C220      1.0  0.68060  0.17795  0.33453  1.0000
  C   C221      1.0  0.70676  0.19980  0.33485  1.0000
  C   C222      1.0  0.75898  0.24395  0.33692  1.0000
  C   C223      1.0  0.75415  0.21865  0.36187  1.0000
  C   C224      1.0  0.72834  0.19695  0.36205  1.0000
  C   C225      1.0  0.50829  0.13601  0.34477  1.0000
  C   C226      1.0  0.51173  0.15063  0.42364  1.0000
  C   C227      1.0  0.49767  0.17850  0.34590  1.0000
  C   C228      1.0  0.50677  0.17175  0.42386  1.0000
  C   C229      1.0  0.49398  0.20074  0.34504  1.0000
  C   C230      1.0  0.51459  0.22577  0.37168  1.0000
  C   C231      1.0  0.51140  0.24800  0.36904  1.0000
  C   C232      1.0  0.48731  0.24575  0.34120  1.0000
  H   H137      1.0  0.52683  0.26588  0.38775  1.0000
  H   H138      1.0  0.53240  0.22818  0.39136  1.0000
  H   H139      1.0  0.50996  0.18226  0.48163  1.0000
  H   H140      1.0  0.51868  0.14651  0.48077  1.0000
  H   H141      1.0  0.45951  0.09192  0.34223  1.0000
  H   H142      1.0  0.43460  0.04214  0.33825  1.0000
  H   H143      1.0  0.51322  0.06701  0.34079  1.0000
  H   H144      1.0  0.55328  0.06700  0.34077  1.0000
  H   H145      1.0  0.56192  0.16743  0.34070  1.0000
  H   H146      1.0  0.60505  0.16742  0.34065  1.0000
  H   H147      1.0  0.63541  0.13208  0.47227  1.0000
  H   H148      1.0  0.68030  0.16709  0.47051  1.0000
  H   H149      1.0  0.63189  0.09187  0.33821  1.0000
  H   H150      1.0  0.60700  0.04210  0.34215  1.0000
  H   H151      1.0  0.46146  0.96659  0.34061  1.0000
  H   H152      1.0  0.50460  0.96658  0.34061  1.0000
  H   H153      1.0  0.54803  0.98723  0.48036  1.0000
  H   H154      1.0  0.55725  0.95181  0.48124  1.0000
  H   H155      1.0  0.53545  0.90600  0.39076  1.0000
  H   H156      1.0  0.54188  0.86882  0.38741  1.0000
  H   H157      1.0  0.43125  0.00151  0.47214  1.0000
  H   H158      1.0  0.38651  0.96616  0.47042  1.0000
  H   H159      1.0  0.29728  0.91612  0.38136  1.0000
  H   H160      1.0  0.34087  0.95367  0.38107  1.0000
  H   H161      1.0  0.72549  0.17889  0.38051  1.0000
  H   H162      1.0  0.76941  0.21589  0.38053  1.0000
  C   C233      1.0  0.28508  0.51701  0.33765  1.0000
  C   C234      1.0  0.27221  0.51533  0.42042  1.0000
  C   C235      1.0  0.24849  0.51657  0.42029  1.0000
  C   C236      1.0  0.23596  0.51568  0.33714  1.0000
  C   C237      1.0  0.23637  0.51902  0.50572  1.0000
  H   H163      1.0  0.24819  0.52230  0.56560  1.0000
  H   H164      1.0  0.21755  0.50113  0.51678  1.0000
  H   H165      1.0  0.23308  0.53573  0.50136  1.0000
  C   C238      1.0  0.28310  0.51190  0.50740  1.0000
  H   H166      1.0  0.29865  0.50703  0.50033  1.0000
  H   H167      1.0  0.26756  0.49569  0.54544  1.0000
  H   H168      1.0  0.29108  0.52996  0.54654  1.0000
  C   C239      1.0  0.58489  0.86720  0.34027  1.0000
  C   C240      1.0  0.58656  0.85584  0.42304  1.0000
  C   C241      1.0  0.58530  0.83087  0.42291  1.0000
  C   C242      1.0  0.58620  0.81941  0.33975  1.0000
  C   C243      1.0  0.58286  0.81613  0.50833  1.0000
  H   H169      1.0  0.57958  0.82455  0.56821  1.0000
  H   H170      1.0  0.60075  0.81518  0.51941  1.0000
  H   H171      1.0  0.56614  0.79614  0.50396  1.0000
  C   C244      1.0  0.58999  0.86998  0.51002  1.0000
  H   H172      1.0  0.59486  0.89041  0.50296  1.0000
  H   H173      1.0  0.60620  0.87057  0.54806  1.0000
  H   H174      1.0  0.57192  0.85982  0.54916  1.0000
  C   C245      1.0  0.24590  0.82960  0.42019  1.0000
  C   C246      1.0  0.27087  0.85332  0.42060  1.0000
  C   C247      1.0  0.28546  0.86534  0.50634  1.0000
  H   H175      1.0  0.27694  0.85346  0.56602  1.0000
  H   H176      1.0  0.28639  0.88415  0.51749  1.0000
  H   H177      1.0  0.30546  0.86863  0.50235  1.0000
  C   C248      1.0  0.23161  0.81861  0.50687  1.0000
  H   H178      1.0  0.21119  0.80308  0.49938  1.0000
  H   H179      1.0  0.23095  0.83412  0.54495  1.0000
  H   H180      1.0  0.24170  0.81059  0.54616  1.0000
  C   C249      1.0  0.78696  0.61759  0.33734  1.0000
  C   C250      1.0  0.79990  0.61900  0.42007  1.0000
  C   C251      1.0  0.82330  0.61718  0.41996  1.0000
  C   C252      1.0  0.83553  0.61778  0.33679  1.0000
  C   C253      1.0  0.83539  0.61442  0.50543  1.0000
  H   H181      1.0  0.82375  0.61137  0.56535  1.0000
  H   H182      1.0  0.85442  0.63209  0.51625  1.0000
  H   H183      1.0  0.83826  0.59745  0.50132  1.0000
  C   C254      1.0  0.78940  0.62273  0.50700  1.0000
  H   H184      1.0  0.77415  0.62803  0.49984  1.0000
  H   H185      1.0  0.80522  0.63877  0.54476  1.0000
  H   H186      1.0  0.78116  0.60465  0.54643  1.0000
  C   C255      1.0  0.48432  0.26851  0.33996  1.0000
  C   C256      1.0  0.48291  0.27987  0.42270  1.0000
  C   C257      1.0  0.48473  0.30509  0.42260  1.0000
  C   C258      1.0  0.48412  0.31687  0.33944  1.0000
  C   C259      1.0  0.48749  0.31976  0.50808  1.0000
  H   H187      1.0  0.49054  0.31106  0.56799  1.0000
  H   H188      1.0  0.46982  0.32110  0.51890  1.0000
  H   H189      1.0  0.50446  0.33961  0.50396  1.0000
  C   C260      1.0  0.47918  0.26546  0.50962  1.0000
  H   H190      1.0  0.47389  0.24492  0.50246  1.0000
  H   H191      1.0  0.46315  0.26516  0.54740  1.0000
  H   H192      1.0  0.49727  0.27523  0.54905  1.0000
  C   C261      1.0  0.82216  0.30209  0.41982  1.0000
  C   C262      1.0  0.79694  0.27869  0.42024  1.0000
  C   C263      1.0  0.78240  0.26671  0.50601  1.0000
  H   H193      1.0  0.79120  0.27842  0.56572  1.0000
  H   H194      1.0  0.78107  0.24769  0.51699  1.0000
  H   H195      1.0  0.76255  0.26384  0.50221  1.0000
  C   C264      1.0  0.83671  0.31270  0.50646  1.0000
  H   H196      1.0  0.85724  0.32794  0.49890  1.0000
  H   H197      1.0  0.83706  0.29693  0.54435  1.0000
  H   H198      1.0  0.82701  0.32099  0.54597  1.0000
