data_image0
_chemical_formula_structural       C2NOCHC2NOCHC4H2C4H2C4H2C4H2C2NOCHC2NOCHC2NOCHC2NOCHC4H2C4H2C4H2C4H2C2NOCHC2NOCHC2NOCHC2NOCHC6H3C6H3C6H3C6H3C6H3C6H3C6H3C6H3C6H3C6H3C6H3C6H3C4H2C4H2C2NOCHC2NOCHC2NOCHC2NOCHC4H2C4H2C4H2C4H2C2NOCHC2NOCHC2NOCHC2NOCHC4H2C4H2C4H2C4H2
_chemical_formula_sum              "C198 N18 O18 H90"
_cell_length_a       34.4022
_cell_length_b       34.2446
_cell_length_c       14.8304
_cell_angle_alpha    90
_cell_angle_beta     90
_cell_angle_gamma    90.2673

_space_group_name_H-M_alt    "P 1"
_space_group_IT_number       1

loop_
  _space_group_symop_operation_xyz
  'x, y, z'

loop_
  _atom_site_type_symbol
  _atom_site_label
  _atom_site_symmetry_multiplicity
  _atom_site_fract_x
  _atom_site_fract_y
  _atom_site_fract_z
  _atom_site_occupancy
  C   C1        1.0  0.98951  0.51955  0.26542  1.0000
  C   C2        1.0  0.01833  0.49099  0.26586  1.0000
  N   N1        1.0  0.02694  0.48327  0.18021  1.0000
  O   O1        1.0  0.97969  0.53015  0.17993  1.0000
  C   C3        1.0  0.00391  0.50661  0.13111  1.0000
  H   H1        1.0  0.00438  0.50675  0.06227  1.0000
  C   C4        1.0  0.48860  0.98788  0.26528  1.0000
  C   C5        1.0  0.51749  0.01662  0.26580  1.0000
  N   N2        1.0  0.52555  0.02501  0.18014  1.0000
  O   O2        1.0  0.47815  0.97784  0.17977  1.0000
  C   C6        1.0  0.50211  0.00189  0.13100  1.0000
  H   H2        1.0  0.50214  0.00222  0.06214  1.0000
  C   C7        1.0  0.05291  0.25421  0.34319  1.0000
  C   C8        1.0  0.06973  0.33630  0.34319  1.0000
  C   C9        1.0  0.06518  0.31556  0.26128  1.0000
  C   C10       1.0  0.05677  0.27510  0.26125  1.0000
  H   H3        1.0  0.05384  0.26091  0.20086  1.0000
  H   H4        1.0  0.06832  0.32972  0.20091  1.0000
  C   C11       1.0  0.95373  0.75456  0.34273  1.0000
  C   C12       1.0  0.93631  0.67256  0.34282  1.0000
  C   C13       1.0  0.93980  0.69352  0.26092  1.0000
  C   C14       1.0  0.94845  0.73394  0.26084  1.0000
  H   H5        1.0  0.95063  0.74827  0.20047  1.0000
  H   H6        1.0  0.93577  0.67954  0.20062  1.0000
  C   C15       1.0  0.75301  0.05315  0.34272  1.0000
  C   C16       1.0  0.67136  0.06989  0.34270  1.0000
  C   C17       1.0  0.69222  0.06641  0.26083  1.0000
  C   C18       1.0  0.73246  0.05809  0.26081  1.0000
  H   H7        1.0  0.74672  0.05596  0.20045  1.0000
  H   H8        1.0  0.67831  0.07025  0.20049  1.0000
  C   C19       1.0  0.25394  0.95491  0.34269  1.0000
  C   C20       1.0  0.33510  0.93583  0.34281  1.0000
  C   C21       1.0  0.31479  0.94169  0.26093  1.0000
  C   C22       1.0  0.27479  0.95109  0.26085  1.0000
  H   H9        1.0  0.26089  0.95477  0.20044  1.0000
  H   H10       1.0  0.32892  0.93877  0.20058  1.0000
  C   C23       1.0  0.44782  0.77295  0.26514  1.0000
  C   C24       1.0  0.43884  0.81264  0.26578  1.0000
  N   N3        1.0  0.43505  0.82373  0.18021  1.0000
  O   O3        1.0  0.44976  0.75858  0.17964  1.0000
  C   C25       1.0  0.44166  0.79153  0.13098  1.0000
  H   H11       1.0  0.44056  0.79158  0.06217  1.0000
  C   C26       1.0  0.55734  0.23164  0.26479  1.0000
  C   C27       1.0  0.56590  0.19187  0.26531  1.0000
  N   N4        1.0  0.56844  0.18052  0.17967  1.0000
  O   O4        1.0  0.55435  0.24581  0.17927  1.0000
  C   C28       1.0  0.56148  0.21266  0.13051  1.0000
  H   H12       1.0  0.56165  0.21243  0.06165  1.0000
  C   C29       1.0  0.77451  0.55848  0.26519  1.0000
  C   C30       1.0  0.81420  0.56700  0.26581  1.0000
  N   N5        1.0  0.82539  0.57035  0.18022  1.0000
  O   O5        1.0  0.76026  0.55628  0.17965  1.0000
  C   C31       1.0  0.79326  0.56385  0.13098  1.0000
  H   H13       1.0  0.79339  0.56469  0.06215  1.0000
  C   C32       1.0  0.23241  0.44881  0.26515  1.0000
  C   C33       1.0  0.19253  0.44125  0.26568  1.0000
  N   N6        1.0  0.18113  0.43912  0.18002  1.0000
  O   O6        1.0  0.24657  0.45168  0.17965  1.0000
  C   C34       1.0  0.21334  0.44538  0.13087  1.0000
  H   H14       1.0  0.21308  0.44534  0.06202  1.0000
  C   C35       1.0  0.09792  0.11765  0.34324  1.0000
  C   C36       1.0  0.14547  0.04906  0.34279  1.0000
  C   C37       1.0  0.13383  0.06686  0.26104  1.0000
  C   C38       1.0  0.11040  0.10065  0.26121  1.0000
  H   H15       1.0  0.10037  0.11121  0.20100  1.0000
  H   H16       1.0  0.14007  0.05380  0.20067  1.0000
  C   C39       1.0  0.90931  0.89128  0.34463  1.0000
  C   C40       1.0  0.86202  0.95999  0.34471  1.0000
  C   C41       1.0  0.87253  0.94154  0.26287  1.0000
  C   C42       1.0  0.89593  0.90772  0.26279  1.0000
  H   H17       1.0  0.90515  0.89669  0.20234  1.0000
  H   H18       1.0  0.86561  0.95420  0.20246  1.0000
  C   C43       1.0  0.88914  0.09939  0.34316  1.0000
  C   C44       1.0  0.95910  0.14509  0.34318  1.0000
  C   C45       1.0  0.94126  0.13371  0.26124  1.0000
  C   C46       1.0  0.90680  0.11109  0.26120  1.0000
  H   H19       1.0  0.89626  0.10093  0.20101  1.0000
  H   H20       1.0  0.95466  0.13948  0.20103  1.0000
  C   C47       1.0  0.11762  0.90977  0.34322  1.0000
  C   C48       1.0  0.04795  0.86348  0.34361  1.0000
  C   C49       1.0  0.06564  0.87503  0.26159  1.0000
  C   C50       1.0  0.09988  0.89799  0.26139  1.0000
  H   H21       1.0  0.11032  0.90814  0.20109  1.0000
  H   H22       1.0  0.05218  0.86926  0.20145  1.0000
  C   C51       1.0  0.39675  0.59779  0.26482  1.0000
  C   C52       1.0  0.37441  0.56372  0.26570  1.0000
  N   N7        1.0  0.37078  0.55198  0.18050  1.0000
  O   O7        1.0  0.40771  0.60769  0.17952  1.0000
  C   C53       1.0  0.38962  0.57887  0.13098  1.0000
  H   H23       1.0  0.39277  0.57631  0.06278  1.0000
  C   C54       1.0  0.61004  0.40734  0.26413  1.0000
  C   C55       1.0  0.63239  0.44141  0.26472  1.0000
  N   N8        1.0  0.63558  0.45331  0.17956  1.0000
  O   O8        1.0  0.59859  0.39762  0.17908  1.0000
  C   C56       1.0  0.61613  0.42674  0.13042  1.0000
  H   H24       1.0  0.61322  0.42901  0.06210  1.0000
  C   C57       1.0  0.59944  0.60963  0.26401  1.0000
  C   C58       1.0  0.56541  0.63158  0.26471  1.0000
  N   N9        1.0  0.55315  0.63405  0.17975  1.0000
  O   O9        1.0  0.60877  0.59773  0.17909  1.0000
  C   C59       1.0  0.57968  0.61493  0.13047  1.0000
  H   H25       1.0  0.57670  0.61092  0.06259  1.0000
  C   C60       1.0  0.40699  0.39436  0.26516  1.0000
  C   C61       1.0  0.44121  0.37270  0.26562  1.0000
  N   N10       1.0  0.45276  0.36931  0.18030  1.0000
  O   O10       1.0  0.39689  0.40529  0.18002  1.0000
  C   C62       1.0  0.42587  0.38801  0.13121  1.0000
  H   H26       1.0  0.42785  0.39065  0.06278  1.0000
  C   C63       1.0  0.08026  0.37636  0.34398  1.0000
  C   C64       1.0  0.11994  0.38718  0.34461  1.0000
  C   C65       1.0  0.13127  0.42689  0.34562  1.0000
  C   C66       1.0  0.10224  0.45602  0.34607  1.0000
  C   C67       1.0  0.06231  0.44585  0.34566  1.0000
  C   C68       1.0  0.05166  0.40588  0.34458  1.0000
  H   H27       1.0  0.11026  0.48487  0.34692  1.0000
  H   H28       1.0  0.02283  0.39820  0.34432  1.0000
  H   H29       1.0  0.14081  0.36590  0.34435  1.0000
  C   C69       1.0  0.92600  0.63243  0.34380  1.0000
  C   C70       1.0  0.88640  0.62125  0.34431  1.0000
  C   C71       1.0  0.87541  0.58144  0.34599  1.0000
  C   C72       1.0  0.90471  0.55258  0.34705  1.0000
  C   C73       1.0  0.94455  0.56309  0.34626  1.0000
  C   C74       1.0  0.95485  0.60314  0.34467  1.0000
  H   H30       1.0  0.89695  0.52365  0.34808  1.0000
  H   H31       1.0  0.98361  0.61106  0.34423  1.0000
  H   H32       1.0  0.86534  0.64233  0.34375  1.0000
  C   C75       1.0  0.63145  0.08007  0.34360  1.0000
  C   C76       1.0  0.62054  0.11980  0.34400  1.0000
  C   C77       1.0  0.58097  0.13068  0.34534  1.0000
  C   C78       1.0  0.55208  0.10116  0.34614  1.0000
  C   C79       1.0  0.56233  0.06119  0.34574  1.0000
  C   C80       1.0  0.60214  0.05098  0.34454  1.0000
  H   H33       1.0  0.52332  0.10885  0.34709  1.0000
  H   H34       1.0  0.60985  0.02211  0.34431  1.0000
  H   H35       1.0  0.64163  0.14105  0.34353  1.0000
  C   C81       1.0  0.37489  0.92513  0.34367  1.0000
  C   C82       1.0  0.38549  0.88530  0.34445  1.0000
  C   C83       1.0  0.42498  0.87410  0.34601  1.0000
  C   C84       1.0  0.45409  0.90339  0.34696  1.0000
  C   C85       1.0  0.44416  0.94343  0.34604  1.0000
  C   C86       1.0  0.40446  0.95397  0.34427  1.0000
  H   H36       1.0  0.48279  0.89549  0.34804  1.0000
  H   H37       1.0  0.39699  0.98291  0.34375  1.0000
  H   H38       1.0  0.36422  0.86422  0.34399  1.0000
  C   C87       1.0  0.06781  0.14572  0.34388  1.0000
  C   C88       1.0  0.02880  0.13273  0.34397  1.0000
  C   C89       1.0  0.99772  0.15954  0.34391  1.0000
  C   C90       1.0  0.00601  0.19997  0.34377  1.0000
  C   C91       1.0  0.04491  0.21360  0.34374  1.0000
  C   C92       1.0  0.07565  0.18626  0.34382  1.0000
  H   H39       1.0  0.98359  0.21956  0.34354  1.0000
  H   H40       1.0  0.10390  0.19589  0.34361  1.0000
  H   H41       1.0  0.02292  0.10333  0.34383  1.0000
  C   C93       1.0  0.93929  0.86309  0.34436  1.0000
  C   C94       1.0  0.97833  0.87596  0.34478  1.0000
  C   C95       1.0  0.00932  0.84906  0.34433  1.0000
  C   C96       1.0  0.00090  0.80864  0.34373  1.0000
  C   C97       1.0  0.96195  0.79514  0.34333  1.0000
  C   C98       1.0  0.93130  0.82259  0.34351  1.0000
  H   H42       1.0  0.02326  0.78898  0.34336  1.0000
  H   H43       1.0  0.90302  0.81306  0.34328  1.0000
  H   H44       1.0  0.98430  0.90534  0.34511  1.0000
  C   C99       1.0  0.86101  0.06908  0.34379  1.0000
  C   C100      1.0  0.87395  0.03002  0.34447  1.0000
  C   C101      1.0  0.84733  0.99854  0.34446  1.0000
  C   C102      1.0  0.80706  0.00647  0.34386  1.0000
  C   C103      1.0  0.79345  0.04542  0.34334  1.0000
  C   C104      1.0  0.82066  0.07658  0.34326  1.0000
  H   H45       1.0  0.78759  0.98374  0.34385  1.0000
  H   H46       1.0  0.81109  0.10486  0.34276  1.0000
  H   H47       1.0  0.90323  0.02442  0.34472  1.0000
  C   C105      1.0  0.14585  0.93996  0.34356  1.0000
  C   C106      1.0  0.13317  0.97909  0.34344  1.0000
  C   C107      1.0  0.16000  0.01041  0.34316  1.0000
  C   C108      1.0  0.20023  0.00219  0.34284  1.0000
  C   C109      1.0  0.21358  0.96313  0.34313  1.0000
  C   C110      1.0  0.18614  0.93218  0.34361  1.0000
  H   H48       1.0  0.21986  0.02478  0.34253  1.0000
  H   H49       1.0  0.19550  0.90382  0.34365  1.0000
  H   H50       1.0  0.10392  0.98487  0.34344  1.0000
  C   C111      1.0  0.43921  0.64366  0.34527  1.0000
  C   C112      1.0  0.47826  0.63117  0.34509  1.0000
  C   C113      1.0  0.50925  0.65835  0.34533  1.0000
  C   C114      1.0  0.50079  0.69869  0.34588  1.0000
  C   C115      1.0  0.46183  0.71184  0.34581  1.0000
  C   C116      1.0  0.43121  0.68409  0.34543  1.0000
  H   H51       1.0  0.52314  0.71857  0.34618  1.0000
  H   H52       1.0  0.40292  0.69332  0.34570  1.0000
  H   H53       1.0  0.48421  0.60183  0.34506  1.0000
  C   C117      1.0  0.56807  0.36125  0.34541  1.0000
  C   C118      1.0  0.52904  0.37384  0.34543  1.0000
  C   C119      1.0  0.49798  0.34674  0.34565  1.0000
  C   C120      1.0  0.50632  0.30638  0.34571  1.0000
  C   C121      1.0  0.54524  0.29313  0.34568  1.0000
  C   C122      1.0  0.57595  0.32080  0.34555  1.0000
  H   H54       1.0  0.48392  0.28656  0.34599  1.0000
  H   H55       1.0  0.60421  0.31147  0.34562  1.0000
  H   H56       1.0  0.52315  0.40318  0.34547  1.0000
  C   C123      1.0  0.64560  0.56827  0.34517  1.0000
  C   C124      1.0  0.63281  0.52904  0.34488  1.0000
  C   C125      1.0  0.65955  0.49789  0.34524  1.0000
  C   C126      1.0  0.69979  0.50634  0.34581  1.0000
  C   C127      1.0  0.71328  0.54548  0.34591  1.0000
  C   C128      1.0  0.68594  0.57627  0.34564  1.0000
  H   H57       1.0  0.71935  0.48387  0.34610  1.0000
  H   H58       1.0  0.69542  0.60468  0.34587  1.0000
  H   H59       1.0  0.60355  0.52305  0.34467  1.0000
  C   C129      1.0  0.36150  0.43654  0.34631  1.0000
  C   C130      1.0  0.37451  0.47569  0.34626  1.0000
  C   C131      1.0  0.34794  0.50697  0.34611  1.0000
  C   C132      1.0  0.30767  0.49877  0.34593  1.0000
  C   C133      1.0  0.29396  0.45973  0.34605  1.0000
  C   C134      1.0  0.32111  0.42876  0.34620  1.0000
  H   H60       1.0  0.28825  0.52137  0.34600  1.0000
  H   H61       1.0  0.31145  0.40041  0.34635  1.0000
  H   H62       1.0  0.40380  0.48153  0.34644  1.0000
  C   C135      1.0  0.97380  0.53395  0.34677  1.0000
  C   C136      1.0  0.03327  0.47522  0.34657  1.0000
  C   C137      1.0  0.01764  0.48953  0.42842  1.0000
  C   C138      1.0  0.98838  0.51845  0.42855  1.0000
  H   H63       1.0  0.97777  0.52814  0.48898  1.0000
  H   H64       1.0  0.02745  0.47892  0.48875  1.0000
  C   C139      1.0  0.47361  0.97261  0.34664  1.0000
  C   C140      1.0  0.53309  0.03180  0.34658  1.0000
  C   C141      1.0  0.51819  0.01660  0.42844  1.0000
  C   C142      1.0  0.48892  0.98743  0.42850  1.0000
  H   H65       1.0  0.47878  0.97712  0.48891  1.0000
  H   H66       1.0  0.52855  0.02672  0.48882  1.0000
  C   C143      1.0  0.05748  0.27506  0.42461  1.0000
  C   C144      1.0  0.06579  0.31495  0.42405  1.0000
  N   N11       1.0  0.06912  0.32618  0.50966  1.0000
  O   O11       1.0  0.05536  0.26069  0.51010  1.0000
  C   C145      1.0  0.06276  0.29386  0.55884  1.0000
  H   H67       1.0  0.06366  0.29395  0.62767  1.0000
  C   C146      1.0  0.95016  0.73350  0.42414  1.0000
  C   C147      1.0  0.94155  0.69367  0.42364  1.0000
  N   N12       1.0  0.93935  0.68225  0.50931  1.0000
  O   O12       1.0  0.95354  0.74764  0.50964  1.0000
  C   C148      1.0  0.94655  0.71440  0.55844  1.0000
  H   H68       1.0  0.94666  0.71413  0.62729  1.0000
  C   C149      1.0  0.73204  0.05668  0.42410  1.0000
  C   C150      1.0  0.69238  0.06495  0.42354  1.0000
  N   N13       1.0  0.68103  0.06730  0.50917  1.0000
  O   O13       1.0  0.74612  0.05367  0.50964  1.0000
  C   C151      1.0  0.71303  0.06044  0.55837  1.0000
  H   H69       1.0  0.71279  0.06064  0.62723  1.0000
  C   C152      1.0  0.27437  0.94906  0.42408  1.0000
  C   C153      1.0  0.31380  0.93975  0.42358  1.0000
  N   N14       1.0  0.32472  0.93569  0.50917  1.0000
  O   O14       1.0  0.25999  0.95095  0.50951  1.0000
  C   C154      1.0  0.29268  0.94250  0.55828  1.0000
  H   H70       1.0  0.29264  0.94128  0.62708  1.0000
  C   C155      1.0  0.45347  0.75233  0.34645  1.0000
  C   C156      1.0  0.43508  0.83398  0.34665  1.0000
  C   C157      1.0  0.44074  0.81348  0.42845  1.0000
  C   C158      1.0  0.44981  0.77323  0.42839  1.0000
  H   H71       1.0  0.45347  0.75921  0.48873  1.0000
  H   H72       1.0  0.43801  0.82767  0.48886  1.0000
  C   C159      1.0  0.55337  0.25260  0.34620  1.0000
  C   C160      1.0  0.57071  0.17073  0.34616  1.0000
  C   C161      1.0  0.56677  0.19157  0.42806  1.0000
  C   C162      1.0  0.55818  0.23192  0.42811  1.0000
  H   H73       1.0  0.55570  0.24617  0.48850  1.0000
  H   H74       1.0  0.57047  0.17757  0.48841  1.0000
  C   C163      1.0  0.75372  0.55370  0.34653  1.0000
  C   C164      1.0  0.83545  0.57099  0.34667  1.0000
  C   C165      1.0  0.81477  0.56625  0.42851  1.0000
  C   C166      1.0  0.77451  0.55765  0.42846  1.0000
  H   H75       1.0  0.76041  0.55458  0.48884  1.0000
  H   H76       1.0  0.82885  0.56937  0.48892  1.0000
  C   C167      1.0  0.25346  0.45194  0.34654  1.0000
  C   C168      1.0  0.17134  0.43682  0.34650  1.0000
  C   C169      1.0  0.19230  0.43985  0.42837  1.0000
  C   C170      1.0  0.23274  0.44745  0.42843  1.0000
  H   H77       1.0  0.24703  0.44945  0.48882  1.0000
  H   H78       1.0  0.17828  0.43623  0.48871  1.0000
  C   C171      1.0  0.11016  0.10019  0.42459  1.0000
  C   C172      1.0  0.13289  0.06658  0.42374  1.0000
  N   N15       1.0  0.13605  0.05456  0.50880  1.0000
  O   O15       1.0  0.09856  0.10953  0.50970  1.0000
  C   C173      1.0  0.11661  0.08086  0.55823  1.0000
  H   H79       1.0  0.11305  0.07796  0.62626  1.0000
  C   C174      1.0  0.89819  0.90937  0.42608  1.0000
  C   C175      1.0  0.87565  0.94309  0.42542  1.0000
  N   N16       1.0  0.87325  0.95555  0.51028  1.0000
  O   O16       1.0  0.91054  0.90041  0.51084  1.0000
  C   C176      1.0  0.89335  0.92963  0.55933  1.0000
  H   H80       1.0  0.89689  0.93241  0.62740  1.0000
  C   C177      1.0  0.90659  0.11156  0.42466  1.0000
  C   C178      1.0  0.94086  0.13344  0.42407  1.0000
  N   N17       1.0  0.95256  0.13676  0.50933  1.0000
  O   O17       1.0  0.89659  0.10047  0.50983  1.0000
  C   C179      1.0  0.92547  0.11819  0.55861  1.0000
  H   H81       1.0  0.92798  0.11480  0.62677  1.0000
  C   C180      1.0  0.10027  0.89753  0.42476  1.0000
  C   C181      1.0  0.06608  0.87550  0.42434  1.0000
  N   N18       1.0  0.05457  0.87198  0.50968  1.0000
  O   O18       1.0  0.11040  0.90853  0.50989  1.0000
  C   C182      1.0  0.08145  0.89095  0.55873  1.0000
  H   H82       1.0  0.07951  0.89355  0.62718  1.0000
  C   C183      1.0  0.40926  0.61520  0.34614  1.0000
  C   C184      1.0  0.36258  0.54566  0.34672  1.0000
  C   C185      1.0  0.37445  0.56338  0.42849  1.0000
  C   C186      1.0  0.39750  0.59764  0.42823  1.0000
  H   H83       1.0  0.40777  0.60817  0.48834  1.0000
  H   H84       1.0  0.36863  0.55002  0.48879  1.0000
  C   C187      1.0  0.59811  0.38966  0.34561  1.0000
  C   C188      1.0  0.64503  0.45912  0.34550  1.0000
  C   C189      1.0  0.63379  0.44110  0.42743  1.0000
  C   C190      1.0  0.61054  0.40695  0.42749  1.0000
  H   H85       1.0  0.60072  0.39625  0.48783  1.0000
  H   H86       1.0  0.64000  0.45429  0.48772  1.0000
  C   C191      1.0  0.61741  0.59828  0.34542  1.0000
  C   C192      1.0  0.54788  0.64419  0.34558  1.0000
  C   C193      1.0  0.56615  0.63347  0.42737  1.0000
  C   C194      1.0  0.60038  0.61080  0.42734  1.0000
  H   H87       1.0  0.61125  0.60125  0.48766  1.0000
  H   H88       1.0  0.55319  0.63979  0.48776  1.0000
  C   C195      1.0  0.38959  0.40643  0.34667  1.0000
  C   C196      1.0  0.45936  0.36090  0.34636  1.0000
  C   C197      1.0  0.44163  0.37226  0.42835  1.0000
  C   C198      1.0  0.40736  0.39486  0.42851  1.0000
  H   H89       1.0  0.39693  0.40494  0.48879  1.0000
  H   H90       1.0  0.45510  0.36664  0.48851  1.0000
