data_image0
_chemical_formula_structural       C3NC3NC5NC5NC20H18C4H4C3NC3NC5NC5NC20H18C4H4C3NC3NC5NC5NC20H18C4H4NC3O2HN2C3O2HN2C3O2HN2C3O2HN2C3O2HN2C3O2HNC8H8C8H8C8H8CNC2O2HNCNC2O2HNCNC2O2HNCNC2O2HNCNC2O2HNCNC2O2HN
_chemical_formula_sum              "C180 N36 H102 O24"
_cell_length_a       50.4987
_cell_length_b       50.4988
_cell_length_c       14.7678
_cell_angle_alpha    90.016
_cell_angle_beta     89.984
_cell_angle_gamma    120

_space_group_name_H-M_alt    "P 1"
_space_group_IT_number       1

loop_
  _space_group_symop_operation_xyz
  'x, y, z'

loop_
  _atom_site_type_symbol
  _atom_site_label
  _atom_site_symmetry_multiplicity
  _atom_site_fract_x
  _atom_site_fract_y
  _atom_site_fract_z
  _atom_site_occupancy
  C   C1        1.0  0.02340  0.63967  0.33882  1.0000
  C   C2        1.0  0.05503  0.65574  0.33960  1.0000
  C   C3        1.0  0.06544  0.63479  0.33720  1.0000
  N   N1        1.0  0.03970  0.60686  0.33630  1.0000
  C   C4        1.0  0.01363  0.60846  0.33643  1.0000
  C   C5        1.0  0.98251  0.58454  0.33341  1.0000
  C   C6        1.0  0.97290  0.55281  0.33291  1.0000
  N   N2        1.0  0.99025  0.53934  0.33888  1.0000
  C   C7        1.0  0.97321  0.50846  0.33492  1.0000
  C   C8        1.0  0.94293  0.50173  0.32593  1.0000
  C   C9        1.0  0.94272  0.52892  0.32506  1.0000
  C   C10       1.0  0.98325  0.48667  0.33775  1.0000
  C   C11       1.0  0.01459  0.49455  0.34038  1.0000
  N   N3        1.0  0.04033  0.52248  0.33838  1.0000
  C   C12       1.0  0.06639  0.52088  0.33902  1.0000
  C   C13       1.0  0.05663  0.48969  0.34333  1.0000
  C   C14       1.0  0.02501  0.47362  0.34453  1.0000
  C   C15       1.0  0.09751  0.54476  0.33494  1.0000
  C   C16       1.0  0.10713  0.57649  0.33331  1.0000
  N   N4        1.0  0.08978  0.58998  0.33840  1.0000
  C   C17       1.0  0.10682  0.62085  0.33351  1.0000
  C   C18       1.0  0.13711  0.62754  0.32494  1.0000
  C   C19       1.0  0.13731  0.60033  0.32502  1.0000
  C   C20       1.0  0.09678  0.64264  0.33494  1.0000
  C   C21       1.0  0.11990  0.67431  0.32951  1.0000
  C   C22       1.0  0.17038  0.73550  0.31143  1.0000
  C   C23       1.0  0.15047  0.72031  0.23786  1.0000
  C   C24       1.0  0.12584  0.69018  0.24643  1.0000
  C   C25       1.0  0.12090  0.53673  0.32714  1.0000
  C   C26       1.0  0.17348  0.52954  0.30563  1.0000
  C   C27       1.0  0.15548  0.52834  0.23032  1.0000
  C   C28       1.0  0.12973  0.53195  0.24071  1.0000
  C   C29       1.0  0.96016  0.45497  0.33327  1.0000
  C   C30       1.0  0.95459  0.43864  0.25117  1.0000
  C   C31       1.0  0.93006  0.40844  0.24333  1.0000
  C   C32       1.0  0.90989  0.39362  0.31668  1.0000
  C   C33       1.0  0.95904  0.59247  0.32558  1.0000
  C   C34       1.0  0.94987  0.59680  0.23913  1.0000
  C   C35       1.0  0.90575  0.59847  0.30440  1.0000
  C   C36       1.0  0.92377  0.59983  0.22892  1.0000
  H   H1        1.0  0.91751  0.60209  0.16470  1.0000
  H   H2        1.0  0.96143  0.59654  0.18248  1.0000
  H   H3        1.0  0.00997  0.64952  0.33956  1.0000
  H   H4        1.0  0.06804  0.67905  0.34094  1.0000
  H   H5        1.0  0.03987  0.58795  0.33270  1.0000
  H   H6        1.0  0.04015  0.54134  0.33261  1.0000
  H   H7        1.0  0.92348  0.53058  0.31774  1.0000
  H   H8        1.0  0.92385  0.48068  0.31923  1.0000
  H   H9        1.0  0.96802  0.44890  0.19569  1.0000
  H   H10       1.0  0.92663  0.39758  0.18226  1.0000
  H   H11       1.0  0.01201  0.45032  0.34710  1.0000
  H   H12       1.0  0.07006  0.47984  0.34492  1.0000
  H   H13       1.0  0.15619  0.64856  0.31755  1.0000
  H   H14       1.0  0.15654  0.59864  0.31810  1.0000
  H   H15       1.0  0.11810  0.53214  0.18417  1.0000
  H   H16       1.0  0.16142  0.52562  0.16612  1.0000
  H   H17       1.0  0.11260  0.67964  0.19085  1.0000
  H   H18       1.0  0.15418  0.73083  0.17613  1.0000
  C   C37       1.0  0.19978  0.52740  0.29152  1.0000
  C   C38       1.0  0.88555  0.36384  0.30583  1.0000
  C   C39       1.0  0.87892  0.59965  0.29050  1.0000
  C   C40       1.0  0.19483  0.76519  0.29995  1.0000
  H   H19       1.0  0.20449  0.52393  0.22861  1.0000
  H   H20       1.0  0.88771  0.35051  0.26028  1.0000
  H   H21       1.0  0.87301  0.60107  0.22713  1.0000
  H   H22       1.0  0.19294  0.77829  0.25304  1.0000
  C   C41       1.0  0.46427  0.47157  0.33936  1.0000
  C   C42       1.0  0.44820  0.48713  0.34013  1.0000
  C   C43       1.0  0.46915  0.51848  0.33731  1.0000
  N   N5        1.0  0.49709  0.52067  0.33643  1.0000
  C   C44       1.0  0.49548  0.49300  0.33666  1.0000
  C   C45       1.0  0.51939  0.48579  0.33337  1.0000
  C   C46       1.0  0.55112  0.50791  0.33276  1.0000
  N   N6        1.0  0.56459  0.53872  0.33876  1.0000
  C   C47       1.0  0.59548  0.55256  0.33473  1.0000
  C   C48       1.0  0.60220  0.52900  0.32569  1.0000
  C   C49       1.0  0.57499  0.50160  0.32475  1.0000
  C   C50       1.0  0.61727  0.58438  0.33755  1.0000
  C   C51       1.0  0.60940  0.60786  0.34022  1.0000
  N   N7        1.0  0.58148  0.60567  0.33827  1.0000
  C   C52       1.0  0.58308  0.63334  0.33894  1.0000
  C   C53       1.0  0.61428  0.65476  0.34310  1.0000
  C   C54       1.0  0.63034  0.63920  0.34433  1.0000
  C   C55       1.0  0.55920  0.64057  0.33498  1.0000
  C   C56       1.0  0.52747  0.61846  0.33312  1.0000
  N   N8        1.0  0.51398  0.58763  0.33817  1.0000
  C   C57       1.0  0.48311  0.57381  0.33314  1.0000
  C   C58       1.0  0.47643  0.59741  0.32450  1.0000
  C   C59       1.0  0.50364  0.62481  0.32473  1.0000
  C   C60       1.0  0.46131  0.54198  0.33472  1.0000
  C   C61       1.0  0.42964  0.53342  0.32930  1.0000
  C   C62       1.0  0.36845  0.52269  0.31136  1.0000
  C   C63       1.0  0.38361  0.51793  0.23777  1.0000
  C   C64       1.0  0.41374  0.52342  0.24631  1.0000
  C   C65       1.0  0.56723  0.67199  0.32712  1.0000
  C   C66       1.0  0.57444  0.73176  0.30554  1.0000
  C   C67       1.0  0.57563  0.71494  0.23025  1.0000
  C   C68       1.0  0.57198  0.68557  0.24065  1.0000
  C   C69       1.0  0.64897  0.59298  0.33304  1.0000
  C   C70       1.0  0.66530  0.60373  0.25094  1.0000
  C   C71       1.0  0.69550  0.60939  0.24311  1.0000
  C   C72       1.0  0.71032  0.60406  0.31648  1.0000
  C   C73       1.0  0.51144  0.45438  0.32559  1.0000
  C   C74       1.0  0.50712  0.44085  0.23917  1.0000
  C   C75       1.0  0.50543  0.39508  0.30449  1.0000
  C   C76       1.0  0.50408  0.41172  0.22898  1.0000
  H   H23       1.0  0.50180  0.40318  0.16476  1.0000
  H   H24       1.0  0.50737  0.45265  0.18250  1.0000
  H   H25       1.0  0.45441  0.44829  0.34004  1.0000
  H   H26       1.0  0.42489  0.47683  0.34130  1.0000
  H   H27       1.0  0.51598  0.53973  0.33184  1.0000
  H   H28       1.0  0.56260  0.58662  0.33298  1.0000
  H   H29       1.0  0.57334  0.48070  0.31756  1.0000
  H   H30       1.0  0.62325  0.53096  0.31898  1.0000
  H   H31       1.0  0.65504  0.60690  0.19547  1.0000
  H   H32       1.0  0.70637  0.61684  0.18206  1.0000
  H   H33       1.0  0.65364  0.64950  0.34665  1.0000
  H   H34       1.0  0.62413  0.67804  0.34463  1.0000
  H   H35       1.0  0.45540  0.59547  0.31743  1.0000
  H   H36       1.0  0.50533  0.64575  0.31819  1.0000
  H   H37       1.0  0.57178  0.67372  0.18413  1.0000
  H   H38       1.0  0.57830  0.72356  0.16602  1.0000
  H   H39       1.0  0.42427  0.52071  0.19070  1.0000
  H   H40       1.0  0.37307  0.51107  0.17609  1.0000
  C   C77       1.0  0.57660  0.76020  0.29141  1.0000
  C   C78       1.0  0.74009  0.60949  0.30561  1.0000
  C   C79       1.0  0.50421  0.36704  0.29061  1.0000
  C   C80       1.0  0.33875  0.51744  0.29993  1.0000
  H   H41       1.0  0.58007  0.76837  0.22850  1.0000
  H   H42       1.0  0.75340  0.62491  0.25988  1.0000
  H   H43       1.0  0.50270  0.35966  0.22726  1.0000
  H   H44       1.0  0.32563  0.50243  0.25306  1.0000
  C   C81       1.0  0.63242  0.08054  0.33884  1.0000
  C   C82       1.0  0.61687  0.04891  0.33964  1.0000
  C   C83       1.0  0.58551  0.03850  0.33711  1.0000
  N   N9        1.0  0.58332  0.06425  0.33630  1.0000
  C   C84       1.0  0.61098  0.09031  0.33647  1.0000
  C   C85       1.0  0.61818  0.12143  0.33346  1.0000
  C   C86       1.0  0.59605  0.13104  0.33297  1.0000
  N   N10       1.0  0.56524  0.11369  0.33886  1.0000
  C   C87       1.0  0.55139  0.13072  0.33501  1.0000
  C   C88       1.0  0.57495  0.16101  0.32616  1.0000
  C   C89       1.0  0.60235  0.16122  0.32519  1.0000
  C   C90       1.0  0.51956  0.12068  0.33768  1.0000
  C   C91       1.0  0.49609  0.08933  0.34011  1.0000
  N   N11       1.0  0.49828  0.06359  0.33827  1.0000
  C   C92       1.0  0.47062  0.03753  0.33874  1.0000
  C   C93       1.0  0.44919  0.04729  0.34250  1.0000
  C   C94       1.0  0.46474  0.07891  0.34371  1.0000
  C   C95       1.0  0.46340  0.00641  0.33495  1.0000
  C   C96       1.0  0.48552  0.99680  0.33321  1.0000
  N   N12       1.0  0.51635  0.01415  0.33813  1.0000
  C   C97       1.0  0.53018  0.99711  0.33322  1.0000
  C   C98       1.0  0.50659  0.96682  0.32476  1.0000
  C   C99       1.0  0.47918  0.96662  0.32503  1.0000
  C   C100      1.0  0.56202  0.00716  0.33474  1.0000
  C   C101      1.0  0.57058  0.98405  0.32927  1.0000
  C   C102      1.0  0.58131  0.93359  0.31126  1.0000
  C   C103      1.0  0.58601  0.95347  0.23764  1.0000
  C   C104      1.0  0.58052  0.97811  0.24620  1.0000
  C   C105      1.0  0.43198  0.98301  0.32705  1.0000
  C   C106      1.0  0.37221  0.93046  0.30556  1.0000
  C   C107      1.0  0.38904  0.94842  0.23024  1.0000
  C   C108      1.0  0.41839  0.97417  0.24060  1.0000
  C   C109      1.0  0.51096  0.14377  0.33293  1.0000
  C   C110      1.0  0.50041  0.14941  0.25056  1.0000
  C   C111      1.0  0.49476  0.17395  0.24251  1.0000
  C   C112      1.0  0.49995  0.19407  0.31588  1.0000
  C   C113      1.0  0.64958  0.14490  0.32557  1.0000
  C   C114      1.0  0.66307  0.15409  0.23911  1.0000
  C   C115      1.0  0.70886  0.19820  0.30433  1.0000
  C   C116      1.0  0.69219  0.18019  0.22886  1.0000
  H   H45       1.0  0.70072  0.18644  0.16463  1.0000
  H   H46       1.0  0.65125  0.14252  0.18246  1.0000
  H   H47       1.0  0.65570  0.09398  0.33955  1.0000
  H   H48       1.0  0.62717  0.03590  0.34077  1.0000
  H   H49       1.0  0.56424  0.06407  0.33240  1.0000
  H   H50       1.0  0.51735  0.06378  0.33370  1.0000
  H   H51       1.0  0.62325  0.18047  0.31811  1.0000
  H   H52       1.0  0.57298  0.18010  0.31959  1.0000
  H   H53       1.0  0.49735  0.13601  0.19509  1.0000
  H   H54       1.0  0.48749  0.17743  0.18125  1.0000
  H   H55       1.0  0.45443  0.09191  0.34592  1.0000
  H   H56       1.0  0.42591  0.03386  0.34384  1.0000
  H   H57       1.0  0.50853  0.94772  0.31793  1.0000
  H   H58       1.0  0.45824  0.94736  0.31865  1.0000
  H   H59       1.0  0.43026  0.98576  0.18405  1.0000
  H   H60       1.0  0.38042  0.94245  0.16602  1.0000
  H   H61       1.0  0.58320  0.99133  0.19060  1.0000
  H   H62       1.0  0.59284  0.94977  0.17592  1.0000
  C   C117      1.0  0.34377  0.90416  0.29146  1.0000
  C   C118      1.0  0.49457  0.21845  0.30476  1.0000
  C   C119      1.0  0.73687  0.22504  0.29040  1.0000
  C   C120      1.0  0.58655  0.90914  0.29979  1.0000
  H   H63       1.0  0.33561  0.89943  0.22855  1.0000
  H   H64       1.0  0.47939  0.21644  0.25831  1.0000
  H   H65       1.0  0.74419  0.23095  0.22702  1.0000
  H   H66       1.0  0.60157  0.91103  0.25291  1.0000
  N   N13       1.0  0.25787  0.52944  0.27078  1.0000
  C   C121      1.0  0.28477  0.52959  0.26118  1.0000
  C   C122      1.0  0.30070  0.53012  0.34103  1.0000
  C   C123      1.0  0.29596  0.53103  0.17448  1.0000
  O   O1        1.0  0.27788  0.51557  0.11527  1.0000
  O   O2        1.0  0.31880  0.55433  0.14639  1.0000
  H   H67       1.0  0.33263  0.56910  0.18103  1.0000
  N   N14       1.0  0.32785  0.53162  0.34543  1.0000
  N   N15       1.0  0.57456  0.81625  0.27066  1.0000
  C   C124      1.0  0.57440  0.84300  0.26106  1.0000
  C   C125      1.0  0.57387  0.85841  0.34091  1.0000
  C   C126      1.0  0.57297  0.85273  0.17436  1.0000
  O   O3        1.0  0.58842  0.85010  0.11515  1.0000
  O   O4        1.0  0.54967  0.85227  0.14626  1.0000
  H   H68       1.0  0.53489  0.85132  0.18091  1.0000
  N   N16       1.0  0.57238  0.88406  0.34530  1.0000
  N   N17       1.0  0.28771  0.84607  0.27077  1.0000
  C   C127      1.0  0.26096  0.81916  0.26119  1.0000
  C   C128      1.0  0.24556  0.80324  0.34104  1.0000
  C   C129      1.0  0.25123  0.80798  0.17449  1.0000
  O   O5        1.0  0.25385  0.82605  0.11528  1.0000
  O   O6        1.0  0.25169  0.78514  0.14639  1.0000
  H   H69       1.0  0.25264  0.77131  0.18105  1.0000
  N   N18       1.0  0.21991  0.77610  0.34546  1.0000
  N   N19       1.0  0.81978  0.59568  0.27271  1.0000
  C   C130      1.0  0.79249  0.59482  0.26489  1.0000
  C   C131      1.0  0.77824  0.59707  0.34500  1.0000
  C   C132      1.0  0.77954  0.59054  0.18044  1.0000
  O   O7        1.0  0.77331  0.56675  0.14106  1.0000
  O   O8        1.0  0.78811  0.61390  0.13460  1.0000
  H   H70       1.0  0.78308  0.61389  0.07708  1.0000
  N   N20       1.0  0.75089  0.59505  0.35022  1.0000
  N   N21       1.0  0.50808  0.31183  0.27267  1.0000
  C   C133      1.0  0.50889  0.28539  0.26477  1.0000
  C   C134      1.0  0.50677  0.26893  0.34485  1.0000
  C   C135      1.0  0.51305  0.27669  0.18023  1.0000
  O   O9        1.0  0.53719  0.29381  0.14177  1.0000
  O   O10       1.0  0.48975  0.26267  0.13359  1.0000
  H   H71       1.0  0.48978  0.25780  0.07594  1.0000
  N   N22       1.0  0.50874  0.24357  0.35004  1.0000
  N   N23       1.0  0.79203  0.28420  0.27264  1.0000
  C   C136      1.0  0.81846  0.31150  0.26485  1.0000
  C   C137      1.0  0.83496  0.32573  0.34498  1.0000
  C   C138      1.0  0.82714  0.32448  0.18043  1.0000
  O   O11       1.0  0.80946  0.33048  0.14076  1.0000
  O   O12       1.0  0.84219  0.31615  0.13485  1.0000
  H   H72       1.0  0.84725  0.32122  0.07738  1.0000
  N   N24       1.0  0.86028  0.35309  0.35024  1.0000
  C   C139      1.0  0.13939  0.68952  0.40367  1.0000
  C   C140      1.0  0.16423  0.71957  0.39475  1.0000
  C   C141      1.0  0.13838  0.53752  0.40293  1.0000
  C   C142      1.0  0.16415  0.53387  0.39235  1.0000
  C   C143      1.0  0.91567  0.40999  0.39908  1.0000
  C   C144      1.0  0.94042  0.44013  0.40728  1.0000
  C   C145      1.0  0.94162  0.59166  0.40157  1.0000
  C   C146      1.0  0.91551  0.59474  0.39115  1.0000
  H   H73       1.0  0.90308  0.59320  0.44767  1.0000
  H   H74       1.0  0.94717  0.58763  0.46475  1.0000
  H   H75       1.0  0.94353  0.45150  0.46723  1.0000
  H   H76       1.0  0.90177  0.40016  0.45396  1.0000
  H   H77       1.0  0.13302  0.54178  0.46611  1.0000
  H   H78       1.0  0.17652  0.53520  0.44877  1.0000
  H   H79       1.0  0.17794  0.72967  0.44981  1.0000
  H   H80       1.0  0.13605  0.67845  0.46429  1.0000
  C   C147      1.0  0.41446  0.53773  0.40350  1.0000
  C   C148      1.0  0.38439  0.53251  0.39463  1.0000
  C   C149      1.0  0.56647  0.68871  0.40290  1.0000
  C   C150      1.0  0.57014  0.71814  0.39229  1.0000
  C   C151      1.0  0.69395  0.59350  0.39887  1.0000
  C   C152      1.0  0.66381  0.58811  0.40709  1.0000
  C   C153      1.0  0.51228  0.43779  0.40158  1.0000
  C   C154      1.0  0.50917  0.40858  0.39122  1.0000
  H   H81       1.0  0.51070  0.39771  0.44776  1.0000
  H   H82       1.0  0.51628  0.44738  0.46476  1.0000
  H   H83       1.0  0.65243  0.57984  0.46701  1.0000
  H   H84       1.0  0.70378  0.58943  0.45376  1.0000
  H   H85       1.0  0.56225  0.67913  0.46610  1.0000
  H   H86       1.0  0.56883  0.72920  0.44870  1.0000
  H   H87       1.0  0.37431  0.53614  0.44969  1.0000
  H   H88       1.0  0.42554  0.54549  0.46408  1.0000
  C   C155      1.0  0.56633  0.96459  0.40350  1.0000
  C   C156      1.0  0.57155  0.93975  0.39459  1.0000
  C   C157      1.0  0.41526  0.96558  0.40288  1.0000
  C   C158      1.0  0.38582  0.93983  0.39231  1.0000
  C   C159      1.0  0.51033  0.18822  0.39852  1.0000
  C   C160      1.0  0.51569  0.16346  0.40695  1.0000
  C   C161      1.0  0.66620  0.16232  0.40156  1.0000
  C   C162      1.0  0.69537  0.18846  0.39109  1.0000
  H   H89       1.0  0.70627  0.20086  0.44762  1.0000
  H   H90       1.0  0.65661  0.15677  0.46475  1.0000
  H   H91       1.0  0.52382  0.16031  0.46707  1.0000
  H   H92       1.0  0.51429  0.20209  0.45342  1.0000
  H   H93       1.0  0.42484  0.97096  0.46607  1.0000
  H   H94       1.0  0.37476  0.92747  0.44873  1.0000
  H   H95       1.0  0.56795  0.92606  0.44967  1.0000
  H   H96       1.0  0.55861  0.96795  0.46412  1.0000
  C   C163      1.0  0.24477  0.52951  0.35133  1.0000
  N   N25       1.0  0.28796  0.53087  0.42137  1.0000
  C   C164      1.0  0.26090  0.53047  0.43092  1.0000
  C   C165      1.0  0.25028  0.53106  0.51730  1.0000
  O   O13       1.0  0.26915  0.54631  0.57510  1.0000
  O   O14       1.0  0.22643  0.50940  0.54749  1.0000
  H   H97       1.0  0.21192  0.49465  0.51440  1.0000
  N   N26       1.0  0.21866  0.53028  0.35470  1.0000
  C   C166      1.0  0.57448  0.80309  0.35121  1.0000
  N   N27       1.0  0.57313  0.84494  0.42125  1.0000
  C   C167      1.0  0.57352  0.81827  0.43080  1.0000
  C   C168      1.0  0.57293  0.80709  0.51719  1.0000
  O   O15       1.0  0.55768  0.81071  0.57497  1.0000
  O   O16       1.0  0.59458  0.80489  0.54737  1.0000
  H   H98       1.0  0.60933  0.80512  0.51428  1.0000
  N   N28       1.0  0.57371  0.77621  0.35459  1.0000
  C   C169      1.0  0.30088  0.85918  0.35131  1.0000
  N   N29       1.0  0.25903  0.81599  0.42138  1.0000
  C   C170      1.0  0.28570  0.84305  0.43091  1.0000
  C   C171      1.0  0.29689  0.85367  0.51729  1.0000
  O   O17       1.0  0.29327  0.83481  0.57508  1.0000
  O   O18       1.0  0.29908  0.87753  0.54745  1.0000
  H   H99       1.0  0.29884  0.89203  0.51436  1.0000
  N   N30       1.0  0.32775  0.88529  0.35467  1.0000
  C   C172      1.0  0.83467  0.59868  0.35227  1.0000
  N   N31       1.0  0.79274  0.59932  0.42453  1.0000
  C   C173      1.0  0.82018  0.60039  0.43251  1.0000
  C   C174      1.0  0.83277  0.60311  0.51800  1.0000
  O   O19       1.0  0.81533  0.58985  0.58086  1.0000
  O   O20       1.0  0.85702  0.62596  0.54048  1.0000
  H   H100      1.0  0.87061  0.63955  0.50255  1.0000
  N   N32       1.0  0.86107  0.59846  0.35475  1.0000
  C   C175      1.0  0.50521  0.32379  0.35231  1.0000
  N   N33       1.0  0.50465  0.28125  0.42445  1.0000
  C   C176      1.0  0.50361  0.30763  0.43252  1.0000
  C   C177      1.0  0.50103  0.31757  0.51809  1.0000
  O   O21       1.0  0.51435  0.31339  0.58075  1.0000
  O   O22       1.0  0.47823  0.31902  0.54089  1.0000
  H   H101      1.0  0.46460  0.31902  0.50313  1.0000
  N   N34       1.0  0.50546  0.35042  0.35484  1.0000
  C   C178      1.0  0.78014  0.26928  0.35218  1.0000
  N   N35       1.0  0.82270  0.31120  0.42449  1.0000
  C   C179      1.0  0.79634  0.28376  0.43243  1.0000
  C   C180      1.0  0.78646  0.27114  0.51790  1.0000
  O   O23       1.0  0.79063  0.28856  0.58081  1.0000
  O   O24       1.0  0.78507  0.24689  0.54030  1.0000
  H   H102      1.0  0.78508  0.23331  0.50232  1.0000
  N   N36       1.0  0.75353  0.24288  0.35464  1.0000
