data_image0
_chemical_formula_structural       HNC2NC7H4C4HOHC4H4C3H2C4H3C4H2NC4NC30H16C3HOC10H11C3H2C2H2
_chemical_formula_sum              "H50 N4 C80 O2"
_cell_length_a       29.9782
_cell_length_b       29.978
_cell_length_c       14.8586
_cell_angle_alpha    90
_cell_angle_beta     90
_cell_angle_gamma    90.0715

_space_group_name_H-M_alt    "P 1"
_space_group_IT_number       1

loop_
  _space_group_symop_operation_xyz
  'x, y, z'

loop_
  _atom_site_type_symbol
  _atom_site_label
  _atom_site_symmetry_multiplicity
  _atom_site_fract_x
  _atom_site_fract_y
  _atom_site_fract_z
  _atom_site_occupancy
  H   H1        1.0  0.02897  0.03176  0.34319  1.0000
  N   N1        1.0  0.05161  0.05444  0.34239  1.0000
  C   C1        1.0  0.04265  0.09881  0.34212  1.0000
  C   C2        1.0  0.90565  0.04677  0.34217  1.0000
  N   N2        1.0  0.94993  0.05549  0.34215  1.0000
  C   C3        1.0  0.09599  0.04554  0.34182  1.0000
  C   C4        1.0  0.19021  0.00849  0.26041  1.0000
  C   C5        1.0  0.23720  0.00884  0.26041  1.0000
  C   C6        1.0  0.30972  0.00494  0.34126  1.0000
  C   C7        1.0  0.33416  0.03494  0.28645  1.0000
  C   C8        1.0  0.38115  0.03501  0.28592  1.0000
  C   C9        1.0  0.40579  0.00519  0.34049  1.0000
  H   H2        1.0  0.17357  0.01122  0.20050  1.0000
  H   H3        1.0  0.25330  0.01122  0.19988  1.0000
  H   H4        1.0  0.39727  0.05784  0.24633  1.0000
  H   H5        1.0  0.31791  0.05781  0.24727  1.0000
  C   C10       1.0  0.45357  0.00521  0.33986  1.0000
  C   C11       1.0  0.54943  0.00510  0.33846  1.0000
  C   C12       1.0  0.52485  0.00679  0.25685  1.0000
  C   C13       1.0  0.47777  0.00673  0.25808  1.0000
  H   H6        1.0  0.46111  0.00730  0.19796  1.0000
  O   O1        1.0  0.54543  0.00870  0.17524  1.0000
  H   H7        1.0  0.55384  0.04009  0.16596  1.0000
  C   C14       1.0  0.81231  0.00971  0.42280  1.0000
  C   C15       1.0  0.76532  0.00975  0.42238  1.0000
  C   C16       1.0  0.66850  0.03548  0.39227  1.0000
  C   C17       1.0  0.62151  0.03574  0.39161  1.0000
  H   H8        1.0  0.60518  0.05955  0.42837  1.0000
  H   H9        1.0  0.68469  0.05930  0.42930  1.0000
  H   H10       1.0  0.74905  0.01334  0.48248  1.0000
  H   H11       1.0  0.82880  0.01384  0.48255  1.0000
  C   C18       1.0  0.95858  0.09979  0.34216  1.0000
  C   C19       1.0  0.88449  0.08826  0.34199  1.0000
  C   C20       1.0  0.11689  0.08724  0.34133  1.0000
  H   H12       1.0  0.85096  0.09438  0.34179  1.0000
  H   H13       1.0  0.15039  0.09362  0.34089  1.0000
  C   C21       1.0  0.00542  0.81517  0.26088  1.0000
  C   C22       1.0  0.00553  0.76819  0.26116  1.0000
  C   C23       1.0  0.03182  0.62439  0.28701  1.0000
  C   C24       1.0  0.03171  0.67138  0.28730  1.0000
  H   H14       1.0  0.00770  0.75200  0.20070  1.0000
  H   H15       1.0  0.00813  0.83172  0.20086  1.0000
  H   H16       1.0  0.03639  0.45177  0.16704  1.0000
  C   C25       1.0  0.00726  0.19308  0.42302  1.0000
  C   C26       1.0  0.00751  0.24007  0.42286  1.0000
  C   C27       1.0  0.03320  0.38407  0.39256  1.0000
  C   C28       1.0  0.03304  0.33707  0.39298  1.0000
  H   H17       1.0  0.01139  0.17649  0.48266  1.0000
  H   H18       1.0  0.01127  0.25625  0.48303  1.0000
  N   N3        1.0  0.05284  0.95276  0.34206  1.0000
  C   C29       1.0  0.04419  0.90846  0.34192  1.0000
  C   C30       1.0  0.88588  0.92100  0.34293  1.0000
  C   C31       1.0  0.91846  0.88847  0.34276  1.0000
  C   C32       1.0  0.96013  0.90945  0.34229  1.0000
  N   N4        1.0  0.95115  0.95381  0.34182  1.0000
  C   C33       1.0  0.90676  0.96270  0.34210  1.0000
  C   C34       1.0  0.88414  0.00447  0.34210  1.0000
  C   C35       1.0  0.91705  0.12088  0.34238  1.0000
  C   C36       1.0  0.00084  0.12137  0.34222  1.0000
  C   C37       1.0  0.08432  0.11976  0.34119  1.0000
  C   C38       1.0  0.11861  0.00377  0.34195  1.0000
  C   C39       1.0  0.08572  0.88737  0.34199  1.0000
  C   C40       1.0  0.11828  0.91999  0.34184  1.0000
  C   C41       1.0  0.00193  0.88691  0.34211  1.0000
  C   C42       1.0  0.00159  0.83924  0.34219  1.0000
  C   C43       1.0  0.00170  0.74366  0.34241  1.0000
  C   C44       1.0  0.00193  0.69578  0.34251  1.0000
  C   C45       1.0  0.16627  0.00421  0.34179  1.0000
  C   C46       1.0  0.26184  0.00474  0.34145  1.0000
  C   C47       1.0  0.00120  0.16905  0.34218  1.0000
  C   C48       1.0  0.00143  0.26461  0.34224  1.0000
  C   C49       1.0  0.99530  0.24010  0.26157  1.0000
  C   C50       1.0  0.99531  0.19312  0.26135  1.0000
  C   C51       1.0  0.00146  0.31247  0.34222  1.0000
  C   C52       1.0  0.96989  0.33696  0.29137  1.0000
  C   C53       1.0  0.97004  0.38395  0.29083  1.0000
  C   C54       1.0  0.00185  0.40838  0.34107  1.0000
  C   C55       1.0  0.83646  0.00404  0.34201  1.0000
  C   C56       1.0  0.81252  0.99827  0.26099  1.0000
  C   C57       1.0  0.76553  0.99808  0.26092  1.0000
  C   C58       1.0  0.74089  0.00392  0.34152  1.0000
  C   C59       1.0  0.69304  0.00405  0.34115  1.0000
  C   C60       1.0  0.59713  0.00469  0.33940  1.0000
  C   C61       1.0  0.62148  0.97306  0.28869  1.0000
  C   C62       1.0  0.66846  0.97279  0.28951  1.0000
  H   H19       1.0  0.60512  0.94939  0.25156  1.0000
  H   H20       1.0  0.68460  0.94878  0.25304  1.0000
  H   H21       1.0  0.74943  0.99458  0.20062  1.0000
  H   H22       1.0  0.82916  0.99435  0.20136  1.0000
  H   H23       1.0  0.85238  0.91460  0.34366  1.0000
  H   H24       1.0  0.91215  0.85496  0.34314  1.0000
  H   H25       1.0  0.97379  0.97649  0.34108  1.0000
  H   H26       1.0  0.91088  0.15439  0.34265  1.0000
  H   H27       1.0  0.99101  0.17656  0.20171  1.0000
  H   H28       1.0  0.99159  0.25630  0.20142  1.0000
  H   H29       1.0  0.09066  0.15327  0.34044  1.0000
  H   H30       1.0  0.15181  0.91389  0.34163  1.0000
  H   H31       1.0  0.05441  0.68765  0.24768  1.0000
  H   H32       1.0  0.05449  0.60830  0.24706  1.0000
  H   H33       1.0  0.94576  0.32075  0.25521  1.0000
  H   H34       1.0  0.94617  0.40024  0.25422  1.0000
  C   C63       1.0  0.00221  0.45607  0.34019  1.0000
  C   C64       1.0  0.00350  0.48067  0.25855  1.0000
  C   C65       1.0  0.00342  0.52774  0.25980  1.0000
  H   H35       1.0  0.00369  0.54440  0.19967  1.0000
  O   O2        1.0  0.00505  0.46010  0.17690  1.0000
  C   C66       1.0  0.09712  0.96147  0.34210  1.0000
  C   C67       1.0  0.99771  0.76825  0.42354  1.0000
  C   C68       1.0  0.99776  0.81524  0.42360  1.0000
  C   C69       1.0  0.97238  0.67102  0.39773  1.0000
  C   C70       1.0  0.97258  0.62402  0.39771  1.0000
  C   C71       1.0  0.00225  0.59972  0.34219  1.0000
  C   C72       1.0  0.23738  0.00040  0.42267  1.0000
  C   C73       1.0  0.19039  0.00021  0.42300  1.0000
  C   C74       1.0  0.38145  0.97528  0.39557  1.0000
  C   C75       1.0  0.33445  0.97512  0.39580  1.0000
  H   H36       1.0  0.09187  0.85385  0.34206  1.0000
  H   H37       1.0  0.17388  0.99721  0.48301  1.0000
  H   H38       1.0  0.25361  0.99813  0.48307  1.0000
  H   H39       1.0  0.31842  0.95212  0.43511  1.0000
  H   H40       1.0  0.39779  0.95250  0.43482  1.0000
  H   H41       1.0  0.99519  0.83185  0.48358  1.0000
  H   H42       1.0  0.99570  0.75212  0.48408  1.0000
  H   H43       1.0  0.95000  0.60764  0.43748  1.0000
  H   H44       1.0  0.94956  0.68702  0.43744  1.0000
  H   H45       1.0  0.05706  0.32094  0.42947  1.0000
  H   H46       1.0  0.05712  0.40046  0.42900  1.0000
  C   C76       1.0  0.00226  0.55193  0.34160  1.0000
  C   C77       1.0  0.00120  0.52719  0.42268  1.0000
  C   C78       1.0  0.00145  0.48022  0.42201  1.0000
  H   H47       1.0  0.00032  0.46372  0.48230  1.0000
  H   H48       1.0  0.00095  0.54322  0.48350  1.0000
  C   C79       1.0  0.47831  0.00377  0.42092  1.0000
  C   C80       1.0  0.52528  0.00397  0.42026  1.0000
  H   H49       1.0  0.54177  0.00254  0.48053  1.0000
  H   H50       1.0  0.46228  0.00323  0.48172  1.0000
