data_image0
_chemical_formula_structural       C8O2H4N2C8O2H4N2C8O2H4N2CNCHCHCNCHCHCNCHCHCNCHCHCNCHCHCNCHCHC2HOC2OHN2C2HOC2OHN2C2HOC2OHN2C2NHCHC2NHCHC2NHCHC2NHCHC2NHCHC2NHCH
_chemical_formula_sum              "C72 O12 H42 N24"
_cell_length_a       31.1267
_cell_length_b       31.1267
_cell_length_c       15.0746
_cell_angle_alpha    90
_cell_angle_beta     90
_cell_angle_gamma    120

_space_group_name_H-M_alt    "P 1"
_space_group_IT_number       1

loop_
  _space_group_symop_operation_xyz
  'x, y, z'

loop_
  _atom_site_type_symbol
  _atom_site_label
  _atom_site_symmetry_multiplicity
  _atom_site_fract_x
  _atom_site_fract_y
  _atom_site_fract_z
  _atom_site_occupancy
  C   C1        1.0  0.02238  0.51477  0.33155  1.0000
  C   C2        1.0  0.12696  0.57920  0.32793  1.0000
  C   C3        1.0  0.09483  0.59855  0.31527  1.0000
  C   C4        1.0  0.04346  0.56561  0.30627  1.0000
  C   C5        1.0  0.97029  0.48113  0.33227  1.0000
  C   C6        1.0  0.94901  0.43020  0.30740  1.0000
  C   C7        1.0  0.89773  0.39726  0.31787  1.0000
  C   C8        1.0  0.86572  0.41669  0.33125  1.0000
  O   O1        1.0  0.01594  0.58509  0.27388  1.0000
  O   O2        1.0  0.97628  0.41062  0.27423  1.0000
  H   H1        1.0  0.00740  0.57318  0.21246  1.0000
  H   H2        1.0  0.98426  0.42227  0.21256  1.0000
  H   H3        1.0  0.18707  0.62094  0.26658  1.0000
  H   H4        1.0  0.80529  0.37473  0.27087  1.0000
  N   N1        1.0  0.87779  0.34811  0.30266  1.0000
  N   N2        1.0  0.11470  0.64765  0.29974  1.0000
  C   C9        1.0  0.47930  0.50657  0.33175  1.0000
  C   C10       1.0  0.41486  0.54671  0.33019  1.0000
  C   C11       1.0  0.39546  0.49526  0.31696  1.0000
  C   C12       1.0  0.42839  0.47690  0.30679  1.0000
  C   C13       1.0  0.51291  0.48808  0.33145  1.0000
  C   C14       1.0  0.56378  0.51780  0.30632  1.0000
  C   C15       1.0  0.59672  0.49942  0.31592  1.0000
  C   C16       1.0  0.57734  0.44794  0.32876  1.0000
  O   O3        1.0  0.40883  0.43000  0.27381  1.0000
  O   O4        1.0  0.58331  0.56476  0.27367  1.0000
  H   H5        1.0  0.42057  0.43360  0.21222  1.0000
  H   H6        1.0  0.57146  0.56129  0.21218  1.0000
  H   H7        1.0  0.37293  0.56515  0.26965  1.0000
  H   H8        1.0  0.61930  0.42967  0.26789  1.0000
  N   N3        1.0  0.64585  0.52867  0.30072  1.0000
  N   N4        1.0  0.34632  0.46601  0.30179  1.0000
  C   C17       1.0  0.48716  0.97118  0.33195  1.0000
  C   C18       1.0  0.44729  0.86663  0.32998  1.0000
  C   C19       1.0  0.49869  0.89881  0.31661  1.0000
  C   C20       1.0  0.51695  0.95011  0.30681  1.0000
  C   C21       1.0  0.50555  0.02327  0.33205  1.0000
  C   C22       1.0  0.47580  0.04443  0.30715  1.0000
  C   C23       1.0  0.49415  0.09575  0.31702  1.0000
  C   C24       1.0  0.54560  0.12784  0.33022  1.0000
  O   O5        1.0  0.56383  0.97759  0.27384  1.0000
  O   O6        1.0  0.42885  0.01700  0.27445  1.0000
  H   H9        1.0  0.56020  0.98581  0.21232  1.0000
  H   H10       1.0  0.43235  0.00879  0.21286  1.0000
  H   H11       1.0  0.42903  0.80632  0.26938  1.0000
  H   H12       1.0  0.56394  0.18815  0.26956  1.0000
  N   N5        1.0  0.46480  0.11555  0.30208  1.0000
  N   N6        1.0  0.52808  0.87909  0.30130  1.0000
  C   C25       1.0  0.23527  0.49511  0.23753  1.0000
  N   N7        1.0  0.26775  0.47968  0.25803  1.0000
  C   C26       1.0  0.20170  0.49252  0.30312  1.0000
  H   H13       1.0  0.23751  0.51075  0.17685  1.0000
  C   C27       1.0  0.17333  0.51550  0.29164  1.0000
  H   H14       1.0  0.17966  0.53743  0.23697  1.0000
  C   C28       1.0  0.49891  0.73887  0.23820  1.0000
  N   N8        1.0  0.51438  0.78683  0.25832  1.0000
  C   C29       1.0  0.50166  0.70807  0.30399  1.0000
  H   H15       1.0  0.48295  0.72527  0.17781  1.0000
  C   C30       1.0  0.47862  0.65668  0.29300  1.0000
  H   H16       1.0  0.45644  0.64090  0.23868  1.0000
  C   C31       1.0  0.25521  0.75826  0.23794  1.0000
  N   N9        1.0  0.20713  0.72594  0.25763  1.0000
  C   C32       1.0  0.28589  0.79179  0.30384  1.0000
  H   H17       1.0  0.26891  0.75594  0.17762  1.0000
  C   C33       1.0  0.33730  0.82008  0.29310  1.0000
  H   H18       1.0  0.35312  0.81372  0.23881  1.0000
  C   C34       1.0  0.75784  0.50065  0.23822  1.0000
  N   N10       1.0  0.72502  0.51573  0.25820  1.0000
  C   C35       1.0  0.79123  0.50339  0.30432  1.0000
  H   H19       1.0  0.75578  0.48491  0.17772  1.0000
  C   C36       1.0  0.81977  0.48056  0.29348  1.0000
  H   H20       1.0  0.81363  0.45853  0.23902  1.0000
  C   C37       1.0  0.49352  0.25566  0.23803  1.0000
  N   N11       1.0  0.47826  0.20778  0.25847  1.0000
  C   C38       1.0  0.49086  0.28657  0.30370  1.0000
  H   H21       1.0  0.50910  0.26911  0.17733  1.0000
  C   C39       1.0  0.51369  0.33792  0.29221  1.0000
  H   H22       1.0  0.53561  0.35357  0.23756  1.0000
  C   C40       1.0  0.73774  0.23630  0.23859  1.0000
  N   N12       1.0  0.78557  0.26910  0.25905  1.0000
  C   C41       1.0  0.70691  0.20272  0.30431  1.0000
  H   H23       1.0  0.72422  0.23847  0.17797  1.0000
  C   C42       1.0  0.65557  0.17408  0.29300  1.0000
  H   H24       1.0  0.63979  0.18037  0.23854  1.0000
  C   C43       1.0  0.05564  0.49804  0.35584  1.0000
  C   C44       1.0  0.10712  0.52813  0.34493  1.0000
  H   H25       1.0  0.04246  0.46221  0.37582  1.0000
  O   O7        1.0  0.17719  0.60981  0.32809  1.0000
  C   C45       1.0  0.88569  0.46783  0.34772  1.0000
  C   C46       1.0  0.93724  0.49793  0.35761  1.0000
  O   O8        1.0  0.81546  0.38620  0.33215  1.0000
  H   H26       1.0  0.95057  0.53389  0.37693  1.0000
  N   N13       1.0  0.85920  0.49155  0.34578  1.0000
  N   N14       1.0  0.13371  0.50451  0.34337  1.0000
  C   C47       1.0  0.49609  0.55647  0.35680  1.0000
  C   C48       1.0  0.46600  0.57792  0.34666  1.0000
  H   H27       1.0  0.53202  0.57910  0.37622  1.0000
  O   O9        1.0  0.38433  0.56642  0.33097  1.0000
  C   C49       1.0  0.52623  0.41671  0.34547  1.0000
  C   C50       1.0  0.49616  0.43814  0.35616  1.0000
  O   O10       1.0  0.60793  0.42829  0.32926  1.0000
  H   H28       1.0  0.46027  0.41548  0.37577  1.0000
  N   N15       1.0  0.50263  0.36651  0.34397  1.0000
  N   N16       1.0  0.48969  0.62813  0.34481  1.0000
  C   C51       1.0  0.43727  0.93793  0.35685  1.0000
  C   C52       1.0  0.41597  0.88641  0.34670  1.0000
  H   H29       1.0  0.41455  0.95112  0.37637  1.0000
  O   O11       1.0  0.42775  0.81641  0.33073  1.0000
  C   C53       1.0  0.57684  0.10798  0.34678  1.0000
  C   C54       1.0  0.55547  0.05645  0.35688  1.0000
  O   O12       1.0  0.56525  0.17809  0.33090  1.0000
  H   H30       1.0  0.57811  0.04319  0.37650  1.0000
  N   N17       1.0  0.62704  0.13455  0.34501  1.0000
  N   N18       1.0  0.36577  0.85979  0.34480  1.0000
  C   C55       1.0  0.26905  0.46081  0.33870  1.0000
  C   C56       1.0  0.23372  0.45586  0.40270  1.0000
  N   N19       1.0  0.20176  0.47209  0.38278  1.0000
  H   H31       1.0  0.23394  0.44367  0.46556  1.0000
  C   C57       1.0  0.31131  0.45856  0.36266  1.0000
  H   H32       1.0  0.32121  0.46380  0.42838  1.0000
  C   C58       1.0  0.53356  0.80728  0.33870  1.0000
  C   C59       1.0  0.53884  0.77712  0.40276  1.0000
  N   N20       1.0  0.52241  0.72883  0.38332  1.0000
  H   H33       1.0  0.55109  0.78966  0.46554  1.0000
  C   C60       1.0  0.53600  0.85195  0.36233  1.0000
  H   H34       1.0  0.53074  0.85643  0.42811  1.0000
  C   C61       1.0  0.18650  0.72474  0.33777  1.0000
  C   C62       1.0  0.21661  0.76004  0.40205  1.0000
  N   N21       1.0  0.26496  0.79186  0.38296  1.0000
  H   H35       1.0  0.20384  0.75993  0.46456  1.0000
  C   C63       1.0  0.14159  0.68267  0.36099  1.0000
  H   H36       1.0  0.13682  0.67291  0.42678  1.0000
  C   C64       1.0  0.72332  0.53454  0.33870  1.0000
  C   C65       1.0  0.75863  0.53987  0.40308  1.0000
  N   N22       1.0  0.79079  0.52378  0.38380  1.0000
  H   H37       1.0  0.75797  0.55181  0.46597  1.0000
  C   C66       1.0  0.68075  0.53640  0.36195  1.0000
  H   H38       1.0  0.67088  0.53128  0.42771  1.0000
  C   C67       1.0  0.45948  0.18756  0.33915  1.0000
  C   C68       1.0  0.45447  0.21787  0.40324  1.0000
  N   N23       1.0  0.47052  0.26603  0.38337  1.0000
  H   H39       1.0  0.44233  0.20541  0.46611  1.0000
  C   C69       1.0  0.45739  0.14310  0.36301  1.0000
  H   H40       1.0  0.46273  0.13848  0.42869  1.0000
  C   C70       1.0  0.80584  0.27062  0.33971  1.0000
  C   C71       1.0  0.77568  0.23516  0.40375  1.0000
  N   N24       1.0  0.72752  0.20300  0.38396  1.0000
  H   H41       1.0  0.78810  0.23567  0.46672  1.0000
  C   C72       1.0  0.85019  0.31313  0.36350  1.0000
  H   H42       1.0  0.85468  0.32290  0.42930  1.0000
