data_image0
_chemical_formula_structural       C3NC3NC5NC4NC35H25C21H18C16H16NCHCH2CH2NCHCH2CH2NC2HCH2CH2NCHCH2CH2NCHCH2CH2NC2HCH2CH2C18H17C3NC3NC2NC5NC34H24C3NC3NC5NC5NC36H26C2NCNCNH3C2NCNCNH3CNCNCNH3C2NCNCNH3C2NCNCNH3CNCNCNH3
_chemical_formula_sum              "C246 N36 H174"
_cell_length_a       58.6109
_cell_length_b       58.6109
_cell_length_c       14.9886
_cell_angle_alpha    89.773
_cell_angle_beta     90.227
_cell_angle_gamma    120

_space_group_name_H-M_alt    "P 1"
_space_group_IT_number       1

loop_
  _space_group_symop_operation_xyz
  'x, y, z'

loop_
  _atom_site_type_symbol
  _atom_site_label
  _atom_site_symmetry_multiplicity
  _atom_site_fract_x
  _atom_site_fract_y
  _atom_site_fract_z
  _atom_site_occupancy
  C   C1        1.0  0.01991  0.48564  0.33196  1.0000
  C   C2        1.0  0.04711  0.49939  0.33312  1.0000
  C   C3        1.0  0.05554  0.52631  0.33219  1.0000
  N   N1        1.0  0.03323  0.52786  0.33107  1.0000
  C   C4        1.0  0.01112  0.50384  0.33066  1.0000
  C   C5        1.0  0.98427  0.49732  0.32893  1.0000
  C   C6        1.0  0.97533  0.51582  0.32914  1.0000
  N   N2        1.0  0.99003  0.54239  0.33077  1.0000
  C   C7        1.0  0.97493  0.55383  0.33079  1.0000
  C   C8        1.0  0.94882  0.53325  0.32917  1.0000
  C   C9        1.0  0.94907  0.50984  0.32824  1.0000
  C   C10       1.0  0.98339  0.58115  0.33192  1.0000
  C   C11       1.0  0.01015  0.60172  0.33216  1.0000
  N   N3        1.0  0.03246  0.60017  0.33111  1.0000
  C   C12       1.0  0.05456  0.62418  0.33075  1.0000
  C   C13       1.0  0.04578  0.64239  0.33199  1.0000
  C   C14       1.0  0.01858  0.62863  0.33310  1.0000
  C   C15       1.0  0.08141  0.63071  0.32905  1.0000
  N   N4        1.0  0.07566  0.58565  0.33091  1.0000
  C   C16       1.0  0.09075  0.57420  0.33091  1.0000
  C   C17       1.0  0.11686  0.59479  0.32927  1.0000
  C   C18       1.0  0.11661  0.61820  0.32835  1.0000
  C   C19       1.0  0.08230  0.54688  0.33200  1.0000
  C   C20       1.0  0.10223  0.53975  0.33077  1.0000
  C   C21       1.0  0.11125  0.53546  0.24881  1.0000
  C   C22       1.0  0.13238  0.53051  0.24680  1.0000
  C   C23       1.0  0.14511  0.52974  0.32636  1.0000
  C   C24       1.0  0.16772  0.52653  0.32355  1.0000
  C   C25       1.0  0.21084  0.53847  0.25972  1.0000
  C   C26       1.0  0.18817  0.54090  0.26157  1.0000
  C   C27       1.0  0.10101  0.65787  0.32833  1.0000
  C   C28       1.0  0.11224  0.67092  0.24720  1.0000
  C   C29       1.0  0.13301  0.69721  0.24728  1.0000
  C   C30       1.0  0.14313  0.71109  0.32827  1.0000
  C   C31       1.0  0.16545  0.73708  0.32887  1.0000
  C   C32       1.0  0.16787  0.75661  0.26752  1.0000
  C   C33       1.0  0.19025  0.78201  0.26777  1.0000
  C   C34       1.0  0.21077  0.78874  0.33015  1.0000
  C   C35       1.0  0.96347  0.58830  0.33064  1.0000
  C   C36       1.0  0.92098  0.59892  0.32634  1.0000
  C   C37       1.0  0.93343  0.59797  0.24671  1.0000
  C   C38       1.0  0.95437  0.59272  0.24867  1.0000
  C   C39       1.0  0.89866  0.60261  0.32362  1.0000
  C   C40       1.0  0.87802  0.58860  0.26173  1.0000
  C   C41       1.0  0.85568  0.59160  0.25982  1.0000
  C   C42       1.0  0.85301  0.60874  0.31973  1.0000
  C   C43       1.0  0.96465  0.47017  0.32823  1.0000
  C   C44       1.0  0.95320  0.45726  0.24713  1.0000
  C   C45       1.0  0.93222  0.43108  0.24730  1.0000
  C   C46       1.0  0.92206  0.41718  0.32834  1.0000
  C   C47       1.0  0.89941  0.39140  0.32906  1.0000
  C   C48       1.0  0.85339  0.34024  0.33032  1.0000
  C   C49       1.0  0.87378  0.34660  0.26815  1.0000
  C   C50       1.0  0.89651  0.37176  0.26787  1.0000
  H   H1        1.0  0.87245  0.33282  0.22349  1.0000
  H   H2        1.0  0.91110  0.37549  0.22304  1.0000
  H   H3        1.0  0.92365  0.42269  0.18762  1.0000
  H   H4        1.0  0.95952  0.46710  0.18770  1.0000
  H   H5        1.0  0.00864  0.46555  0.33188  1.0000
  H   H6        1.0  0.05860  0.49082  0.33397  1.0000
  H   H7        1.0  0.03308  0.54415  0.32948  1.0000
  H   H8        1.0  0.03261  0.58388  0.32956  1.0000
  H   H9        1.0  0.93259  0.49158  0.32716  1.0000
  H   H10       1.0  0.93215  0.53468  0.32866  1.0000
  H   H11       1.0  0.96259  0.59166  0.18980  1.0000
  H   H12       1.0  0.92725  0.60095  0.18608  1.0000
  H   H13       1.0  0.00709  0.63720  0.33391  1.0000
  H   H14       1.0  0.05704  0.66247  0.33194  1.0000
  H   H15       1.0  0.13308  0.63646  0.32724  1.0000
  H   H16       1.0  0.10590  0.66114  0.18778  1.0000
  H   H17       1.0  0.14140  0.70574  0.18756  1.0000
  H   H18       1.0  0.19123  0.79570  0.22298  1.0000
  H   H19       1.0  0.15316  0.75262  0.22255  1.0000
  H   H20       1.0  0.18717  0.55401  0.21870  1.0000
  H   H21       1.0  0.22542  0.55001  0.21571  1.0000
  H   H22       1.0  0.13853  0.52768  0.18616  1.0000
  H   H23       1.0  0.10288  0.53649  0.18995  1.0000
  H   H24       1.0  0.87866  0.57539  0.21885  1.0000
  H   H25       1.0  0.84094  0.58031  0.21585  1.0000
  C   C51       1.0  0.54483  0.51989  0.33345  1.0000
  C   C52       1.0  0.56541  0.51437  0.33190  1.0000
  C   C53       1.0  0.58882  0.53804  0.33087  1.0000
  C   C54       1.0  0.56313  0.67472  0.25163  1.0000
  C   C55       1.0  0.56806  0.70079  0.24960  1.0000
  C   C56       1.0  0.56012  0.77127  0.26253  1.0000
  C   C57       1.0  0.55766  0.74616  0.26448  1.0000
  C   C58       1.0  0.42780  0.54031  0.24946  1.0000
  C   C59       1.0  0.40151  0.53477  0.24928  1.0000
  C   C60       1.0  0.34208  0.51009  0.26884  1.0000
  C   C61       1.0  0.31668  0.50707  0.26875  1.0000
  C   C62       1.0  0.30987  0.52071  0.33096  1.0000
  C   C63       1.0  0.50069  0.43442  0.24933  1.0000
  C   C64       1.0  0.50593  0.46059  0.25128  1.0000
  C   C65       1.0  0.51004  0.38833  0.26437  1.0000
  C   C66       1.0  0.50703  0.36299  0.26247  1.0000
  C   C67       1.0  0.64128  0.59480  0.24910  1.0000
  C   C68       1.0  0.66746  0.59997  0.24898  1.0000
  C   C69       1.0  0.75839  0.61190  0.33092  1.0000
  C   C70       1.0  0.75195  0.62598  0.26867  1.0000
  C   C71       1.0  0.72680  0.62357  0.26873  1.0000
  H   H26       1.0  0.76566  0.63843  0.22367  1.0000
  H   H27       1.0  0.72301  0.63446  0.22379  1.0000
  H   H28       1.0  0.67578  0.59986  0.18923  1.0000
  H   H29       1.0  0.63137  0.59132  0.18979  1.0000
  H   H30       1.0  0.60707  0.53981  0.32980  1.0000
  H   H31       1.0  0.50701  0.46999  0.19240  1.0000
  H   H32       1.0  0.49770  0.42537  0.18870  1.0000
  H   H33       1.0  0.46145  0.46865  0.33594  1.0000
  H   H34       1.0  0.43763  0.54389  0.19015  1.0000
  H   H35       1.0  0.39302  0.53475  0.18947  1.0000
  H   H36       1.0  0.30305  0.49447  0.22377  1.0000
  H   H37       1.0  0.34613  0.49949  0.22397  1.0000
  H   H38       1.0  0.54454  0.73212  0.22166  1.0000
  H   H39       1.0  0.54852  0.77437  0.21865  1.0000
  H   H40       1.0  0.57085  0.70988  0.18896  1.0000
  H   H41       1.0  0.56205  0.66542  0.19276  1.0000
  H   H42       1.0  0.52324  0.40226  0.22142  1.0000
  H   H43       1.0  0.51830  0.35961  0.21843  1.0000
  C   C72       1.0  0.42406  0.98751  0.25269  1.0000
  C   C73       1.0  0.39799  0.96638  0.25014  1.0000
  C   C74       1.0  0.32750  0.88790  0.26133  1.0000
  C   C75       1.0  0.35261  0.91056  0.26378  1.0000
  C   C76       1.0  0.55836  0.98645  0.25173  1.0000
  C   C77       1.0  0.56392  0.96571  0.25160  1.0000
  C   C78       1.0  0.58855  0.93089  0.27124  1.0000
  C   C79       1.0  0.59156  0.90850  0.27119  1.0000
  C   C80       1.0  0.66413  0.16507  0.24961  1.0000
  C   C81       1.0  0.63795  0.14416  0.25215  1.0000
  C   C82       1.0  0.71031  0.22046  0.26321  1.0000
  C   C83       1.0  0.73566  0.24278  0.26077  1.0000
  C   C84       1.0  0.50379  0.14543  0.25152  1.0000
  C   C85       1.0  0.49857  0.16639  0.25148  1.0000
  C   C86       1.0  0.47258  0.22484  0.27149  1.0000
  C   C87       1.0  0.47500  0.20211  0.27151  1.0000
  H   H44       1.0  0.46009  0.22618  0.22661  1.0000
  H   H45       1.0  0.46408  0.18751  0.22666  1.0000
  H   H46       1.0  0.49867  0.17496  0.19175  1.0000
  H   H47       1.0  0.50722  0.13910  0.19216  1.0000
  H   H48       1.0  0.62847  0.13583  0.19349  1.0000
  H   H49       1.0  0.67310  0.17112  0.18880  1.0000
  H   H50       1.0  0.55474  0.99279  0.19240  1.0000
  H   H51       1.0  0.56387  0.95731  0.19183  1.0000
  H   H52       1.0  0.60413  0.90753  0.22618  1.0000
  H   H53       1.0  0.59914  0.94561  0.22627  1.0000
  H   H54       1.0  0.36670  0.91163  0.22110  1.0000
  H   H55       1.0  0.32446  0.87338  0.21717  1.0000
  H   H56       1.0  0.38898  0.96030  0.18932  1.0000
  H   H57       1.0  0.43344  0.99594  0.19403  1.0000
  H   H58       1.0  0.69633  0.21977  0.22042  1.0000
  H   H59       1.0  0.73899  0.25745  0.21654  1.0000
  N   N5        1.0  0.27549  0.52248  0.25137  1.0000
  C   C88       1.0  0.25277  0.52309  0.24347  1.0000
  H   H60       1.0  0.24730  0.52613  0.18181  1.0000
  C   C89       1.0  0.26053  0.48429  0.02659  1.0000
  H   H61       1.0  0.24991  0.49231  0.06265  1.0000
  H   H62       1.0  0.26959  0.47732  0.07518  1.0000
  C   C90       1.0  0.30256  0.52727  0.01532  1.0000
  H   H63       1.0  0.31183  0.52040  0.06345  1.0000
  H   H64       1.0  0.29513  0.53848  0.05094  1.0000
  N   N6        1.0  0.57612  0.85194  0.25403  1.0000
  C   C91       1.0  0.57549  0.82860  0.24618  1.0000
  H   H65       1.0  0.57243  0.82020  0.18454  1.0000
  C   C92       1.0  0.61447  0.87510  0.02909  1.0000
  H   H66       1.0  0.60650  0.85640  0.06518  1.0000
  H   H67       1.0  0.62142  0.89104  0.07766  1.0000
  C   C93       1.0  0.57144  0.87408  0.01800  1.0000
  H   H68       1.0  0.57830  0.89013  0.06612  1.0000
  H   H69       1.0  0.56026  0.85537  0.05364  1.0000
  N   N7        1.0  0.24686  0.82322  0.25130  1.0000
  C   C94       1.0  0.27020  0.84597  0.24392  1.0000
  C   C95       1.0  0.28220  0.86119  0.32101  1.0000
  H   H70       1.0  0.27868  0.85152  0.18242  1.0000
  C   C96       1.0  0.22318  0.83768  0.02619  1.0000
  H   H71       1.0  0.24183  0.84822  0.06263  1.0000
  H   H72       1.0  0.20716  0.82859  0.07443  1.0000
  C   C97       1.0  0.22403  0.79561  0.01481  1.0000
  H   H73       1.0  0.20789  0.78631  0.06261  1.0000
  H   H74       1.0  0.24266  0.80296  0.05081  1.0000
  N   N8        1.0  0.79222  0.60942  0.25137  1.0000
  C   C98       1.0  0.81464  0.60825  0.24347  1.0000
  H   H75       1.0  0.81992  0.60518  0.18178  1.0000
  C   C99       1.0  0.80788  0.64774  0.02611  1.0000
  H   H76       1.0  0.81872  0.63983  0.06200  1.0000
  H   H77       1.0  0.79895  0.65468  0.07484  1.0000
  C   C100      1.0  0.76593  0.60464  0.01638  1.0000
  H   H78       1.0  0.75682  0.61148  0.06478  1.0000
  H   H79       1.0  0.77358  0.59350  0.05181  1.0000
  N   N9        1.0  0.48917  0.28172  0.25403  1.0000
  C   C101      1.0  0.49034  0.30532  0.24612  1.0000
  H   H80       1.0  0.49340  0.31379  0.18443  1.0000
  C   C102      1.0  0.45101  0.25903  0.02889  1.0000
  H   H81       1.0  0.45900  0.27771  0.06478  1.0000
  H   H82       1.0  0.44402  0.24306  0.07763  1.0000
  C   C103      1.0  0.49403  0.26001  0.01913  1.0000
  H   H83       1.0  0.48714  0.24396  0.06752  1.0000
  H   H84       1.0  0.50521  0.27871  0.05455  1.0000
  N   N10       1.0  0.81691  0.30626  0.25127  1.0000
  C   C104      1.0  0.79331  0.28381  0.24373  1.0000
  C   C105      1.0  0.78108  0.26865  0.32081  1.0000
  H   H85       1.0  0.78480  0.27844  0.18212  1.0000
  C   C106      1.0  0.83992  0.29128  0.02657  1.0000
  H   H86       1.0  0.82127  0.28059  0.06267  1.0000
  H   H87       1.0  0.85593  0.30026  0.07510  1.0000
  C   C107      1.0  0.83891  0.33330  0.01571  1.0000
  H   H88       1.0  0.85501  0.34248  0.06391  1.0000
  H   H89       1.0  0.82024  0.32577  0.05128  1.0000
  C   C108      1.0  0.09035  0.61222  0.32926  1.0000
  C   C109      1.0  0.13551  0.53349  0.40839  1.0000
  C   C110      1.0  0.11443  0.53853  0.41066  1.0000
  C   C111      1.0  0.17090  0.50968  0.38388  1.0000
  C   C112      1.0  0.19364  0.50730  0.38213  1.0000
  C   C113      1.0  0.21403  0.52153  0.31969  1.0000
  C   C114      1.0  0.13129  0.69793  0.40911  1.0000
  C   C115      1.0  0.11055  0.67167  0.40932  1.0000
  C   C116      1.0  0.20863  0.76917  0.39047  1.0000
  C   C117      1.0  0.18635  0.74382  0.38992  1.0000
  C   C118      1.0  0.95154  0.58964  0.41058  1.0000
  C   C119      1.0  0.93063  0.59497  0.40834  1.0000
  C   C120      1.0  0.87358  0.62261  0.38212  1.0000
  C   C121      1.0  0.89600  0.61967  0.38386  1.0000
  C   C122      1.0  0.95512  0.45632  0.40925  1.0000
  C   C123      1.0  0.93415  0.43016  0.40913  1.0000
  C   C124      1.0  0.87865  0.38504  0.38990  1.0000
  C   C125      1.0  0.85604  0.35993  0.39048  1.0000
  H   H90       1.0  0.84120  0.35642  0.43395  1.0000
  H   H91       1.0  0.87945  0.39890  0.43314  1.0000
  H   H92       1.0  0.92757  0.42077  0.46913  1.0000
  H   H93       1.0  0.96295  0.46536  0.46891  1.0000
  H   H94       1.0  0.95757  0.58613  0.47070  1.0000
  H   H95       1.0  0.92182  0.59486  0.46725  1.0000
  H   H96       1.0  0.13354  0.59337  0.32870  1.0000
  H   H97       1.0  0.10283  0.66253  0.46899  1.0000
  H   H98       1.0  0.13783  0.70731  0.46907  1.0000
  H   H99       1.0  0.18592  0.73008  0.43331  1.0000
  H   H100      1.0  0.22359  0.77297  0.43415  1.0000
  H   H101      1.0  0.10849  0.54199  0.47076  1.0000
  H   H102      1.0  0.14455  0.53375  0.46724  1.0000
  H   H103      1.0  0.19501  0.49478  0.42679  1.0000
  H   H104      1.0  0.15652  0.49877  0.42942  1.0000
  H   H105      1.0  0.91055  0.63036  0.42928  1.0000
  H   H106      1.0  0.87259  0.63526  0.42669  1.0000
  C   C126      1.0  0.61300  0.63306  0.33419  1.0000
  C   C127      1.0  0.59925  0.64650  0.33550  1.0000
  C   C128      1.0  0.57233  0.62802  0.33484  1.0000
  N   N11       1.0  0.57079  0.60416  0.33376  1.0000
  C   C129      1.0  0.59480  0.60607  0.33311  1.0000
  C   C130      1.0  0.60133  0.58574  0.33131  1.0000
  C   C131      1.0  0.58283  0.55831  0.33165  1.0000
  N   N12       1.0  0.55627  0.54643  0.33332  1.0000
  C   C132      1.0  0.51751  0.50102  0.33453  1.0000
  C   C133      1.0  0.49693  0.50720  0.33466  1.0000
  N   N13       1.0  0.49848  0.53106  0.33378  1.0000
  C   C134      1.0  0.47447  0.52915  0.33326  1.0000
  C   C135      1.0  0.45626  0.50216  0.33418  1.0000
  C   C136      1.0  0.47002  0.48872  0.33530  1.0000
  C   C137      1.0  0.46793  0.54948  0.33171  1.0000
  C   C138      1.0  0.48643  0.57691  0.33211  1.0000
  N   N14       1.0  0.51299  0.58879  0.33370  1.0000
  C   C139      1.0  0.52443  0.61533  0.33383  1.0000
  C   C140      1.0  0.50384  0.62084  0.33236  1.0000
  C   C141      1.0  0.48043  0.59718  0.33137  1.0000
  C   C142      1.0  0.55176  0.63420  0.33483  1.0000
  C   C143      1.0  0.55888  0.66127  0.33360  1.0000
  C   C144      1.0  0.56887  0.71415  0.32918  1.0000
  C   C145      1.0  0.56515  0.70065  0.41121  1.0000
  C   C146      1.0  0.56016  0.67453  0.41350  1.0000
  C   C147      1.0  0.57207  0.73997  0.32636  1.0000
  C   C148      1.0  0.58894  0.75989  0.38660  1.0000
  C   C149      1.0  0.59132  0.78502  0.38484  1.0000
  C   C150      1.0  0.57706  0.79129  0.32246  1.0000
  C   C151      1.0  0.44078  0.54192  0.33073  1.0000
  C   C152      1.0  0.38754  0.53077  0.33011  1.0000
  C   C153      1.0  0.40062  0.53187  0.41108  1.0000
  C   C154      1.0  0.42690  0.53742  0.41157  1.0000
  C   C155      1.0  0.36153  0.52706  0.33043  1.0000
  C   C156      1.0  0.32937  0.53799  0.39155  1.0000
  C   C157      1.0  0.35473  0.54108  0.39133  1.0000
  C   C158      1.0  0.51036  0.47395  0.33324  1.0000
  C   C159      1.0  0.50900  0.46051  0.41319  1.0000
  C   C160      1.0  0.50368  0.43429  0.41096  1.0000
  C   C161      1.0  0.49973  0.42085  0.32897  1.0000
  C   C162      1.0  0.49603  0.39484  0.32627  1.0000
  C   C163      1.0  0.48989  0.34306  0.32240  1.0000
  C   C164      1.0  0.47605  0.34966  0.38483  1.0000
  C   C165      1.0  0.47899  0.37501  0.38654  1.0000
  C   C166      1.0  0.62848  0.59328  0.33032  1.0000
  C   C167      1.0  0.64243  0.59756  0.41118  1.0000
  C   C168      1.0  0.68146  0.60367  0.32987  1.0000
  C   C169      1.0  0.66858  0.60272  0.41078  1.0000
  C   C170      1.0  0.70724  0.60681  0.33031  1.0000
  C   C171      1.0  0.71368  0.59236  0.39124  1.0000
  C   C172      1.0  0.73878  0.59482  0.39148  1.0000
  H   H107      1.0  0.74234  0.58345  0.43503  1.0000
  H   H108      1.0  0.69988  0.57927  0.43476  1.0000
  H   H109      1.0  0.67805  0.60550  0.47067  1.0000
  H   H110      1.0  0.63345  0.59628  0.47093  1.0000
  H   H111      1.0  0.63309  0.64188  0.33390  1.0000
  H   H112      1.0  0.60781  0.66656  0.33625  1.0000
  H   H113      1.0  0.55449  0.58771  0.33242  1.0000
  H   H114      1.0  0.51477  0.54752  0.33268  1.0000
  H   H115      1.0  0.56398  0.49626  0.33143  1.0000
  H   H116      1.0  0.51254  0.46994  0.47330  1.0000
  H   H117      1.0  0.50380  0.42547  0.46988  1.0000
  H   H118      1.0  0.43617  0.49334  0.33397  1.0000
  H   H119      1.0  0.50526  0.63895  0.33188  1.0000
  H   H120      1.0  0.46217  0.59540  0.33033  1.0000
  H   H121      1.0  0.43598  0.53869  0.47133  1.0000
  H   H122      1.0  0.39118  0.52887  0.47095  1.0000
  H   H123      1.0  0.36840  0.55426  0.43496  1.0000
  H   H124      1.0  0.32551  0.54903  0.43515  1.0000
  H   H125      1.0  0.55670  0.66502  0.47360  1.0000
  H   H126      1.0  0.56494  0.70933  0.47008  1.0000
  H   H127      1.0  0.60386  0.79883  0.42944  1.0000
  H   H128      1.0  0.59988  0.75635  0.43208  1.0000
  H   H129      1.0  0.46830  0.37878  0.43197  1.0000
  H   H130      1.0  0.46339  0.33592  0.42939  1.0000
  C   C173      1.0  0.46560  0.07873  0.33627  1.0000
  C   C174      1.0  0.45216  0.05153  0.33739  1.0000
  C   C175      1.0  0.47064  0.04310  0.33676  1.0000
  N   N15       1.0  0.49450  0.06542  0.33586  1.0000
  C   C176      1.0  0.49259  0.08753  0.33530  1.0000
  C   C177      1.0  0.51291  0.11438  0.33360  1.0000
  C   C178      1.0  0.54035  0.12332  0.33382  1.0000
  N   N16       1.0  0.55223  0.10864  0.33539  1.0000
  C   C179      1.0  0.57877  0.12375  0.33528  1.0000
  C   C180      1.0  0.58428  0.14985  0.33365  1.0000
  C   C181      1.0  0.56062  0.14959  0.33287  1.0000
  C   C182      1.0  0.59764  0.11529  0.33620  1.0000
  C   C183      1.0  0.59146  0.08854  0.33653  1.0000
  N   N17       1.0  0.56760  0.06622  0.33584  1.0000
  C   C184      1.0  0.56952  0.04412  0.33539  1.0000
  C   C185      1.0  0.59651  0.05292  0.33630  1.0000
  C   C186      1.0  0.60995  0.08012  0.33719  1.0000
  C   C187      1.0  0.54920  0.01727  0.33389  1.0000
  C   C188      1.0  0.52176  0.00832  0.33420  1.0000
  N   N18       1.0  0.50988  0.02301  0.33574  1.0000
  C   C189      1.0  0.48334  0.00790  0.33572  1.0000
  C   C190      1.0  0.47783  0.98180  0.33418  1.0000
  C   C191      1.0  0.50150  0.98206  0.33336  1.0000
  C   C192      1.0  0.46447  0.01635  0.33663  1.0000
  C   C193      1.0  0.43740  0.99641  0.33491  1.0000
  C   C194      1.0  0.38452  0.95353  0.32941  1.0000
  C   C195      1.0  0.39791  0.96301  0.41169  1.0000
  C   C196      1.0  0.42403  0.98412  0.41452  1.0000
  C   C197      1.0  0.35870  0.93093  0.32602  1.0000
  C   C198      1.0  0.33870  0.92765  0.38605  1.0000
  C   C199      1.0  0.31358  0.90491  0.38372  1.0000
  C   C200      1.0  0.30739  0.88462  0.32098  1.0000
  C   C201      1.0  0.55676  0.99767  0.33296  1.0000
  C   C202      1.0  0.56791  0.95559  0.33247  1.0000
  C   C203      1.0  0.56683  0.96743  0.41340  1.0000
  C   C204      1.0  0.56128  0.98816  0.41383  1.0000
  C   C205      1.0  0.57161  0.93328  0.33286  1.0000
  C   C206      1.0  0.57793  0.88795  0.33353  1.0000
  C   C207      1.0  0.56070  0.89009  0.39419  1.0000
  C   C208      1.0  0.55762  0.91237  0.39391  1.0000
  C   C209      1.0  0.62471  0.13522  0.33438  1.0000
  C   C210      1.0  0.63827  0.14729  0.41399  1.0000
  C   C211      1.0  0.66449  0.16818  0.41118  1.0000
  C   C212      1.0  0.67782  0.17766  0.32891  1.0000
  C   C213      1.0  0.70384  0.19995  0.32560  1.0000
  C   C214      1.0  0.75564  0.24556  0.32065  1.0000
  C   C215      1.0  0.74910  0.22511  0.38351  1.0000
  C   C216      1.0  0.72373  0.20270  0.38577  1.0000
  C   C217      1.0  0.50537  0.13399  0.33271  1.0000
  C   C218      1.0  0.50115  0.14353  0.41362  1.0000
  C   C219      1.0  0.49495  0.17657  0.33242  1.0000
  C   C220      1.0  0.49596  0.16449  0.41330  1.0000
  C   C221      1.0  0.49181  0.19921  0.33292  1.0000
  C   C222      1.0  0.50630  0.21999  0.39376  1.0000
  C   C223      1.0  0.50384  0.24263  0.39400  1.0000
  C   C224      1.0  0.48672  0.24526  0.33359  1.0000
  H   H131      1.0  0.51522  0.25748  0.43750  1.0000
  H   H132      1.0  0.51941  0.21920  0.43716  1.0000
  H   H133      1.0  0.49325  0.17110  0.47324  1.0000
  H   H134      1.0  0.50247  0.13572  0.47334  1.0000
  H   H135      1.0  0.45677  0.08999  0.33601  1.0000
  H   H136      1.0  0.43210  0.04003  0.33804  1.0000
  H   H137      1.0  0.51095  0.06558  0.33468  1.0000
  H   H138      1.0  0.55115  0.06606  0.33458  1.0000
  H   H139      1.0  0.55883  0.16607  0.33177  1.0000
  H   H140      1.0  0.60239  0.16653  0.33300  1.0000
  H   H141      1.0  0.62893  0.14139  0.47429  1.0000
  H   H142      1.0  0.67340  0.17710  0.46987  1.0000
  H   H143      1.0  0.63002  0.09161  0.33774  1.0000
  H   H144      1.0  0.60534  0.04166  0.33606  1.0000
  H   H145      1.0  0.45973  0.96512  0.33360  1.0000
  H   H146      1.0  0.50328  0.96559  0.33229  1.0000
  H   H147      1.0  0.56003  0.99587  0.47356  1.0000
  H   H148      1.0  0.56984  0.96089  0.47328  1.0000
  H   H149      1.0  0.54444  0.91279  0.43749  1.0000
  H   H150      1.0  0.54964  0.87511  0.43779  1.0000
  H   H151      1.0  0.43346  0.98997  0.47479  1.0000
  H   H152      1.0  0.38915  0.95392  0.47036  1.0000
  H   H153      1.0  0.29970  0.90348  0.42817  1.0000
  H   H154      1.0  0.34218  0.94197  0.43176  1.0000
  H   H155      1.0  0.72000  0.18825  0.43155  1.0000
  H   H156      1.0  0.76287  0.22618  0.42809  1.0000
  C   C225      1.0  0.28458  0.51839  0.32992  1.0000
  C   C226      1.0  0.23745  0.51975  0.32027  1.0000
  N   N19       1.0  0.24645  0.51516  0.39837  1.0000
  C   C227      1.0  0.26915  0.51433  0.40725  1.0000
  N   N20       1.0  0.27611  0.50866  0.48479  1.0000
  C   C228      1.0  0.27068  0.51185  0.56492  1.0000
  N   N21       1.0  0.28126  0.50422  0.63379  1.0000
  H   H157      1.0  0.25985  0.52022  0.57762  1.0000
  H   H158      1.0  0.24658  0.46703  0.65467  1.0000
  H   H159      1.0  0.31805  0.54021  0.63544  1.0000
  C   C229      1.0  0.58023  0.86497  0.33255  1.0000
  C   C230      1.0  0.57885  0.81649  0.32299  1.0000
  N   N22       1.0  0.58347  0.82994  0.40107  1.0000
  C   C231      1.0  0.58431  0.85346  0.40989  1.0000
  N   N23       1.0  0.58999  0.86595  0.48741  1.0000
  C   C232      1.0  0.58685  0.85720  0.56756  1.0000
  N   N24       1.0  0.59448  0.87528  0.63636  1.0000
  H   H160      1.0  0.57853  0.83798  0.58033  1.0000
  H   H161      1.0  0.63172  0.87785  0.65709  1.0000
  H   H162      1.0  0.55847  0.87603  0.63816  1.0000
  C   C233      1.0  0.23374  0.81404  0.32960  1.0000
  N   N25       1.0  0.26865  0.85209  0.39885  1.0000
  C   C234      1.0  0.24513  0.82937  0.40721  1.0000
  N   N26       1.0  0.23252  0.82230  0.48451  1.0000
  C   C235      1.0  0.24117  0.82760  0.56480  1.0000
  N   N27       1.0  0.22299  0.81698  0.63331  1.0000
  H   H163      1.0  0.26038  0.83840  0.57789  1.0000
  H   H164      1.0  0.22058  0.85169  0.65424  1.0000
  H   H165      1.0  0.22210  0.78015  0.63484  1.0000
  C   C236      1.0  0.78342  0.61360  0.32995  1.0000
  C   C237      1.0  0.82992  0.61110  0.32029  1.0000
  N   N28       1.0  0.82121  0.61579  0.39843  1.0000
  C   C238      1.0  0.79883  0.61717  0.40731  1.0000
  N   N29       1.0  0.79211  0.62283  0.48499  1.0000
  C   C239      1.0  0.79779  0.61964  0.56506  1.0000
  N   N30       1.0  0.78742  0.62726  0.63405  1.0000
  H   H166      1.0  0.80869  0.61130  0.57765  1.0000
  H   H167      1.0  0.82207  0.66455  0.65364  1.0000
  H   H168      1.0  0.75071  0.59120  0.63704  1.0000
  C   C240      1.0  0.48500  0.26859  0.33264  1.0000
  C   C241      1.0  0.48752  0.31761  0.32296  1.0000
  N   N31       1.0  0.48287  0.30408  0.40114  1.0000
  C   C242      1.0  0.48149  0.28029  0.41004  1.0000
  N   N32       1.0  0.47585  0.26778  0.48773  1.0000
  C   C243      1.0  0.47910  0.27650  0.56777  1.0000
  N   N33       1.0  0.47144  0.25839  0.63682  1.0000
  H   H169      1.0  0.48749  0.29572  0.58032  1.0000
  H   H170      1.0  0.43423  0.25588  0.65644  1.0000
  H   H171      1.0  0.50743  0.25760  0.63977  1.0000
  C   C244      1.0  0.83009  0.31519  0.32974  1.0000
  N   N34       1.0  0.79467  0.27749  0.39883  1.0000
  C   C245      1.0  0.81845  0.29991  0.40737  1.0000
  N   N35       1.0  0.83102  0.30673  0.48495  1.0000
  C   C246      1.0  0.82235  0.30121  0.56508  1.0000
  N   N36       1.0  0.84051  0.31167  0.63395  1.0000
  H   H172      1.0  0.80314  0.29041  0.57780  1.0000
  H   H173      1.0  0.84303  0.27696  0.65449  1.0000
  H   H174      1.0  0.84128  0.34844  0.63597  1.0000
