data_image0
_chemical_formula_structural       C2NCNH2C2NCNH2C2NCNH2C2NCNH2NCHNCHNCHNCHNCHNCHNCHNCHC2NCNH2C2NCNH2C2NCNH2C2NCNH2C2NCNH2C2NCNH2C2NCNH2C2NCNH2NCHNCHNCHNCHNCHNCHNCHNCHNCHNCHCNCNCNCNCNCNCNCNCNCNCNCNCNCNCNCNCNCNCNCNCNCNCNCNCNCNCNCNCNCNCNCNCNCNCNCNCNCNCNCNCNCNCNCNCNCNCNCNCNCNCNCNCNCNCNCNCNCNCNCN2CHNCHNCHNCHC2NCNH2C2NCNH2C2NCNH2C2NCNH2C2NCNH2C2NCNH2C2NCNH2C2NCNH2NCHNCHNCHNCHNCHNCHNCHNCHC2NCNH2C2NCNH2C2NCNH2C2NCNH2C2NCNH2C2NCNH2C2NCNH2C2NCNH2C2NCNH2C2NCNH2
_chemical_formula_sum              "C180 N150 H90"
_cell_length_a       43.3922
_cell_length_b       43.3922
_cell_length_c       14.8462
_cell_angle_alpha    90
_cell_angle_beta     90
_cell_angle_gamma    90

_space_group_name_H-M_alt    "P 1"
_space_group_IT_number       1

loop_
  _space_group_symop_operation_xyz
  'x, y, z'

loop_
  _atom_site_type_symbol
  _atom_site_label
  _atom_site_symmetry_multiplicity
  _atom_site_fract_x
  _atom_site_fract_y
  _atom_site_fract_z
  _atom_site_occupancy
  C   C1        1.0  0.31328  0.03514  0.34596  1.0000
  C   C2        1.0  0.37454  0.05595  0.34494  1.0000
  N   N1        1.0  0.36721  0.02551  0.34269  1.0000
  C   C3        1.0  0.33813  0.01371  0.34293  1.0000
  N   N2        1.0  0.33610  0.98254  0.34221  1.0000
  H   H1        1.0  0.31675  0.97179  0.34847  1.0000
  H   H2        1.0  0.35470  0.96997  0.34217  1.0000
  C   C4        1.0  0.69848  0.96808  0.32915  1.0000
  C   C5        1.0  0.63539  0.95531  0.33970  1.0000
  N   N3        1.0  0.65619  0.93349  0.31580  1.0000
  C   C6        1.0  0.68705  0.93811  0.30825  1.0000
  N   N4        1.0  0.70367  0.91373  0.27808  1.0000
  H   H3        1.0  0.72501  0.91573  0.25993  1.0000
  H   H4        1.0  0.69344  0.89445  0.26281  1.0000
  C   C7        1.0  0.97429  0.31251  0.34396  1.0000
  C   C8        1.0  0.95343  0.37380  0.34411  1.0000
  N   N5        1.0  0.98385  0.36645  0.34017  1.0000
  C   C9        1.0  0.99567  0.33738  0.33969  1.0000
  N   N6        1.0  0.02683  0.33542  0.33690  1.0000
  H   H5        1.0  0.03769  0.31608  0.34116  1.0000
  H   H6        1.0  0.03937  0.35404  0.33534  1.0000
  C   C10       1.0  0.04127  0.69763  0.32878  1.0000
  C   C11       1.0  0.05400  0.63458  0.33889  1.0000
  N   N7        1.0  0.07579  0.65538  0.31472  1.0000
  C   C12       1.0  0.07118  0.68622  0.30725  1.0000
  N   N8        1.0  0.09552  0.70286  0.27688  1.0000
  H   H7        1.0  0.09338  0.72416  0.25846  1.0000
  H   H8        1.0  0.11473  0.69262  0.26096  1.0000
  N   N9        1.0  0.18549  0.56617  0.33616  1.0000
  C   C13       1.0  0.15627  0.57685  0.33827  1.0000
  H   H9        1.0  0.15261  0.60010  0.33962  1.0000
  N   N10       1.0  0.82095  0.44373  0.35214  1.0000
  C   C14       1.0  0.84991  0.43232  0.35251  1.0000
  H   H10       1.0  0.85312  0.40900  0.35164  1.0000
  N   N11       1.0  0.56548  0.82414  0.33624  1.0000
  C   C15       1.0  0.57658  0.85321  0.33834  1.0000
  H   H11       1.0  0.59988  0.85657  0.33964  1.0000
  N   N12       1.0  0.44305  0.18870  0.35211  1.0000
  C   C16       1.0  0.43205  0.15958  0.35234  1.0000
  H   H12       1.0  0.40877  0.15608  0.35172  1.0000
  N   N13       1.0  0.17520  0.11516  0.33733  1.0000
  C   C17       1.0  0.18474  0.08519  0.33306  1.0000
  H   H13       1.0  0.17194  0.06944  0.29818  1.0000
  N   N14       1.0  0.83605  0.89454  0.34110  1.0000
  C   C18       1.0  0.82687  0.92464  0.33740  1.0000
  H   H14       1.0  0.83822  0.93968  0.29616  1.0000
  N   N15       1.0  0.89396  0.17459  0.33697  1.0000
  C   C19       1.0  0.92398  0.18399  0.33183  1.0000
  H   H15       1.0  0.93950  0.17118  0.29613  1.0000
  N   N16       1.0  0.11458  0.83538  0.34135  1.0000
  C   C20       1.0  0.08455  0.82602  0.33829  1.0000
  H   H16       1.0  0.06925  0.83751  0.29820  1.0000
  C   C21       1.0  0.31685  0.64071  0.32515  1.0000
  C   C22       1.0  0.29326  0.57974  0.33078  1.0000
  N   N17       1.0  0.27813  0.60374  0.29174  1.0000
  C   C23       1.0  0.28805  0.63331  0.28471  1.0000
  N   N18       1.0  0.26951  0.65273  0.23785  1.0000
  H   H17       1.0  0.27656  0.67286  0.21873  1.0000
  H   H18       1.0  0.25078  0.64497  0.20971  1.0000
  C   C24       1.0  0.69142  0.37020  0.33244  1.0000
  C   C25       1.0  0.71402  0.43148  0.33940  1.0000
  N   N19       1.0  0.72957  0.40778  0.30013  1.0000
  C   C26       1.0  0.72014  0.37807  0.29242  1.0000
  N   N20       1.0  0.73909  0.35904  0.24567  1.0000
  H   H19       1.0  0.73276  0.33857  0.22749  1.0000
  H   H20       1.0  0.75797  0.36697  0.21885  1.0000
  C   C27       1.0  0.63955  0.69337  0.32808  1.0000
  C   C28       1.0  0.57847  0.71675  0.33168  1.0000
  N   N21       1.0  0.60258  0.73193  0.29333  1.0000
  C   C29       1.0  0.63222  0.72212  0.28730  1.0000
  N   N22       1.0  0.65172  0.74073  0.24103  1.0000
  H   H21       1.0  0.67219  0.73410  0.22378  1.0000
  H   H22       1.0  0.64416  0.75965  0.21349  1.0000
  C   C30       1.0  0.36898  0.31876  0.33004  1.0000
  C   C31       1.0  0.43014  0.29595  0.33919  1.0000
  N   N23       1.0  0.40656  0.28045  0.29921  1.0000
  C   C32       1.0  0.37692  0.28998  0.29045  1.0000
  N   N24       1.0  0.35803  0.27106  0.24312  1.0000
  H   H23       1.0  0.33775  0.27760  0.22371  1.0000
  H   H24       1.0  0.36604  0.25220  0.21637  1.0000
  C   C33       1.0  0.22812  0.96407  0.31994  1.0000
  C   C34       1.0  0.21218  0.90132  0.33943  1.0000
  N   N25       1.0  0.23714  0.91046  0.29136  1.0000
  C   C35       1.0  0.24582  0.94030  0.27794  1.0000
  N   N26       1.0  0.27028  0.94478  0.22258  1.0000
  H   H25       1.0  0.27521  0.96507  0.19929  1.0000
  H   H26       1.0  0.28009  0.92727  0.19327  1.0000
  C   C36       1.0  0.77834  0.04571  0.32945  1.0000
  C   C37       1.0  0.79540  0.10865  0.34541  1.0000
  N   N27       1.0  0.76833  0.09961  0.30821  1.0000
  C   C38       1.0  0.75881  0.06990  0.29702  1.0000
  N   N28       1.0  0.73179  0.06667  0.25196  1.0000
  H   H27       1.0  0.72508  0.04703  0.22819  1.0000
  H   H28       1.0  0.72080  0.08476  0.23011  1.0000
  C   C39       1.0  0.04559  0.22745  0.31823  1.0000
  C   C40       1.0  0.10860  0.21219  0.33688  1.0000
  N   N29       1.0  0.09905  0.23681  0.28795  1.0000
  C   C41       1.0  0.06909  0.24513  0.27488  1.0000
  N   N30       1.0  0.06424  0.26919  0.21837  1.0000
  H   H29       1.0  0.04382  0.27420  0.19620  1.0000
  H   H30       1.0  0.08155  0.27933  0.18900  1.0000
  C   C42       1.0  0.96398  0.77777  0.33065  1.0000
  C   C43       1.0  0.90134  0.79540  0.34780  1.0000
  N   N31       1.0  0.90998  0.76831  0.30992  1.0000
  C   C44       1.0  0.93958  0.75853  0.29810  1.0000
  N   N32       1.0  0.94254  0.73154  0.25271  1.0000
  H   H31       1.0  0.96211  0.72484  0.22852  1.0000
  H   H32       1.0  0.92434  0.72080  0.23061  1.0000
  N   N33       1.0  0.30581  0.45661  0.33541  1.0000
  C   C45       1.0  0.31525  0.42670  0.33039  1.0000
  H   H33       1.0  0.33538  0.42168  0.29791  1.0000
  N   N34       1.0  0.70208  0.55487  0.33979  1.0000
  C   C46       1.0  0.69284  0.58483  0.33311  1.0000
  H   H34       1.0  0.67331  0.58989  0.29767  1.0000
  N   N35       1.0  0.45524  0.70411  0.33296  1.0000
  C   C47       1.0  0.42538  0.69447  0.32797  1.0000
  H   H35       1.0  0.42048  0.67432  0.29541  1.0000
  N   N36       1.0  0.55348  0.30786  0.34170  1.0000
  C   C48       1.0  0.58347  0.31688  0.33489  1.0000
  H   H36       1.0  0.58866  0.33638  0.29943  1.0000
  N   N37       1.0  0.20847  0.27640  0.35829  1.0000
  C   C49       1.0  0.22837  0.30078  0.36227  1.0000
  H   H37       1.0  0.21998  0.32228  0.37574  1.0000
  N   N38       1.0  0.80022  0.73425  0.36642  1.0000
  C   C50       1.0  0.78005  0.71008  0.36900  1.0000
  H   H38       1.0  0.78821  0.68840  0.38123  1.0000
  N   N39       1.0  0.73299  0.20940  0.36464  1.0000
  C   C51       1.0  0.70878  0.22951  0.36860  1.0000
  H   H39       1.0  0.68725  0.22134  0.38290  1.0000
  N   N40       1.0  0.27513  0.80107  0.36006  1.0000
  C   C52       1.0  0.29948  0.78112  0.36258  1.0000
  H   H40       1.0  0.32112  0.78949  0.37416  1.0000
  N   N41       1.0  0.50013  0.97720  0.34336  1.0000
  C   C53       1.0  0.47613  0.99698  0.33837  1.0000
  H   H41       1.0  0.45514  0.98905  0.31745  1.0000
  N   N42       1.0  0.03261  0.49929  0.34304  1.0000
  C   C54       1.0  0.01281  0.47528  0.33821  1.0000
  H   H42       1.0  0.02065  0.45437  0.31638  1.0000
  C   C55       1.0  0.23009  0.04918  0.35590  1.0000
  N   N43       1.0  0.21851  0.02019  0.34127  1.0000
  C   C56       1.0  0.23776  0.99541  0.32791  1.0000
  N   N44       1.0  0.26863  0.00062  0.33178  1.0000
  C   C57       1.0  0.28123  0.02869  0.34541  1.0000
  N   N45       1.0  0.26117  0.05216  0.35690  1.0000
  C   C58       1.0  0.78164  0.96027  0.36259  1.0000
  N   N46       1.0  0.79114  0.99023  0.35170  1.0000
  C   C59       1.0  0.77042  0.01362  0.33456  1.0000
  N   N47       1.0  0.74014  0.00564  0.32877  1.0000
  C   C60       1.0  0.72991  0.97625  0.33509  1.0000
  N   N48       1.0  0.75114  0.95464  0.35385  1.0000
  C   C61       1.0  0.96034  0.22923  0.35412  1.0000
  N   N49       1.0  0.98939  0.21769  0.33983  1.0000
  C   C62       1.0  0.01417  0.23696  0.32661  1.0000
  N   N50       1.0  0.00888  0.26783  0.33014  1.0000
  C   C63       1.0  0.98078  0.28043  0.34333  1.0000
  N   N51       1.0  0.95735  0.26033  0.35484  1.0000
  C   C64       1.0  0.04929  0.78065  0.36349  1.0000
  N   N52       1.0  0.01939  0.79025  0.35273  1.0000
  C   C65       1.0  0.99598  0.76963  0.33522  1.0000
  N   N53       1.0  0.00383  0.73933  0.32894  1.0000
  C   C66       1.0  0.03320  0.72905  0.33519  1.0000
  N   N54       1.0  0.05488  0.75016  0.35434  1.0000
  C   C67       1.0  0.27693  0.55125  0.33861  1.0000
  N   N55       1.0  0.28851  0.52233  0.35488  1.0000
  C   C68       1.0  0.26938  0.49722  0.36375  1.0000
  N   N56       1.0  0.23860  0.50210  0.35404  1.0000
  C   C69       1.0  0.22589  0.52999  0.33809  1.0000
  N   N57       1.0  0.24585  0.55380  0.33148  1.0000
  C   C70       1.0  0.73010  0.46001  0.34915  1.0000
  N   N58       1.0  0.71855  0.48908  0.36337  1.0000
  C   C71       1.0  0.73778  0.51407  0.37383  1.0000
  N   N59       1.0  0.76865  0.50890  0.36786  1.0000
  C   C72       1.0  0.78130  0.48080  0.35453  1.0000
  N   N60       1.0  0.76120  0.45724  0.34590  1.0000
  C   C73       1.0  0.54992  0.73301  0.33864  1.0000
  N   N61       1.0  0.52088  0.72150  0.35379  1.0000
  C   C74       1.0  0.49576  0.74068  0.36179  1.0000
  N   N62       1.0  0.50079  0.77149  0.35269  1.0000
  C   C75       1.0  0.52881  0.78414  0.33804  1.0000
  N   N63       1.0  0.55254  0.76408  0.33198  1.0000
  C   C76       1.0  0.45862  0.27984  0.34962  1.0000
  N   N64       1.0  0.48760  0.29150  0.36466  1.0000
  C   C77       1.0  0.51260  0.27234  0.37564  1.0000
  N   N65       1.0  0.50758  0.24148  0.36906  1.0000
  C   C78       1.0  0.47961  0.22874  0.35478  1.0000
  N   N66       1.0  0.45595  0.24873  0.34582  1.0000
  C   C79       1.0  0.18084  0.16943  0.36778  1.0000
  N   N67       1.0  0.15051  0.17652  0.35902  1.0000
  C   C80       1.0  0.14068  0.20597  0.34514  1.0000
  N   N68       1.0  0.16246  0.22877  0.33823  1.0000
  C   C81       1.0  0.19337  0.22295  0.34491  1.0000
  N   N69       1.0  0.20126  0.19307  0.36001  1.0000
  C   C82       1.0  0.83041  0.84060  0.37664  1.0000
  N   N70       1.0  0.86051  0.83258  0.36802  1.0000
  C   C83       1.0  0.86945  0.80280  0.35504  1.0000
  N   N71       1.0  0.84694  0.78071  0.34877  1.0000
  C   C84       1.0  0.81620  0.78745  0.35506  1.0000
  N   N72       1.0  0.80919  0.81761  0.36956  1.0000
  C   C85       1.0  0.83975  0.18049  0.36972  1.0000
  N   N73       1.0  0.83215  0.15019  0.36288  1.0000
  C   C86       1.0  0.80243  0.14068  0.35167  1.0000
  N   N74       1.0  0.77994  0.16282  0.34549  1.0000
  C   C87       1.0  0.78621  0.19368  0.35006  1.0000
  N   N75       1.0  0.81632  0.20118  0.36262  1.0000
  C   C88       1.0  0.16859  0.82995  0.37453  1.0000
  N   N76       1.0  0.17607  0.86010  0.36409  1.0000
  C   C89       1.0  0.20557  0.86938  0.34855  1.0000
  N   N77       1.0  0.22798  0.84722  0.34157  1.0000
  C   C90       1.0  0.22173  0.81644  0.34987  1.0000
  N   N78       1.0  0.19181  0.80903  0.36679  1.0000
  C   C91       1.0  0.32826  0.67145  0.33495  1.0000
  N   N79       1.0  0.35887  0.67793  0.34271  1.0000
  C   C92       1.0  0.36946  0.70731  0.35417  1.0000
  N   N80       1.0  0.34827  0.73068  0.35813  1.0000
  C   C93       1.0  0.31732  0.72555  0.35099  1.0000
  N   N81       1.0  0.30843  0.69570  0.34023  1.0000
  C   C94       1.0  0.68032  0.33935  0.34161  1.0000
  N   N82       1.0  0.64976  0.33298  0.35053  1.0000
  C   C95       1.0  0.63911  0.30367  0.36206  1.0000
  N   N83       1.0  0.66017  0.28016  0.36503  1.0000
  C   C96       1.0  0.69110  0.28516  0.35646  1.0000
  N   N84       1.0  0.70010  0.31501  0.34562  1.0000
  C   C97       1.0  0.67026  0.68197  0.33883  1.0000
  N   N85       1.0  0.67654  0.65136  0.34748  1.0000
  C   C98       1.0  0.70580  0.64062  0.36011  1.0000
  N   N86       1.0  0.72929  0.66168  0.36439  1.0000
  C   C99       1.0  0.72438  0.69264  0.35624  1.0000
  N   N87       1.0  0.69461  0.70169  0.34434  1.0000
  C   C100      1.0  0.33810  0.32987  0.33823  1.0000
  N   N88       1.0  0.33153  0.36042  0.34619  1.0000
  C   C101      1.0  0.30211  0.37094  0.35649  1.0000
  N   N89       1.0  0.27872  0.34974  0.35909  1.0000
  C   C102      1.0  0.28393  0.31882  0.35152  1.0000
  N   N90       1.0  0.31386  0.30997  0.34195  1.0000
  C   C103      1.0  0.44432  0.10380  0.35329  1.0000
  N   N91       1.0  0.46603  0.08133  0.35617  1.0000
  C   C104      1.0  0.45835  0.05101  0.35397  1.0000
  N   N92       1.0  0.42812  0.04332  0.34935  1.0000
  C   C105      1.0  0.40569  0.06506  0.34694  1.0000
  N   N93       1.0  0.41423  0.09519  0.34901  1.0000
  C   C106      1.0  0.56475  0.90901  0.34663  1.0000
  N   N94       1.0  0.54352  0.93174  0.35725  1.0000
  C   C107      1.0  0.55172  0.96193  0.36344  1.0000
  N   N95       1.0  0.58202  0.96898  0.35617  1.0000
  C   C108      1.0  0.60403  0.94716  0.34577  1.0000
  N   N96       1.0  0.59492  0.91725  0.34108  1.0000
  C   C109      1.0  0.90586  0.44387  0.35372  1.0000
  N   N97       1.0  0.92849  0.46541  0.35678  1.0000
  C   C110      1.0  0.95875  0.45757  0.35434  1.0000
  N   N98       1.0  0.96625  0.42730  0.34921  1.0000
  C   C111      1.0  0.94438  0.40499  0.34665  1.0000
  N   N99       1.0  0.91428  0.41371  0.34900  1.0000
  C   C112      1.0  0.10065  0.56428  0.34634  1.0000
  N   N100      1.0  0.07809  0.54288  0.35728  1.0000
  C   C113      1.0  0.04784  0.55090  0.36353  1.0000
  N   N101      1.0  0.04056  0.58115  0.35590  1.0000
  C   C114      1.0  0.06224  0.60327  0.34512  1.0000
  N   N102      1.0  0.09218  0.59436  0.34048  1.0000
  N   N103      1.0  0.32088  0.06562  0.34834  1.0000
  C   C115      1.0  0.34987  0.07692  0.34805  1.0000
  H   H43       1.0  0.35317  0.10022  0.35055  1.0000
  N   N104      1.0  0.67760  0.99014  0.35173  1.0000
  C   C116      1.0  0.64683  0.98521  0.35631  1.0000
  H   H44       1.0  0.63272  0.00295  0.37487  1.0000
  N   N105      1.0  0.94382  0.32012  0.34797  1.0000
  C   C117      1.0  0.93250  0.34912  0.34824  1.0000
  H   H45       1.0  0.90922  0.35242  0.35207  1.0000
  N   N106      1.0  0.01920  0.67677  0.35153  1.0000
  C   C118      1.0  0.02413  0.64599  0.35595  1.0000
  H   H46       1.0  0.00641  0.63187  0.37457  1.0000
  C   C119      1.0  0.19368  0.53586  0.33504  1.0000
  C   C120      1.0  0.13193  0.55543  0.34141  1.0000
  N   N107      1.0  0.13982  0.52513  0.33960  1.0000
  C   C121      1.0  0.16918  0.51397  0.33576  1.0000
  N   N108      1.0  0.17197  0.48289  0.33142  1.0000
  H   H47       1.0  0.19148  0.47292  0.31984  1.0000
  H   H48       1.0  0.15366  0.46994  0.32943  1.0000
  C   C122      1.0  0.81339  0.47424  0.35294  1.0000
  C   C123      1.0  0.87470  0.45319  0.35448  1.0000
  N   N109      1.0  0.86742  0.48367  0.35511  1.0000
  C   C124      1.0  0.83835  0.49555  0.35433  1.0000
  N   N110      1.0  0.83634  0.52672  0.35302  1.0000
  H   H49       1.0  0.81696  0.53743  0.34675  1.0000
  H   H50       1.0  0.85493  0.53929  0.35253  1.0000
  C   C125      1.0  0.53507  0.81631  0.33524  1.0000
  C   C126      1.0  0.55550  0.87783  0.34165  1.0000
  N   N111      1.0  0.52508  0.87030  0.34007  1.0000
  C   C127      1.0  0.51353  0.84110  0.33630  1.0000
  N   N112      1.0  0.48241  0.83871  0.33246  1.0000
  H   H51       1.0  0.47208  0.81928  0.32266  1.0000
  H   H52       1.0  0.46963  0.85716  0.33168  1.0000
  C   C128      1.0  0.47346  0.19660  0.35267  1.0000
  C   C129      1.0  0.45324  0.13506  0.35399  1.0000
  N   N113      1.0  0.48362  0.14270  0.35430  1.0000
  C   C130      1.0  0.49512  0.17192  0.35352  1.0000
  N   N114      1.0  0.52626  0.17431  0.35175  1.0000
  H   H53       1.0  0.53671  0.19381  0.34487  1.0000
  H   H54       1.0  0.53905  0.15587  0.35071  1.0000
  C   C131      1.0  0.19129  0.13848  0.37779  1.0000
  C   C132      1.0  0.21383  0.07739  0.36857  1.0000
  N   N115      1.0  0.22921  0.10072  0.41023  1.0000
  C   C133      1.0  0.21969  0.13035  0.41919  1.0000
  N   N116      1.0  0.23823  0.14929  0.46760  1.0000
  H   H55       1.0  0.23141  0.16954  0.48656  1.0000
  H   H56       1.0  0.25673  0.14118  0.49615  1.0000
  C   C134      1.0  0.82101  0.87183  0.38757  1.0000
  C   C135      1.0  0.79907  0.93310  0.37987  1.0000
  N   N117      1.0  0.78475  0.91038  0.42731  1.0000
  C   C136      1.0  0.79424  0.88073  0.43609  1.0000
  N   N118      1.0  0.77706  0.86227  0.48996  1.0000
  H   H57       1.0  0.78373  0.84168  0.50620  1.0000
  H   H58       1.0  0.75930  0.87054  0.52192  1.0000
  C   C137      1.0  0.87086  0.19074  0.37838  1.0000
  C   C138      1.0  0.93207  0.21305  0.36714  1.0000
  N   N119      1.0  0.90898  0.22842  0.40992  1.0000
  C   C139      1.0  0.87935  0.21902  0.41984  1.0000
  N   N120      1.0  0.86078  0.23757  0.46945  1.0000
  H   H59       1.0  0.84040  0.23112  0.48828  1.0000
  H   H60       1.0  0.86897  0.25620  0.49707  1.0000
  C   C140      1.0  0.13752  0.82032  0.38670  1.0000
  C   C141      1.0  0.07637  0.79816  0.38074  1.0000
  N   N121      1.0  0.09936  0.78375  0.42688  1.0000
  C   C142      1.0  0.12899  0.79335  0.43481  1.0000
  N   N122      1.0  0.14779  0.77609  0.48745  1.0000
  H   H61       1.0  0.16836  0.78293  0.50333  1.0000
  H   H62       1.0  0.13973  0.75826  0.51953  1.0000
  N   N123      1.0  0.33272  0.61671  0.36296  1.0000
  C   C143      1.0  0.32264  0.58686  0.36565  1.0000
  H   H63       1.0  0.33551  0.57053  0.39792  1.0000
  N   N124      1.0  0.67510  0.39391  0.37024  1.0000
  C   C144      1.0  0.68463  0.42392  0.37336  1.0000
  H   H64       1.0  0.67157  0.43994  0.40626  1.0000
  N   N125      1.0  0.61544  0.67743  0.36507  1.0000
  C   C145      1.0  0.58554  0.68737  0.36669  1.0000
  H   H65       1.0  0.56916  0.67448  0.39863  1.0000
  N   N126      1.0  0.39258  0.33504  0.36854  1.0000
  C   C146      1.0  0.42253  0.32537  0.37283  1.0000
  H   H66       1.0  0.43850  0.33848  0.40576  1.0000
  N   N127      1.0  0.20274  0.95496  0.36681  1.0000
  C   C147      1.0  0.19369  0.92510  0.37584  1.0000
  H   H67       1.0  0.17453  0.92027  0.41326  1.0000
  N   N128      1.0  0.80575  0.05479  0.36573  1.0000
  C   C148      1.0  0.81524  0.08460  0.37308  1.0000
  H   H68       1.0  0.83610  0.08914  0.40207  1.0000
  N   N129      1.0  0.05511  0.20239  0.36598  1.0000
  C   C149      1.0  0.08510  0.19364  0.37453  1.0000
  H   H69       1.0  0.09024  0.17475  0.41273  1.0000
  N   N130      1.0  0.95529  0.80519  0.36753  1.0000
  C   C150      1.0  0.92561  0.81493  0.37558  1.0000
  H   H70       1.0  0.92134  0.83580  0.40490  1.0000
  C   C151      1.0  0.27910  0.46596  0.37528  1.0000
  C   C152      1.0  0.29585  0.40307  0.36334  1.0000
  N   N131      1.0  0.26959  0.41249  0.40453  1.0000
  C   C153      1.0  0.26043  0.44233  0.41433  1.0000
  N   N132      1.0  0.23448  0.44686  0.46353  1.0000
  H   H71       1.0  0.22885  0.46719  0.48511  1.0000
  H   H72       1.0  0.22403  0.42940  0.49119  1.0000
  C   C154      1.0  0.72809  0.54546  0.38336  1.0000
  C   C155      1.0  0.71182  0.60845  0.36811  1.0000
  N   N133      1.0  0.73738  0.59896  0.41287  1.0000
  C   C156      1.0  0.74624  0.56909  0.42434  1.0000
  N   N134      1.0  0.77132  0.56454  0.47720  1.0000
  H   H73       1.0  0.77689  0.54422  0.49889  1.0000
  H   H74       1.0  0.78172  0.58198  0.50513  1.0000
  C   C157      1.0  0.46446  0.73090  0.37275  1.0000
  C   C158      1.0  0.40161  0.71370  0.36092  1.0000
  N   N135      1.0  0.41092  0.74003  0.40201  1.0000
  C   C159      1.0  0.44071  0.74941  0.41173  1.0000
  N   N136      1.0  0.44503  0.77537  0.46101  1.0000
  H   H75       1.0  0.46530  0.78152  0.48171  1.0000
  H   H76       1.0  0.42750  0.78599  0.48775  1.0000
  C   C160      1.0  0.54395  0.28197  0.38559  1.0000
  C   C161      1.0  0.60696  0.29778  0.37016  1.0000
  N   N137      1.0  0.59737  0.27236  0.41535  1.0000
  C   C162      1.0  0.56745  0.26374  0.42698  1.0000
  N   N138      1.0  0.56270  0.23874  0.48004  1.0000
  H   H77       1.0  0.54231  0.23350  0.50192  1.0000
  H   H78       1.0  0.58004  0.22835  0.50847  1.0000
  C   C163      1.0  0.21670  0.24655  0.34095  1.0000
  C   C164      1.0  0.26025  0.29577  0.34979  1.0000
  N   N139      1.0  0.26821  0.26614  0.33129  1.0000
  C   C165      1.0  0.24881  0.24149  0.32522  1.0000
  N   N140      1.0  0.26237  0.21460  0.30065  1.0000
  H   H79       1.0  0.25046  0.19694  0.28158  1.0000
  H   H80       1.0  0.28438  0.21401  0.28770  1.0000
  C   C166      1.0  0.79239  0.76431  0.35077  1.0000
  C   C167      1.0  0.74825  0.71551  0.35639  1.0000
  N   N141      1.0  0.74067  0.74537  0.33961  1.0000
  C   C168      1.0  0.76035  0.76986  0.33533  1.0000
  N   N142      1.0  0.74705  0.79707  0.31261  1.0000
  H   H81       1.0  0.75900  0.81508  0.29690  1.0000
  H   H82       1.0  0.72500  0.79815  0.30072  1.0000
  C   C169      1.0  0.76285  0.21729  0.34632  1.0000
  C   C170      1.0  0.71399  0.26130  0.35494  1.0000
  N   N143      1.0  0.74364  0.26893  0.33555  1.0000
  C   C171      1.0  0.76812  0.24931  0.32953  1.0000
  N   N144      1.0  0.79504  0.26264  0.30412  1.0000
  H   H83       1.0  0.81285  0.25069  0.28656  1.0000
  H   H84       1.0  0.79590  0.28466  0.29155  1.0000
  C   C172      1.0  0.24511  0.79291  0.34524  1.0000
  C   C173      1.0  0.29428  0.74924  0.35084  1.0000
  N   N145      1.0  0.26447  0.74134  0.33483  1.0000
  C   C174      1.0  0.23981  0.76079  0.33051  1.0000
  N   N146      1.0  0.21265  0.74723  0.30862  1.0000
  H   H85       1.0  0.19461  0.75907  0.29242  1.0000
  H   H86       1.0  0.21173  0.72516  0.29692  1.0000
  C   C175      1.0  0.52911  0.98526  0.36939  1.0000
  C   C176      1.0  0.48133  0.02827  0.35840  1.0000
  N   N147      1.0  0.51008  0.03630  0.38549  1.0000
  C   C177      1.0  0.53428  0.01663  0.39349  1.0000
  N   N148      1.0  0.56063  0.02891  0.42702  1.0000
  H   H87       1.0  0.57744  0.01605  0.44743  1.0000
  H   H88       1.0  0.56116  0.05046  0.44531  1.0000
  C   C178      1.0  0.02461  0.52821  0.36986  1.0000
  C   C179      1.0  0.98158  0.48046  0.35898  1.0000
  N   N149      1.0  0.97363  0.50913  0.38690  1.0000
  C   C180      1.0  0.99332  0.53330  0.39493  1.0000
  N   N150      1.0  0.98113  0.55953  0.42950  1.0000
  H   H89       1.0  0.99390  0.57657  0.44877  1.0000
  H   H90       1.0  0.95954  0.56021  0.44740  1.0000
