data_image0
_chemical_formula_structural       C3NC3NC5NC5NC36H26C4H4CNC2ONH2NCNC2ONH2NC16H16NC2HN2C2HN
_chemical_formula_sum              "C82 N14 H52 O2"
_cell_length_a       34.2325
_cell_length_b       34.2325
_cell_length_c       14.6404
_cell_angle_alpha    90
_cell_angle_beta     90
_cell_angle_gamma    90.169

_space_group_name_H-M_alt    "P 1"
_space_group_IT_number       1

loop_
  _space_group_symop_operation_xyz
  'x, y, z'

loop_
  _atom_site_type_symbol
  _atom_site_label
  _atom_site_symmetry_multiplicity
  _atom_site_fract_x
  _atom_site_fract_y
  _atom_site_fract_z
  _atom_site_occupancy
  C   C1        1.0  0.11350  0.08501  0.33643  1.0000
  C   C2        1.0  0.08482  0.11330  0.33528  1.0000
  C   C3        1.0  0.04840  0.09474  0.33528  1.0000
  N   N1        1.0  0.05650  0.05592  0.33616  1.0000
  C   C4        1.0  0.09543  0.04834  0.33666  1.0000
  C   C5        1.0  0.11554  0.01190  0.33720  1.0000
  C   C6        1.0  0.09682  0.97475  0.33748  1.0000
  N   N2        1.0  0.05805  0.96684  0.33843  1.0000
  C   C7        1.0  0.05061  0.92799  0.33729  1.0000
  C   C8        1.0  0.08707  0.90978  0.33594  1.0000
  C   C9        1.0  0.11547  0.93852  0.33580  1.0000
  C   C10       1.0  0.01370  0.90879  0.33741  1.0000
  C   C11       1.0  0.97699  0.92832  0.33731  1.0000
  N   N3        1.0  0.96890  0.96713  0.33574  1.0000
  C   C12       1.0  0.92997  0.97467  0.33549  1.0000
  C   C13       1.0  0.91190  0.93800  0.33750  1.0000
  C   C14       1.0  0.94060  0.90972  0.33817  1.0000
  C   C15       1.0  0.90990  0.01109  0.33418  1.0000
  C   C16       1.0  0.92864  0.04826  0.33362  1.0000
  N   N4        1.0  0.96740  0.05623  0.33358  1.0000
  C   C17       1.0  0.97480  0.09511  0.33345  1.0000
  C   C18       1.0  0.93832  0.11326  0.33351  1.0000
  C   C19       1.0  0.90996  0.08448  0.33315  1.0000
  C   C20       1.0  0.01169  0.11435  0.33407  1.0000
  C   C21       1.0  0.01180  0.15621  0.33612  1.0000
  C   C22       1.0  0.00645  0.17843  0.25575  1.0000
  C   C23       1.0  0.00665  0.21963  0.25873  1.0000
  C   C24       1.0  0.01238  0.24018  0.34185  1.0000
  C   C25       1.0  0.01284  0.28223  0.34560  1.0000
  C   C26       1.0  0.01099  0.36594  0.36316  1.0000
  C   C27       1.0  0.98540  0.34633  0.30267  1.0000
  C   C28       1.0  0.98640  0.30526  0.29406  1.0000
  C   C29       1.0  0.86806  0.01045  0.33616  1.0000
  C   C30       1.0  0.84599  0.00437  0.25583  1.0000
  C   C31       1.0  0.80479  0.00421  0.25851  1.0000
  C   C32       1.0  0.78414  0.01037  0.34125  1.0000
  C   C33       1.0  0.74211  0.01067  0.34459  1.0000
  C   C34       1.0  0.71917  0.98360  0.29429  1.0000
  C   C35       1.0  0.67808  0.98247  0.30257  1.0000
  C   C36       1.0  0.65841  0.00852  0.36157  1.0000
  C   C37       1.0  0.01362  0.86700  0.33409  1.0000
  C   C38       1.0  0.01546  0.78325  0.32584  1.0000
  C   C39       1.0  0.01772  0.80641  0.24563  1.0000
  C   C40       1.0  0.01682  0.84749  0.24949  1.0000
  C   C41       1.0  0.01771  0.74136  0.32101  1.0000
  C   C42       1.0  0.04441  0.72300  0.26098  1.0000
  C   C43       1.0  0.04583  0.68210  0.25223  1.0000
  C   C44       1.0  0.02079  0.65752  0.30356  1.0000
  C   C45       1.0  0.15736  0.01256  0.33398  1.0000
  C   C46       1.0  0.17692  0.01808  0.25005  1.0000
  C   C47       1.0  0.21801  0.01915  0.24631  1.0000
  C   C48       1.0  0.24118  0.01471  0.32598  1.0000
  C   C49       1.0  0.28310  0.01693  0.32143  1.0000
  C   C50       1.0  0.36697  0.02002  0.30414  1.0000
  C   C51       1.0  0.34265  0.04646  0.25648  1.0000
  C   C52       1.0  0.30174  0.04503  0.26521  1.0000
  H   H1        1.0  0.35452  0.06699  0.21370  1.0000
  H   H2        1.0  0.28561  0.06498  0.22949  1.0000
  H   H3        1.0  0.23091  0.02279  0.18383  1.0000
  H   H4        1.0  0.16132  0.02144  0.19090  1.0000
  H   H5        1.0  0.14281  0.09081  0.33677  1.0000
  H   H6        1.0  0.09024  0.14268  0.33430  1.0000
  H   H7        1.0  0.03677  0.03592  0.33615  1.0000
  H   H8        1.0  0.98863  0.98712  0.33401  1.0000
  H   H9        1.0  0.14485  0.93335  0.33427  1.0000
  H   H10       1.0  0.09261  0.88046  0.33481  1.0000
  H   H11       1.0  0.01875  0.86311  0.19001  1.0000
  H   H12       1.0  0.01972  0.79352  0.18276  1.0000
  H   H13       1.0  0.93522  0.88034  0.33941  1.0000
  H   H14       1.0  0.88260  0.93219  0.33820  1.0000
  H   H15       1.0  0.93274  0.14258  0.33381  1.0000
  H   H16       1.0  0.88056  0.08964  0.33302  1.0000
  H   H17       1.0  0.85982  0.00028  0.19459  1.0000
  H   H18       1.0  0.78995  0.00048  0.19848  1.0000
  H   H19       1.0  0.66280  0.96140  0.26796  1.0000
  H   H20       1.0  0.73233  0.96309  0.25395  1.0000
  H   H21       1.0  0.96618  0.29215  0.25262  1.0000
  H   H22       1.0  0.96478  0.36166  0.26700  1.0000
  H   H23       1.0  0.00335  0.23456  0.19871  1.0000
  H   H24       1.0  0.00255  0.16470  0.19430  1.0000
  H   H25       1.0  0.06333  0.73932  0.22251  1.0000
  H   H26       1.0  0.06532  0.67044  0.20673  1.0000
  C   C53       1.0  0.00784  0.40565  0.38071  1.0000
  C   C54       1.0  0.61874  0.00513  0.37922  1.0000
  C   C55       1.0  0.02148  0.61730  0.28778  1.0000
  C   C56       1.0  0.40717  0.02076  0.28804  1.0000
  H   H27       1.0  0.00502  0.41404  0.44544  1.0000
  H   H28       1.0  0.41628  0.03202  0.22898  1.0000
  H   H29       1.0  0.03199  0.60820  0.22801  1.0000
  H   H30       1.0  0.61043  0.00155  0.44382  1.0000
  C   C57       1.0  0.00914  0.47058  0.32147  1.0000
  N   N5        1.0  0.02035  0.53379  0.25909  1.0000
  C   C58       1.0  0.02040  0.49435  0.24635  1.0000
  C   C59       1.0  0.03296  0.48072  0.15967  1.0000
  O   O1        1.0  0.05762  0.50356  0.11071  1.0000
  N   N6        1.0  0.01928  0.44810  0.11830  1.0000
  H   H31       1.0  0.99815  0.43278  0.14428  1.0000
  H   H32       1.0  0.02764  0.44177  0.05653  1.0000
  N   N7        1.0  0.01050  0.43159  0.31732  1.0000
  C   C60       1.0  0.55381  0.00747  0.32036  1.0000
  N   N8        1.0  0.49067  0.01944  0.25871  1.0000
  C   C61       1.0  0.53010  0.01947  0.24587  1.0000
  C   C62       1.0  0.54383  0.03271  0.15974  1.0000
  O   O2        1.0  0.52125  0.05796  0.11214  1.0000
  N   N9        1.0  0.57634  0.01933  0.11773  1.0000
  H   H33       1.0  0.59146  0.99791  0.14265  1.0000
  H   H34       1.0  0.58274  0.02823  0.05639  1.0000
  N   N10       1.0  0.59280  0.00874  0.31617  1.0000
  C   C63       1.0  0.01741  0.21744  0.42203  1.0000
  C   C64       1.0  0.01713  0.17631  0.41941  1.0000
  C   C65       1.0  0.03911  0.30242  0.40392  1.0000
  C   C66       1.0  0.03800  0.34334  0.41323  1.0000
  C   C67       1.0  0.80673  0.01604  0.42146  1.0000
  C   C68       1.0  0.84785  0.01610  0.41916  1.0000
  C   C69       1.0  0.68092  0.03613  0.41044  1.0000
  C   C70       1.0  0.72186  0.03738  0.40137  1.0000
  C   C71       1.0  0.01080  0.84432  0.41449  1.0000
  C   C72       1.0  0.01155  0.80316  0.41026  1.0000
  C   C73       1.0  0.99469  0.67561  0.36544  1.0000
  C   C74       1.0  0.99330  0.71669  0.37411  1.0000
  C   C75       1.0  0.18006  0.00760  0.41376  1.0000
  C   C76       1.0  0.22124  0.00853  0.40966  1.0000
  C   C77       1.0  0.30754  0.99106  0.37085  1.0000
  C   C78       1.0  0.34863  0.99247  0.36230  1.0000
  H   H35       1.0  0.36498  0.97233  0.39689  1.0000
  H   H36       1.0  0.29552  0.96976  0.41115  1.0000
  H   H37       1.0  0.23656  0.00571  0.46928  1.0000
  H   H38       1.0  0.16670  0.00358  0.47561  1.0000
  H   H39       1.0  0.00860  0.85769  0.47681  1.0000
  H   H40       1.0  0.01042  0.78782  0.47019  1.0000
  H   H41       1.0  0.86300  0.02032  0.47867  1.0000
  H   H42       1.0  0.79340  0.01963  0.48343  1.0000
  H   H43       1.0  0.73685  0.05797  0.43806  1.0000
  H   H44       1.0  0.66774  0.05528  0.45441  1.0000
  H   H45       1.0  0.02075  0.16108  0.47899  1.0000
  H   H46       1.0  0.02062  0.23066  0.48426  1.0000
  H   H47       1.0  0.05685  0.35646  0.45819  1.0000
  H   H48       1.0  0.05930  0.28739  0.44148  1.0000
  H   H49       1.0  0.97304  0.72851  0.41735  1.0000
  H   H50       1.0  0.97563  0.65906  0.40303  1.0000
  N   N11       1.0  0.99849  0.48912  0.40012  1.0000
  C   C79       1.0  0.99794  0.52855  0.41062  1.0000
  C   C80       1.0  0.00965  0.55243  0.33730  1.0000
  H   H51       1.0  0.98967  0.54031  0.47178  1.0000
  N   N12       1.0  0.00997  0.59131  0.34567  1.0000
  N   N13       1.0  0.53520  0.99620  0.39854  1.0000
  C   C81       1.0  0.49578  0.99571  0.40915  1.0000
  C   C82       1.0  0.47198  0.00811  0.33645  1.0000
  H   H52       1.0  0.48397  0.98692  0.46990  1.0000
  N   N14       1.0  0.43310  0.00847  0.34500  1.0000
