data_image0
_chemical_formula_structural       C3NC3H5C3NC3H5C3NC3H5CNHCNHCNHCNHCNHCNHNC18H12NC18H12NC18H12NC18H12NC18H12NC18H12CNHCNHCNHC3NC3H5C3NC3H5C3NC3H5C3NC3H5C3NC3H5C3NC3H5
_chemical_formula_sum              "C171 N24 H126"
_cell_length_a       52.3035
_cell_length_b       52.3034
_cell_length_c       14.8729
_cell_angle_alpha    90
_cell_angle_beta     90
_cell_angle_gamma    120

_space_group_name_H-M_alt    "P 1"
_space_group_IT_number       1

loop_
  _space_group_symop_operation_xyz
  'x, y, z'

loop_
  _atom_site_type_symbol
  _atom_site_label
  _atom_site_symmetry_multiplicity
  _atom_site_fract_x
  _atom_site_fract_y
  _atom_site_fract_z
  _atom_site_occupancy
  C   C1        1.0  0.99220  0.50483  0.26208  1.0000
  C   C2        1.0  0.97489  0.48670  0.33485  1.0000
  C   C3        1.0  0.03745  0.51769  0.34055  1.0000
  N   N1        1.0  0.02220  0.51940  0.26893  1.0000
  C   C4        1.0  0.97910  0.51074  0.18162  1.0000
  C   C5        1.0  0.99823  0.52726  0.09930  1.0000
  C   C6        1.0  0.97715  0.49387  0.09474  1.0000
  H   H1        1.0  0.96102  0.51518  0.19230  1.0000
  H   H2        1.0  0.95733  0.48684  0.05420  1.0000
  H   H3        1.0  0.98776  0.48042  0.09514  1.0000
  H   H4        1.0  0.02154  0.53365  0.09915  1.0000
  H   H5        1.0  0.99116  0.54023  0.05985  1.0000
  C   C7        1.0  0.50585  0.48950  0.26207  1.0000
  C   C8        1.0  0.52398  0.49034  0.33483  1.0000
  C   C9        1.0  0.49300  0.52191  0.34046  1.0000
  N   N2        1.0  0.49128  0.50494  0.26890  1.0000
  C   C10       1.0  0.49990  0.47046  0.18169  1.0000
  C   C11       1.0  0.48337  0.47304  0.09936  1.0000
  C   C12       1.0  0.51675  0.48532  0.09474  1.0000
  H   H6        1.0  0.49545  0.44793  0.19246  1.0000
  H   H7        1.0  0.52376  0.47251  0.05425  1.0000
  H   H8        1.0  0.53022  0.50938  0.09503  1.0000
  H   H9        1.0  0.47699  0.48997  0.09914  1.0000
  H   H10       1.0  0.47038  0.45298  0.05999  1.0000
  C   C13       1.0  0.52116  0.01847  0.26206  1.0000
  C   C14       1.0  0.52033  0.03576  0.33484  1.0000
  C   C15       1.0  0.48876  0.97321  0.34049  1.0000
  N   N3        1.0  0.50572  0.98846  0.26890  1.0000
  C   C16       1.0  0.54019  0.03156  0.18165  1.0000
  C   C17       1.0  0.53759  0.01244  0.09931  1.0000
  C   C18       1.0  0.52530  0.03354  0.09473  1.0000
  H   H11       1.0  0.56271  0.04964  0.19238  1.0000
  H   H12       1.0  0.53811  0.05336  0.05423  1.0000
  H   H13       1.0  0.50125  0.02295  0.09507  1.0000
  H   H14       1.0  0.52065  0.98913  0.09911  1.0000
  H   H15       1.0  0.55763  0.01951  0.05992  1.0000
  C   C19       1.0  0.30118  0.56500  0.27564  1.0000
  N   N4        1.0  0.27522  0.56489  0.27322  1.0000
  H   H16       1.0  0.31595  0.57564  0.22494  1.0000
  C   C20       1.0  0.44575  0.73838  0.27560  1.0000
  N   N5        1.0  0.44586  0.71253  0.27317  1.0000
  H   H17       1.0  0.43512  0.74251  0.22489  1.0000
  C   C21       1.0  0.27230  0.70952  0.27568  1.0000
  N   N6        1.0  0.29815  0.73547  0.27324  1.0000
  H   H18       1.0  0.26817  0.69474  0.22501  1.0000
  C   C22       1.0  0.72772  0.46941  0.28774  1.0000
  N   N7        1.0  0.75323  0.46859  0.29103  1.0000
  H   H19       1.0  0.72376  0.47834  0.23198  1.0000
  C   C23       1.0  0.54130  0.26045  0.28777  1.0000
  N   N8        1.0  0.54212  0.28679  0.29108  1.0000
  H   H20       1.0  0.53239  0.24758  0.23198  1.0000
  C   C24       1.0  0.75023  0.28295  0.28778  1.0000
  N   N9        1.0  0.72389  0.25744  0.29106  1.0000
  H   H21       1.0  0.76310  0.28692  0.23196  1.0000
  N   N10       1.0  0.16401  0.58170  0.34918  1.0000
  C   C25       1.0  0.18083  0.61305  0.35539  1.0000
  C   C26       1.0  0.13264  0.56583  0.34668  1.0000
  C   C27       1.0  0.18082  0.56729  0.34006  1.0000
  C   C28       1.0  0.19680  0.57068  0.26022  1.0000
  C   C29       1.0  0.22014  0.56458  0.25870  1.0000
  C   C30       1.0  0.22825  0.55474  0.33678  1.0000
  C   C31       1.0  0.21078  0.54955  0.41492  1.0000
  C   C32       1.0  0.18764  0.55596  0.41677  1.0000
  C   C33       1.0  0.18582  0.63089  0.27882  1.0000
  C   C34       1.0  0.20832  0.66074  0.27843  1.0000
  C   C35       1.0  0.22691  0.67361  0.35403  1.0000
  C   C36       1.0  0.22112  0.65583  0.43157  1.0000
  C   C37       1.0  0.19825  0.62618  0.43261  1.0000
  C   C38       1.0  0.11712  0.56407  0.26719  1.0000
  C   C39       1.0  0.08600  0.54841  0.26538  1.0000
  C   C40       1.0  0.06912  0.53363  0.34264  1.0000
  C   C41       1.0  0.08502  0.53536  0.42190  1.0000
  C   C42       1.0  0.11616  0.55123  0.42399  1.0000
  H   H22       1.0  0.21207  0.67258  0.22033  1.0000
  H   H23       1.0  0.17459  0.62173  0.22057  1.0000
  H   H24       1.0  0.19604  0.61348  0.48757  1.0000
  H   H25       1.0  0.23483  0.66361  0.48611  1.0000
  H   H26       1.0  0.19317  0.58003  0.20484  1.0000
  H   H27       1.0  0.23219  0.56901  0.20078  1.0000
  H   H28       1.0  0.12845  0.57403  0.20972  1.0000
  H   H29       1.0  0.07579  0.54772  0.20601  1.0000
  H   H30       1.0  0.07406  0.52527  0.47982  1.0000
  H   H31       1.0  0.12681  0.55223  0.48265  1.0000
  H   H32       1.0  0.17738  0.55462  0.47655  1.0000
  H   H33       1.0  0.21611  0.54317  0.47372  1.0000
  N   N11       1.0  0.42899  0.58447  0.34881  1.0000
  C   C43       1.0  0.39764  0.56995  0.35508  1.0000
  C   C44       1.0  0.44485  0.56896  0.34643  1.0000
  C   C45       1.0  0.44342  0.61571  0.33994  1.0000
  C   C46       1.0  0.44001  0.62831  0.26015  1.0000
  C   C47       1.0  0.44618  0.65777  0.25858  1.0000
  C   C48       1.0  0.45599  0.67570  0.33670  1.0000
  C   C49       1.0  0.46112  0.66339  0.41488  1.0000
  C   C50       1.0  0.45475  0.63384  0.41667  1.0000
  C   C51       1.0  0.37980  0.55713  0.27849  1.0000
  C   C52       1.0  0.34997  0.54983  0.27813  1.0000
  C   C53       1.0  0.33708  0.55547  0.35384  1.0000
  C   C54       1.0  0.35487  0.56744  0.43137  1.0000
  C   C55       1.0  0.38452  0.57422  0.43235  1.0000
  C   C56       1.0  0.44656  0.55513  0.26704  1.0000
  C   C57       1.0  0.46222  0.53967  0.26528  1.0000
  C   C58       1.0  0.47705  0.53764  0.34251  1.0000
  C   C59       1.0  0.47537  0.55188  0.42168  1.0000
  C   C60       1.0  0.45951  0.56715  0.42370  1.0000
  H   H34       1.0  0.33810  0.54170  0.22009  1.0000
  H   H35       1.0  0.38895  0.55507  0.22021  1.0000
  H   H36       1.0  0.39722  0.58469  0.48733  1.0000
  H   H37       1.0  0.34709  0.57334  0.48597  1.0000
  H   H38       1.0  0.43077  0.61537  0.20463  1.0000
  H   H39       1.0  0.44181  0.66541  0.20061  1.0000
  H   H40       1.0  0.43656  0.55644  0.20958  1.0000
  H   H41       1.0  0.46287  0.53010  0.20597  1.0000
  H   H42       1.0  0.48551  0.55107  0.47956  1.0000
  H   H43       1.0  0.45856  0.57687  0.48230  1.0000
  H   H44       1.0  0.45601  0.62491  0.47651  1.0000
  H   H45       1.0  0.46746  0.67508  0.47372  1.0000
  N   N12       1.0  0.42620  0.84665  0.34888  1.0000
  C   C61       1.0  0.44072  0.82982  0.35516  1.0000
  C   C62       1.0  0.44170  0.87802  0.34648  1.0000
  C   C63       1.0  0.39496  0.82983  0.33999  1.0000
  C   C64       1.0  0.38239  0.81384  0.26016  1.0000
  C   C65       1.0  0.35293  0.79053  0.25865  1.0000
  C   C66       1.0  0.33499  0.78244  0.33674  1.0000
  C   C67       1.0  0.34729  0.79990  0.41490  1.0000
  C   C68       1.0  0.37684  0.82306  0.41672  1.0000
  C   C69       1.0  0.45359  0.82485  0.27857  1.0000
  C   C70       1.0  0.46090  0.80233  0.27822  1.0000
  C   C71       1.0  0.45524  0.78379  0.35391  1.0000
  C   C72       1.0  0.44324  0.78958  0.43142  1.0000
  C   C73       1.0  0.43644  0.81243  0.43243  1.0000
  C   C74       1.0  0.45548  0.89355  0.26704  1.0000
  C   C75       1.0  0.47095  0.92468  0.26527  1.0000
  C   C76       1.0  0.47303  0.94154  0.34255  1.0000
  C   C77       1.0  0.45884  0.92563  0.42178  1.0000
  C   C78       1.0  0.44357  0.89449  0.42381  1.0000
  H   H46       1.0  0.46906  0.79861  0.22019  1.0000
  H   H47       1.0  0.45566  0.83608  0.22032  1.0000
  H   H48       1.0  0.42595  0.81465  0.48738  1.0000
  H   H49       1.0  0.43733  0.77588  0.48599  1.0000
  H   H50       1.0  0.39533  0.81755  0.20466  1.0000
  H   H51       1.0  0.34527  0.77854  0.20065  1.0000
  H   H52       1.0  0.45413  0.88224  0.20955  1.0000
  H   H53       1.0  0.48048  0.93489  0.20593  1.0000
  H   H54       1.0  0.45970  0.93658  0.47969  1.0000
  H   H55       1.0  0.43389  0.88383  0.48244  1.0000
  H   H56       1.0  0.38577  0.83326  0.47655  1.0000
  H   H57       1.0  0.33561  0.79456  0.47376  1.0000
  N   N13       1.0  0.84830  0.42407  0.34189  1.0000
  C   C79       1.0  0.83093  0.39272  0.33737  1.0000
  C   C80       1.0  0.87971  0.43941  0.34065  1.0000
  C   C81       1.0  0.83198  0.43897  0.35272  1.0000
  C   C82       1.0  0.82576  0.45145  0.27771  1.0000
  C   C83       1.0  0.80322  0.45874  0.28182  1.0000
  C   C84       1.0  0.78607  0.45360  0.36072  1.0000
  C   C85       1.0  0.79385  0.44277  0.43726  1.0000
  C   C86       1.0  0.81638  0.43556  0.43337  1.0000
  C   C87       1.0  0.82904  0.37512  0.41176  1.0000
  C   C88       1.0  0.80659  0.34527  0.41622  1.0000
  C   C89       1.0  0.78501  0.33241  0.34768  1.0000
  C   C90       1.0  0.78831  0.34969  0.27059  1.0000
  C   C91       1.0  0.81110  0.37929  0.26511  1.0000
  C   C92       1.0  0.89514  0.43705  0.26624  1.0000
  C   C93       1.0  0.92627  0.45213  0.26491  1.0000
  C   C94       1.0  0.94314  0.47080  0.33664  1.0000
  C   C95       1.0  0.92742  0.47280  0.41145  1.0000
  C   C96       1.0  0.89629  0.45725  0.41371  1.0000
  H   H58       1.0  0.80527  0.33341  0.47238  1.0000
  H   H59       1.0  0.84270  0.38452  0.46577  1.0000
  H   H60       1.0  0.81150  0.39177  0.21161  1.0000
  H   H61       1.0  0.77290  0.34155  0.22025  1.0000
  H   H62       1.0  0.83593  0.45298  0.21758  1.0000
  H   H63       1.0  0.79817  0.46595  0.22417  1.0000
  H   H64       1.0  0.88370  0.42394  0.21295  1.0000
  H   H65       1.0  0.93653  0.44897  0.21116  1.0000
  H   H66       1.0  0.93858  0.48601  0.46493  1.0000
  H   H67       1.0  0.88570  0.45931  0.46863  1.0000
  H   H68       1.0  0.81974  0.42556  0.48761  1.0000
  H   H69       1.0  0.78204  0.43831  0.49567  1.0000
  N   N14       1.0  0.58660  0.42637  0.34197  1.0000
  C   C97       1.0  0.61795  0.44035  0.33741  1.0000
  C   C98       1.0  0.57126  0.44245  0.34071  1.0000
  C   C99       1.0  0.57170  0.39516  0.35275  1.0000
  C   C100      1.0  0.55923  0.37644  0.27777  1.0000
  C   C101      1.0  0.55194  0.34662  0.28187  1.0000
  C   C102      1.0  0.55710  0.33460  0.36076  1.0000
  C   C103      1.0  0.56795  0.35323  0.43727  1.0000
  C   C104      1.0  0.57513  0.38297  0.43339  1.0000
  C   C105      1.0  0.63556  0.45607  0.41176  1.0000
  C   C106      1.0  0.66540  0.46344  0.41623  1.0000
  C   C107      1.0  0.67825  0.45472  0.34765  1.0000
  C   C108      1.0  0.66097  0.44076  0.27055  1.0000
  C   C109      1.0  0.63137  0.43396  0.26511  1.0000
  C   C110      1.0  0.57362  0.46023  0.26626  1.0000
  C   C111      1.0  0.55854  0.47628  0.26493  1.0000
  C   C112      1.0  0.53988  0.47448  0.33666  1.0000
  C   C113      1.0  0.53789  0.45679  0.41151  1.0000
  C   C114      1.0  0.55344  0.44121  0.41377  1.0000
  H   H70       1.0  0.67726  0.47395  0.47241  1.0000
  H   H71       1.0  0.62616  0.46028  0.46589  1.0000
  H   H72       1.0  0.61888  0.42188  0.21161  1.0000
  H   H73       1.0  0.66910  0.43351  0.22017  1.0000
  H   H74       1.0  0.55768  0.38507  0.21764  1.0000
  H   H75       1.0  0.54474  0.33436  0.22423  1.0000
  H   H76       1.0  0.58672  0.46188  0.21297  1.0000
  H   H77       1.0  0.56169  0.48968  0.21113  1.0000
  H   H78       1.0  0.52468  0.45474  0.46498  1.0000
  H   H79       1.0  0.55137  0.42855  0.46871  1.0000
  H   H80       1.0  0.58512  0.39632  0.48763  1.0000
  H   H81       1.0  0.57239  0.34587  0.49571  1.0000
  N   N15       1.0  0.58432  0.16235  0.34197  1.0000
  C   C115      1.0  0.57035  0.17973  0.33739  1.0000
  C   C116      1.0  0.56824  0.13094  0.34071  1.0000
  C   C117      1.0  0.61553  0.17867  0.35279  1.0000
  C   C118      1.0  0.63424  0.18488  0.27779  1.0000
  C   C119      1.0  0.66406  0.20743  0.28188  1.0000
  C   C120      1.0  0.67607  0.22461  0.36075  1.0000
  C   C121      1.0  0.65745  0.21684  0.43727  1.0000
  C   C122      1.0  0.62772  0.19426  0.43347  1.0000
  C   C123      1.0  0.55463  0.18163  0.41176  1.0000
  C   C124      1.0  0.54728  0.20412  0.41621  1.0000
  C   C125      1.0  0.55601  0.22569  0.34761  1.0000
  C   C126      1.0  0.56994  0.22234  0.27049  1.0000
  C   C127      1.0  0.57674  0.19954  0.26507  1.0000
  C   C128      1.0  0.55045  0.11552  0.26627  1.0000
  C   C129      1.0  0.53440  0.08439  0.26495  1.0000
  C   C130      1.0  0.53619  0.06752  0.33666  1.0000
  C   C131      1.0  0.55390  0.08323  0.41149  1.0000
  C   C132      1.0  0.56948  0.11436  0.41377  1.0000
  H   H82       1.0  0.53680  0.20550  0.47242  1.0000
  H   H83       1.0  0.55043  0.16804  0.46590  1.0000
  H   H84       1.0  0.58881  0.19912  0.21158  1.0000
  H   H85       1.0  0.57722  0.23775  0.22015  1.0000
  H   H86       1.0  0.62558  0.17473  0.21766  1.0000
  H   H87       1.0  0.67631  0.21249  0.22423  1.0000
  H   H88       1.0  0.54880  0.12697  0.21298  1.0000
  H   H89       1.0  0.52098  0.07414  0.21115  1.0000
  H   H90       1.0  0.55594  0.07206  0.46498  1.0000
  H   H91       1.0  0.58214  0.12495  0.46871  1.0000
  H   H92       1.0  0.61435  0.19091  0.48765  1.0000
  H   H93       1.0  0.66482  0.22862  0.49573  1.0000
  C   C133      1.0  0.99099  0.48528  0.40943  1.0000
  N   N16       1.0  0.02097  0.50036  0.40999  1.0000
  H   H94       1.0  0.98035  0.47258  0.46421  1.0000
  C   C134      1.0  0.52541  0.50788  0.40937  1.0000
  N   N17       1.0  0.51034  0.52279  0.40989  1.0000
  H   H95       1.0  0.53812  0.50995  0.46415  1.0000
  C   C135      1.0  0.50280  0.01966  0.40940  1.0000
  N   N18       1.0  0.48790  0.98968  0.40993  1.0000
  H   H96       1.0  0.50075  0.03030  0.46420  1.0000
  C   C136      1.0  0.28624  0.53905  0.41647  1.0000
  C   C137      1.0  0.30831  0.55241  0.34887  1.0000
  C   C138      1.0  0.25444  0.55258  0.33880  1.0000
  N   N19       1.0  0.26083  0.54009  0.40914  1.0000
  C   C139      1.0  0.28910  0.52430  0.49759  1.0000
  C   C140      1.0  0.26449  0.49224  0.51455  1.0000
  C   C141      1.0  0.29537  0.49865  0.48747  1.0000
  H   H97       1.0  0.29719  0.53727  0.55924  1.0000
  H   H98       1.0  0.30839  0.49648  0.54115  1.0000
  H   H99       1.0  0.29715  0.49198  0.41923  1.0000
  H   H100      1.0  0.24767  0.48137  0.46263  1.0000
  H   H101      1.0  0.25868  0.48580  0.58468  1.0000
  C   C142      1.0  0.47164  0.74935  0.41652  1.0000
  C   C143      1.0  0.45831  0.75808  0.34890  1.0000
  C   C144      1.0  0.45815  0.70405  0.33876  1.0000
  N   N20       1.0  0.47061  0.72291  0.40916  1.0000
  C   C145      1.0  0.48638  0.76695  0.49769  1.0000
  C   C146      1.0  0.51843  0.77440  0.51472  1.0000
  C   C147      1.0  0.51203  0.79888  0.48767  1.0000
  H   H102      1.0  0.47339  0.76205  0.55931  1.0000
  H   H103      1.0  0.51418  0.81405  0.54137  1.0000
  H   H104      1.0  0.51871  0.80734  0.41946  1.0000
  H   H105      1.0  0.52932  0.76847  0.46281  1.0000
  H   H106      1.0  0.52486  0.77502  0.58487  1.0000
  C   C148      1.0  0.26134  0.72445  0.41659  1.0000
  C   C149      1.0  0.25261  0.70238  0.34899  1.0000
  C   C150      1.0  0.30663  0.75626  0.33881  1.0000
  N   N21       1.0  0.28778  0.74987  0.40921  1.0000
  C   C151      1.0  0.24374  0.72159  0.49775  1.0000
  C   C152      1.0  0.23628  0.74620  0.51474  1.0000
  C   C153      1.0  0.21181  0.71531  0.48771  1.0000
  H   H107      1.0  0.24863  0.71351  0.55939  1.0000
  H   H108      1.0  0.19663  0.70229  0.54141  1.0000
  H   H109      1.0  0.20335  0.71353  0.41949  1.0000
  H   H110      1.0  0.24222  0.76301  0.46282  1.0000
  H   H111      1.0  0.23566  0.75201  0.58488  1.0000
  C   C154      1.0  0.71427  0.44496  0.43156  1.0000
  C   C155      1.0  0.70666  0.45725  0.35788  1.0000
  C   C156      1.0  0.76034  0.45663  0.36110  1.0000
  N   N22       1.0  0.74022  0.44489  0.42863  1.0000
  C   C157      1.0  0.69377  0.42867  0.50659  1.0000
  C   C158      1.0  0.70506  0.42149  0.59348  1.0000
  C   C159      1.0  0.69695  0.44586  0.59379  1.0000
  H   H112      1.0  0.67121  0.41181  0.48945  1.0000
  H   H113      1.0  0.67641  0.44038  0.62825  1.0000
  H   H114      1.0  0.71564  0.46834  0.59808  1.0000
  H   H115      1.0  0.72866  0.42959  0.60058  1.0000
  H   H116      1.0  0.68944  0.40146  0.62925  1.0000
  C   C160      1.0  0.56578  0.27146  0.43157  1.0000
  C   C161      1.0  0.55352  0.25159  0.35783  1.0000
  C   C162      1.0  0.55408  0.30586  0.36116  1.0000
  N   N23       1.0  0.56583  0.29748  0.42866  1.0000
  C   C163      1.0  0.58208  0.26726  0.50657  1.0000
  C   C164      1.0  0.58929  0.28575  0.59343  1.0000
  C   C165      1.0  0.56491  0.25328  0.59382  1.0000
  H   H117      1.0  0.59892  0.26154  0.48941  1.0000
  H   H118      1.0  0.57038  0.23821  0.62828  1.0000
  H   H119      1.0  0.54243  0.24950  0.59816  1.0000
  H   H120      1.0  0.58121  0.30126  0.60054  1.0000
  H   H121      1.0  0.60933  0.29015  0.62916  1.0000
  C   C166      1.0  0.73926  0.29639  0.43165  1.0000
  C   C167      1.0  0.75914  0.30400  0.35793  1.0000
  C   C168      1.0  0.70482  0.25032  0.36117  1.0000
  N   N24       1.0  0.71322  0.27044  0.42871  1.0000
  C   C169      1.0  0.74347  0.31688  0.50670  1.0000
  C   C170      1.0  0.72503  0.30558  0.59364  1.0000
  C   C171      1.0  0.75750  0.31369  0.59384  1.0000
  H   H122      1.0  0.74916  0.33944  0.48960  1.0000
  H   H123      1.0  0.77257  0.33424  0.62830  1.0000
  H   H124      1.0  0.76131  0.29501  0.59807  1.0000
  H   H125      1.0  0.70954  0.28197  0.60074  1.0000
  H   H126      1.0  0.72061  0.32118  0.62947  1.0000
