data_image0
_chemical_formula_structural       HCH3CH2C2HC6H3NC2HC6H3NCNCHNHCNCHNHC2HC6H3NC2HC6H3NCNCHNHCNCHNHC2HC4H3C2HC4H3C6H3C6H3C4H4C6H3C6H3C4H4C6H3C6H3C4H4C6H2C6H3C3H2C6H2C6H3C3H2C2NC2HNHNC2NC2HNHNC4HC6H3N2C4HC6H3N2C2NC2HNHNC2NC2HNHNC4HC6H3N2C4HC6H3N2C2NC4HNHN2C2NC4HNHN2
_chemical_formula_sum              "H110 C200 N40"
_cell_length_a       40.4316
_cell_length_b       51.255
_cell_length_c       15.0107
_cell_angle_alpha    88.8654
_cell_angle_beta     90.8998
_cell_angle_gamma    90.2505

_space_group_name_H-M_alt    "P 1"
_space_group_IT_number       1

loop_
  _space_group_symop_operation_xyz
  'x, y, z'

loop_
  _atom_site_type_symbol
  _atom_site_label
  _atom_site_symmetry_multiplicity
  _atom_site_fract_x
  _atom_site_fract_y
  _atom_site_fract_z
  _atom_site_occupancy
  H   H1        1.0  0.77127  0.35920  0.30487  1.0000
  C   C1        1.0  0.83282  0.34091  0.31839  1.0000
  H   H2        1.0  0.83173  0.35627  0.27694  1.0000
  H   H3        1.0  0.61902  0.31802  0.26724  1.0000
  H   H4        1.0  0.17270  0.67342  0.30305  1.0000
  C   C2        1.0  0.11099  0.69131  0.31385  1.0000
  H   H5        1.0  0.11251  0.67623  0.27366  1.0000
  H   H6        1.0  0.32425  0.71533  0.26947  1.0000
  C   C3        1.0  0.12019  0.12647  0.22156  1.0000
  C   C4        1.0  0.10557  0.10142  0.22394  1.0000
  H   H7        1.0  0.09454  0.09433  0.16755  1.0000
  C   C5        1.0  0.14524  0.16241  0.30452  1.0000
  C   C6        1.0  0.16282  0.21523  0.31656  1.0000
  C   C7        1.0  0.15231  0.20517  0.23402  1.0000
  C   C8        1.0  0.14351  0.17860  0.22667  1.0000
  C   C9        1.0  0.13147  0.16818  0.14600  1.0000
  C   C10       1.0  0.11996  0.14227  0.14342  1.0000
  H   H8        1.0  0.12982  0.17963  0.08948  1.0000
  H   H9        1.0  0.11007  0.13544  0.08513  1.0000
  H   H10       1.0  0.14989  0.21748  0.17972  1.0000
  N   N1        1.0  0.16636  0.24082  0.32273  1.0000
  C   C11       1.0  0.82320  0.90691  0.22163  1.0000
  C   C12       1.0  0.83798  0.93189  0.22383  1.0000
  H   H11       1.0  0.84824  0.93962  0.16726  1.0000
  C   C13       1.0  0.79900  0.87012  0.30491  1.0000
  C   C14       1.0  0.78139  0.81721  0.31732  1.0000
  C   C15       1.0  0.79088  0.82817  0.23465  1.0000
  C   C16       1.0  0.79970  0.85480  0.22712  1.0000
  C   C17       1.0  0.81075  0.86609  0.14631  1.0000
  C   C18       1.0  0.82234  0.89201  0.14352  1.0000
  H   H12       1.0  0.81167  0.85527  0.08985  1.0000
  H   H13       1.0  0.83157  0.89944  0.08517  1.0000
  H   H14       1.0  0.79260  0.81646  0.18040  1.0000
  N   N2        1.0  0.77787  0.79156  0.32365  1.0000
  C   C19       1.0  0.83427  0.10688  0.29844  1.0000
  N   N3        1.0  0.81961  0.13044  0.30552  1.0000
  C   C20       1.0  0.78368  0.20585  0.30783  1.0000
  H   H15       1.0  0.83741  0.09948  0.23638  1.0000
  N   N4        1.0  0.79392  0.18072  0.31028  1.0000
  H   H16       1.0  0.77918  0.21464  0.24712  1.0000
  C   C21       1.0  0.11014  0.92560  0.29854  1.0000
  N   N5        1.0  0.12497  0.90200  0.30558  1.0000
  C   C22       1.0  0.16180  0.82678  0.30789  1.0000
  H   H17       1.0  0.10632  0.93374  0.23649  1.0000
  N   N6        1.0  0.15124  0.85179  0.31033  1.0000
  H   H18       1.0  0.16581  0.81874  0.24720  1.0000
  C   C23       1.0  0.24677  0.54395  0.25393  1.0000
  C   C24       1.0  0.24700  0.57136  0.26114  1.0000
  H   H19       1.0  0.24649  0.58291  0.20462  1.0000
  C   C25       1.0  0.24894  0.50107  0.32893  1.0000
  C   C26       1.0  0.25319  0.44653  0.32317  1.0000
  C   C27       1.0  0.25086  0.46135  0.24292  1.0000
  C   C28       1.0  0.24870  0.48883  0.24478  1.0000
  C   C29       1.0  0.24687  0.50430  0.16601  1.0000
  C   C30       1.0  0.24581  0.53166  0.17057  1.0000
  H   H20       1.0  0.24669  0.49581  0.10487  1.0000
  H   H21       1.0  0.24492  0.54252  0.11262  1.0000
  H   H22       1.0  0.25092  0.45212  0.18311  1.0000
  N   N7        1.0  0.25615  0.42087  0.32758  1.0000
  C   C31       1.0  0.69660  0.48946  0.25327  1.0000
  C   C32       1.0  0.69638  0.46196  0.26038  1.0000
  H   H23       1.0  0.69634  0.45108  0.20383  1.0000
  C   C33       1.0  0.69527  0.53145  0.32842  1.0000
  C   C34       1.0  0.69098  0.58604  0.32285  1.0000
  C   C35       1.0  0.69247  0.57218  0.24256  1.0000
  C   C36       1.0  0.69464  0.54469  0.24431  1.0000
  C   C37       1.0  0.69564  0.53015  0.16551  1.0000
  C   C38       1.0  0.69672  0.50274  0.16996  1.0000
  H   H24       1.0  0.69517  0.53937  0.10440  1.0000
  H   H25       1.0  0.69696  0.49256  0.11199  1.0000
  H   H26       1.0  0.69178  0.58213  0.18278  1.0000
  N   N8        1.0  0.68807  0.61165  0.32734  1.0000
  C   C39       1.0  0.90747  0.34659  0.30673  1.0000
  N   N9        1.0  0.94097  0.34523  0.31453  1.0000
  C   C40       1.0  0.04420  0.33780  0.32322  1.0000
  H   H27       1.0  0.89701  0.34944  0.24496  1.0000
  N   N10       1.0  0.01084  0.34091  0.32309  1.0000
  H   H28       1.0  0.05627  0.33901  0.26400  1.0000
  C   C41       1.0  0.03641  0.68559  0.30411  1.0000
  N   N11       1.0  0.00303  0.68700  0.31244  1.0000
  C   C42       1.0  0.89994  0.69441  0.32277  1.0000
  H   H29       1.0  0.04598  0.68314  0.24230  1.0000
  N   N12       1.0  0.93330  0.69134  0.32211  1.0000
  H   H30       1.0  0.88703  0.69371  0.26381  1.0000
  C   C43       1.0  0.51126  0.32152  0.27474  1.0000
  C   C44       1.0  0.54617  0.32328  0.27857  1.0000
  H   H31       1.0  0.55918  0.32435  0.22066  1.0000
  C   C45       1.0  0.40632  0.32528  0.27044  1.0000
  C   C46       1.0  0.44109  0.32257  0.27065  1.0000
  C   C47       1.0  0.45892  0.32104  0.19080  1.0000
  C   C48       1.0  0.49370  0.32045  0.19284  1.0000
  H   H32       1.0  0.44678  0.32111  0.13044  1.0000
  H   H33       1.0  0.50608  0.32015  0.13393  1.0000
  H   H34       1.0  0.39355  0.32639  0.21098  1.0000
  C   C49       1.0  0.43212  0.71122  0.27588  1.0000
  C   C50       1.0  0.39725  0.70941  0.27993  1.0000
  H   H35       1.0  0.38351  0.70906  0.22212  1.0000
  C   C51       1.0  0.53702  0.70756  0.27098  1.0000
  C   C52       1.0  0.50224  0.71023  0.27139  1.0000
  C   C53       1.0  0.48342  0.71261  0.19163  1.0000
  C   C54       1.0  0.44867  0.71319  0.19388  1.0000
  H   H36       1.0  0.49481  0.71317  0.13120  1.0000
  H   H37       1.0  0.43556  0.71408  0.13501  1.0000
  H   H38       1.0  0.54904  0.70707  0.21144  1.0000
  C   C55       1.0  0.95485  0.01651  0.34552  1.0000
  C   C56       1.0  0.93586  0.99603  0.30890  1.0000
  C   C57       1.0  0.90095  0.99699  0.30616  1.0000
  C   C58       1.0  0.88492  0.01900  0.34037  1.0000
  C   C59       1.0  0.90329  0.03985  0.37688  1.0000
  C   C60       1.0  0.93819  0.03831  0.37938  1.0000
  H   H39       1.0  0.94768  0.98023  0.28341  1.0000
  H   H40       1.0  0.95173  0.05332  0.40592  1.0000
  H   H41       1.0  0.85959  0.01984  0.33854  1.0000
  C   C61       1.0  0.99001  0.01543  0.34562  1.0000
  C   C62       1.0  0.00703  0.99321  0.37931  1.0000
  C   C63       1.0  0.04191  0.99170  0.37698  1.0000
  C   C64       1.0  0.05989  0.01302  0.34087  1.0000
  C   C65       1.0  0.04348  0.03545  0.30679  1.0000
  C   C66       1.0  0.00860  0.03637  0.30936  1.0000
  H   H42       1.0  0.99379  0.97787  0.40560  1.0000
  H   H43       1.0  0.08520  0.01221  0.33922  1.0000
  H   H44       1.0  0.99650  0.05248  0.28399  1.0000
  C   C67       1.0  0.06073  0.05672  0.27362  1.0000
  C   C68       1.0  0.88779  0.06178  0.40801  1.0000
  C   C69       1.0  0.88331  0.97616  0.27260  1.0000
  C   C70       1.0  0.05774  0.96939  0.40807  1.0000
  H   H45       1.0  0.05093  0.06706  0.22308  1.0000
  H   H46       1.0  0.89751  0.07090  0.46021  1.0000
  H   H47       1.0  0.89257  0.96635  0.22226  1.0000
  H   H48       1.0  0.04869  0.95971  0.46044  1.0000
  C   C71       1.0  0.21089  0.32413  0.36574  1.0000
  C   C72       1.0  0.21146  0.29646  0.36652  1.0000
  C   C73       1.0  0.18232  0.28137  0.37213  1.0000
  C   C74       1.0  0.15149  0.29408  0.37504  1.0000
  C   C75       1.0  0.14939  0.32159  0.37351  1.0000
  C   C76       1.0  0.17924  0.33613  0.37033  1.0000
  H   H49       1.0  0.23335  0.28683  0.35956  1.0000
  H   H50       1.0  0.17759  0.35601  0.37177  1.0000
  H   H51       1.0  0.13026  0.28307  0.37695  1.0000
  C   C77       1.0  0.24119  0.33898  0.35615  1.0000
  C   C78       1.0  0.27250  0.32928  0.38618  1.0000
  C   C79       1.0  0.30238  0.34309  0.37143  1.0000
  C   C80       1.0  0.30073  0.36817  0.33103  1.0000
  C   C81       1.0  0.27017  0.37883  0.30321  1.0000
  C   C82       1.0  0.24102  0.36397  0.31376  1.0000
  H   H52       1.0  0.27388  0.31172  0.41955  1.0000
  H   H53       1.0  0.32190  0.37911  0.32415  1.0000
  H   H54       1.0  0.21937  0.37178  0.28954  1.0000
  C   C83       1.0  0.26856  0.40441  0.27433  1.0000
  C   C84       1.0  0.11877  0.33397  0.36791  1.0000
  C   C85       1.0  0.18423  0.25453  0.37570  1.0000
  C   C86       1.0  0.33273  0.33285  0.39833  1.0000
  H   H55       1.0  0.28001  0.41008  0.21907  1.0000
  H   H56       1.0  0.11657  0.35024  0.33100  1.0000
  H   H57       1.0  0.19940  0.24607  0.42027  1.0000
  H   H58       1.0  0.33542  0.32506  0.45915  1.0000
  C   C87       1.0  0.73381  0.70783  0.36655  1.0000
  C   C88       1.0  0.73329  0.73549  0.36756  1.0000
  C   C89       1.0  0.76252  0.75048  0.37333  1.0000
  C   C90       1.0  0.79337  0.73771  0.37618  1.0000
  C   C91       1.0  0.79543  0.71022  0.37446  1.0000
  C   C92       1.0  0.76550  0.69575  0.37115  1.0000
  H   H59       1.0  0.71134  0.74522  0.36060  1.0000
  H   H60       1.0  0.76714  0.67585  0.37240  1.0000
  H   H61       1.0  0.81462  0.74868  0.37818  1.0000
  C   C93       1.0  0.70337  0.69313  0.35664  1.0000
  C   C94       1.0  0.67239  0.70249  0.38653  1.0000
  C   C95       1.0  0.64233  0.68888  0.37147  1.0000
  C   C96       1.0  0.64352  0.66429  0.33088  1.0000
  C   C97       1.0  0.67378  0.65397  0.30313  1.0000
  C   C98       1.0  0.70306  0.66867  0.31400  1.0000
  H   H62       1.0  0.67139  0.71963  0.42006  1.0000
  H   H63       1.0  0.62228  0.65345  0.32375  1.0000
  H   H64       1.0  0.72444  0.66114  0.28984  1.0000
  C   C99       1.0  0.67507  0.62874  0.27410  1.0000
  C   C100      1.0  0.82598  0.69788  0.36867  1.0000
  C   C101      1.0  0.76070  0.77728  0.37692  1.0000
  C   C102      1.0  0.61226  0.69878  0.39839  1.0000
  H   H65       1.0  0.66302  0.62373  0.21877  1.0000
  H   H66       1.0  0.82764  0.68192  0.33234  1.0000
  H   H67       1.0  0.74616  0.78524  0.42170  1.0000
  H   H68       1.0  0.61033  0.70603  0.45900  1.0000
  C   C103      1.0  0.74243  0.32804  0.35787  1.0000
  C   C104      1.0  0.74472  0.30222  0.39281  1.0000
  C   C105      1.0  0.77534  0.28928  0.39968  1.0000
  C   C106      1.0  0.80443  0.30232  0.37314  1.0000
  C   C107      1.0  0.80339  0.32825  0.33956  1.0000
  C   C108      1.0  0.77217  0.34056  0.33050  1.0000
  H   H69       1.0  0.72403  0.29286  0.41595  1.0000
  H   H70       1.0  0.82673  0.29290  0.37938  1.0000
  C   C109      1.0  0.71125  0.34140  0.35705  1.0000
  C   C110      1.0  0.68086  0.32860  0.33667  1.0000
  C   C111      1.0  0.65005  0.34146  0.34209  1.0000
  C   C112      1.0  0.64994  0.36808  0.36509  1.0000
  C   C113      1.0  0.67965  0.38145  0.38402  1.0000
  C   C114      1.0  0.70989  0.36794  0.38114  1.0000
  H   H71       1.0  0.68109  0.30952  0.31768  1.0000
  H   H72       1.0  0.62801  0.37807  0.36601  1.0000
  H   H73       1.0  0.73118  0.37766  0.39831  1.0000
  C   C115      1.0  0.67905  0.40770  0.40115  1.0000
  C   C116      1.0  0.77728  0.26426  0.43330  1.0000
  C   C117      1.0  0.62049  0.32890  0.32125  1.0000
  H   H74       1.0  0.66500  0.41419  0.44975  1.0000
  H   H75       1.0  0.78238  0.26146  0.49767  1.0000
  C   C118      1.0  0.20167  0.70408  0.35713  1.0000
  C   C119      1.0  0.19942  0.72950  0.39183  1.0000
  C   C120      1.0  0.16872  0.74219  0.39790  1.0000
  C   C121      1.0  0.13955  0.72931  0.37035  1.0000
  C   C122      1.0  0.14054  0.70378  0.33674  1.0000
  C   C123      1.0  0.17182  0.69175  0.32874  1.0000
  H   H76       1.0  0.22020  0.73869  0.41568  1.0000
  H   H77       1.0  0.11721  0.73854  0.37584  1.0000
  C   C124      1.0  0.23291  0.69081  0.35746  1.0000
  C   C125      1.0  0.26312  0.70387  0.33785  1.0000
  C   C126      1.0  0.29401  0.69096  0.34390  1.0000
  C   C127      1.0  0.29434  0.66408  0.36701  1.0000
  C   C128      1.0  0.26481  0.65046  0.38533  1.0000
  C   C129      1.0  0.23453  0.66399  0.38174  1.0000
  H   H78       1.0  0.26269  0.72316  0.31873  1.0000
  H   H79       1.0  0.31627  0.65407  0.36823  1.0000
  H   H80       1.0  0.21340  0.65406  0.39838  1.0000
  C   C130      1.0  0.26559  0.62401  0.40243  1.0000
  C   C131      1.0  0.16662  0.76675  0.43205  1.0000
  C   C132      1.0  0.32339  0.70372  0.32321  1.0000
  H   H81       1.0  0.27998  0.61700  0.45157  1.0000
  H   H82       1.0  0.15751  0.76875  0.49257  1.0000
  C   C133      1.0  0.10381  0.08697  0.30506  1.0000
  C   C134      1.0  0.11906  0.09744  0.38150  1.0000
  N   N13       1.0  0.13273  0.12159  0.37785  1.0000
  C   C135      1.0  0.13360  0.13648  0.30203  1.0000
  C   C136      1.0  0.16473  0.19800  0.39108  1.0000
  H   H83       1.0  0.11808  0.08787  0.44184  1.0000
  N   N14       1.0  0.15571  0.17270  0.38281  1.0000
  H   H84       1.0  0.17094  0.20452  0.45300  1.0000
  N   N15       1.0  0.08587  0.06553  0.31709  1.0000
  C   C137      1.0  0.84082  0.94542  0.30487  1.0000
  C   C138      1.0  0.82644  0.93415  0.38143  1.0000
  N   N16       1.0  0.81262  0.91009  0.37798  1.0000
  C   C139      1.0  0.81074  0.89605  0.30223  1.0000
  C   C140      1.0  0.78048  0.83361  0.39178  1.0000
  H   H85       1.0  0.82818  0.94307  0.44170  1.0000
  N   N17       1.0  0.78949  0.85898  0.38333  1.0000
  H   H86       1.0  0.77505  0.82641  0.45379  1.0000
  N   N18       1.0  0.85883  0.96677  0.31649  1.0000
  C   C141      1.0  0.84689  0.09381  0.37502  1.0000
  C   C142      1.0  0.81531  0.14229  0.38466  1.0000
  C   C143      1.0  0.82616  0.12956  0.46478  1.0000
  C   C144      1.0  0.84183  0.10511  0.45891  1.0000
  H   H87       1.0  0.85052  0.09588  0.51558  1.0000
  C   C145      1.0  0.80212  0.16767  0.38709  1.0000
  C   C146      1.0  0.78188  0.22001  0.38709  1.0000
  C   C147      1.0  0.78922  0.20680  0.46863  1.0000
  C   C148      1.0  0.79961  0.18054  0.46967  1.0000
  C   C149      1.0  0.80920  0.16736  0.54938  1.0000
  C   C150      1.0  0.82235  0.14204  0.54697  1.0000
  H   H88       1.0  0.80781  0.17643  0.60934  1.0000
  H   H89       1.0  0.83028  0.13323  0.60520  1.0000
  H   H90       1.0  0.78873  0.21665  0.52715  1.0000
  N   N19       1.0  0.77709  0.24549  0.37804  1.0000
  N   N20       1.0  0.86380  0.07214  0.36289  1.0000
  C   C151      1.0  0.09825  0.93770  0.37507  1.0000
  C   C152      1.0  0.13013  0.88919  0.38467  1.0000
  C   C153      1.0  0.12001  0.90090  0.46476  1.0000
  C   C154      1.0  0.10416  0.92538  0.45891  1.0000
  H   H91       1.0  0.09602  0.93389  0.51558  1.0000
  C   C155      1.0  0.14358  0.86384  0.38709  1.0000
  C   C156      1.0  0.16443  0.81164  0.38705  1.0000
  C   C157      1.0  0.15781  0.82385  0.46858  1.0000
  C   C158      1.0  0.14709  0.85002  0.46963  1.0000
  C   C159      1.0  0.13819  0.86218  0.54932  1.0000
  C   C160      1.0  0.12474  0.88744  0.54690  1.0000
  H   H92       1.0  0.14032  0.85241  0.60926  1.0000
  H   H93       1.0  0.11741  0.89553  0.60513  1.0000
  H   H94       1.0  0.15929  0.81336  0.52713  1.0000
  N   N21       1.0  0.16962  0.78631  0.37806  1.0000
  N   N22       1.0  0.08117  0.95952  0.36293  1.0000
  C   C161      1.0  0.24939  0.58304  0.34528  1.0000
  C   C162      1.0  0.25009  0.56666  0.42203  1.0000
  N   N23       1.0  0.24957  0.54040  0.41362  1.0000
  C   C163      1.0  0.24816  0.52850  0.33351  1.0000
  C   C164      1.0  0.25231  0.45977  0.40443  1.0000
  H   H95       1.0  0.25123  0.57422  0.48445  1.0000
  N   N24       1.0  0.25060  0.48614  0.40466  1.0000
  H   H96       1.0  0.25386  0.44983  0.46410  1.0000
  N   N25       1.0  0.25082  0.60882  0.34755  1.0000
  C   C165      1.0  0.69488  0.44929  0.34448  1.0000
  C   C166      1.0  0.69500  0.46477  0.42129  1.0000
  N   N26       1.0  0.69546  0.49112  0.41297  1.0000
  C   C167      1.0  0.69605  0.50397  0.33291  1.0000
  C   C168      1.0  0.69270  0.57184  0.40407  1.0000
  H   H97       1.0  0.69450  0.45646  0.48367  1.0000
  N   N27       1.0  0.69440  0.54547  0.40420  1.0000
  H   H98       1.0  0.69178  0.58107  0.46376  1.0000
  N   N28       1.0  0.69345  0.42350  0.34668  1.0000
  C   C169      1.0  0.88759  0.34339  0.38281  1.0000
  C   C170      1.0  0.95734  0.34087  0.39337  1.0000
  C   C171      1.0  0.93859  0.33763  0.47221  1.0000
  C   C172      1.0  0.90376  0.33919  0.46578  1.0000
  H   H99       1.0  0.88992  0.33636  0.52182  1.0000
  C   C173      1.0  0.99222  0.33847  0.39760  1.0000
  C   C174      1.0  0.06142  0.33123  0.40311  1.0000
  C   C175      1.0  0.04293  0.32840  0.48160  1.0000
  C   C176      1.0  0.00834  0.33231  0.48026  1.0000
  C   C177      1.0  0.98947  0.32941  0.55816  1.0000
  C   C178      1.0  0.95491  0.33222  0.55428  1.0000
  H   H100      1.0  0.00066  0.32490  0.61809  1.0000
  H   H101      1.0  0.94172  0.32962  0.61145  1.0000
  H   H102      1.0  0.05473  0.32296  0.53990  1.0000
  N   N29       1.0  0.09300  0.32407  0.40504  1.0000
  N   N30       1.0  0.85472  0.34243  0.38202  1.0000
  C   C179      1.0  0.05738  0.68810  0.37972  1.0000
  C   C180      1.0  0.98779  0.69077  0.39139  1.0000
  C   C181      1.0  0.00766  0.69330  0.46978  1.0000
  C   C182      1.0  0.04239  0.69164  0.46282  1.0000
  H   H103      1.0  0.05702  0.69392  0.51854  1.0000
  C   C183      1.0  0.95298  0.69316  0.39616  1.0000
  C   C184      1.0  0.88382  0.70025  0.40275  1.0000
  C   C185      1.0  0.90345  0.70250  0.48072  1.0000
  C   C186      1.0  0.93803  0.69863  0.47889  1.0000
  C   C187      1.0  0.95801  0.70088  0.55633  1.0000
  C   C188      1.0  0.99250  0.69806  0.55192  1.0000
  H   H104      1.0  0.94766  0.70488  0.61632  1.0000
  H   H105      1.0  0.00650  0.70012  0.60879  1.0000
  H   H106      1.0  0.89248  0.70745  0.53906  1.0000
  N   N31       1.0  0.85229  0.70743  0.40503  1.0000
  N   N32       1.0  0.09026  0.68865  0.37835  1.0000
  C   C189      1.0  0.56305  0.32608  0.36106  1.0000
  C   C190      1.0  0.54403  0.32651  0.43891  1.0000
  N   N33       1.0  0.51057  0.32473  0.43374  1.0000
  C   C191      1.0  0.49345  0.32235  0.35561  1.0000
  C   C192      1.0  0.45847  0.32273  0.35367  1.0000
  C   C193      1.0  0.40757  0.32715  0.43135  1.0000
  C   C194      1.0  0.38905  0.32780  0.35077  1.0000
  H   H107      1.0  0.55498  0.32935  0.49984  1.0000
  N   N34       1.0  0.44101  0.32497  0.42992  1.0000
  H   H108      1.0  0.39645  0.32986  0.49106  1.0000
  N   N35       1.0  0.35728  0.33417  0.34497  1.0000
  N   N36       1.0  0.59467  0.33296  0.36795  1.0000
  C   C195      1.0  0.38138  0.70576  0.36256  1.0000
  C   C196      1.0  0.40138  0.70452  0.44030  1.0000
  N   N37       1.0  0.43478  0.70633  0.43491  1.0000
  C   C197      1.0  0.45093  0.70953  0.35667  1.0000
  C   C198      1.0  0.48589  0.70919  0.35453  1.0000
  C   C199      1.0  0.53778  0.70398  0.43191  1.0000
  C   C200      1.0  0.55530  0.70420  0.35121  1.0000
  H   H109      1.0  0.39116  0.70107  0.50132  1.0000
  N   N38       1.0  0.50432  0.70615  0.43067  1.0000
  H   H110      1.0  0.54965  0.70065  0.49158  1.0000
  N   N39       1.0  0.58702  0.69794  0.34530  1.0000
  N   N40       1.0  0.34979  0.69893  0.36952  1.0000
