data_image0
_chemical_formula_structural       CNC2NCH2CNC2NCH2CNC2NCH2NC3NCH2NC3NCH2NC3NCH2C24H15NHNHNHC24H15NHNHNHC24H15NHNHNHC24H15NHNHNHNC3NCH2NC3NCH2NC3NCH2CNC2NCH2CNC2NCH2CNC2NCH2
_chemical_formula_sum              "C144 N36 H96"
_cell_length_a       55.6906
_cell_length_b       55.6909
_cell_length_c       15.0067
_cell_angle_alpha    90
_cell_angle_beta     90
_cell_angle_gamma    119.999

_space_group_name_H-M_alt    "P 1"
_space_group_IT_number       1

loop_
  _space_group_symop_operation_xyz
  'x, y, z'

loop_
  _atom_site_type_symbol
  _atom_site_label
  _atom_site_symmetry_multiplicity
  _atom_site_fract_x
  _atom_site_fract_y
  _atom_site_fract_z
  _atom_site_occupancy
  C   C1        1.0  0.18533  0.10054  0.30470  1.0000
  N   N1        1.0  0.23251  0.12425  0.25728  1.0000
  C   C2        1.0  0.20523  0.11026  0.23524  1.0000
  C   C3        1.0  0.19898  0.10701  0.15097  1.0000
  N   N2        1.0  0.19327  0.10400  0.07670  1.0000
  C   C4        1.0  0.15489  0.08577  0.28922  1.0000
  H   H1        1.0  0.14885  0.06517  0.26315  1.0000
  H   H2        1.0  0.15027  0.09701  0.23862  1.0000
  C   C5        1.0  0.88746  0.08466  0.30474  1.0000
  N   N3        1.0  0.86373  0.10812  0.25730  1.0000
  C   C6        1.0  0.87770  0.09481  0.23527  1.0000
  C   C7        1.0  0.88091  0.09176  0.15100  1.0000
  N   N4        1.0  0.88387  0.08901  0.07673  1.0000
  C   C8        1.0  0.90222  0.06898  0.28926  1.0000
  H   H3        1.0  0.92281  0.08352  0.26315  1.0000
  H   H4        1.0  0.89096  0.05310  0.23871  1.0000
  C   C9        1.0  0.90332  0.80265  0.30472  1.0000
  N   N5        1.0  0.87984  0.75547  0.25729  1.0000
  C   C10       1.0  0.89315  0.78275  0.23525  1.0000
  C   C11       1.0  0.89617  0.78901  0.15098  1.0000
  N   N6        1.0  0.89889  0.79472  0.07672  1.0000
  C   C12       1.0  0.91899  0.83309  0.28924  1.0000
  H   H5        1.0  0.90445  0.83914  0.26317  1.0000
  H   H6        1.0  0.93486  0.83771  0.23865  1.0000
  N   N7        1.0  0.53819  0.13105  0.28592  1.0000
  C   C13       1.0  0.56442  0.13905  0.25962  1.0000
  C   C14       1.0  0.58285  0.13810  0.32277  1.0000
  C   C15       1.0  0.57085  0.14729  0.17761  1.0000
  N   N8        1.0  0.57646  0.15450  0.10507  1.0000
  C   C16       1.0  0.61251  0.14715  0.30653  1.0000
  H   H7        1.0  0.61525  0.12921  0.31621  1.0000
  H   H8        1.0  0.61849  0.15431  0.23803  1.0000
  N   N9        1.0  0.85693  0.40700  0.28595  1.0000
  C   C17       1.0  0.84892  0.42523  0.25964  1.0000
  C   C18       1.0  0.84987  0.44461  0.32277  1.0000
  C   C19       1.0  0.84067  0.42342  0.17764  1.0000
  N   N10       1.0  0.83346  0.42181  0.10510  1.0000
  C   C20       1.0  0.84082  0.46522  0.30653  1.0000
  H   H9        1.0  0.85876  0.48590  0.31618  1.0000
  H   H10       1.0  0.83366  0.46404  0.23803  1.0000
  N   N11       1.0  0.58097  0.44979  0.28594  1.0000
  C   C21       1.0  0.56275  0.42355  0.25966  1.0000
  C   C22       1.0  0.54337  0.40513  0.32280  1.0000
  C   C23       1.0  0.56456  0.41712  0.17766  1.0000
  N   N12       1.0  0.56617  0.41150  0.10512  1.0000
  C   C24       1.0  0.52276  0.37546  0.30658  1.0000
  H   H11       1.0  0.50208  0.37273  0.31622  1.0000
  H   H12       1.0  0.52394  0.36948  0.23809  1.0000
  C   C25       1.0  0.02149  0.01329  0.35780  1.0000
  C   C26       1.0  0.00905  0.98407  0.35779  1.0000
  C   C27       1.0  0.97992  0.96649  0.35783  1.0000
  C   C28       1.0  0.96315  0.97894  0.35783  1.0000
  C   C29       1.0  0.97469  0.00806  0.35783  1.0000
  C   C30       1.0  0.00391  0.02483  0.35780  1.0000
  C   C31       1.0  0.96783  0.93703  0.35902  1.0000
  C   C32       1.0  0.97817  0.92363  0.30374  1.0000
  C   C33       1.0  0.96670  0.89469  0.30647  1.0000
  C   C34       1.0  0.94428  0.87831  0.36383  1.0000
  C   C35       1.0  0.93380  0.89140  0.41898  1.0000
  C   C36       1.0  0.94542  0.92036  0.41664  1.0000
  C   C37       1.0  0.05095  0.03065  0.35898  1.0000
  C   C38       1.0  0.06762  0.02491  0.41659  1.0000
  C   C39       1.0  0.09659  0.04226  0.41892  1.0000
  C   C40       1.0  0.10967  0.06583  0.36379  1.0000
  C   C41       1.0  0.09329  0.07187  0.30643  1.0000
  C   C42       1.0  0.06435  0.05440  0.30370  1.0000
  C   C43       1.0  0.95732  0.02015  0.35904  1.0000
  C   C44       1.0  0.96307  0.04257  0.41666  1.0000
  C   C45       1.0  0.94573  0.05419  0.41897  1.0000
  C   C46       1.0  0.92215  0.04370  0.36388  1.0000
  C   C47       1.0  0.91611  0.02128  0.30653  1.0000
  C   C48       1.0  0.93357  0.00981  0.30380  1.0000
  H   H13       1.0  0.10808  0.03783  0.46201  1.0000
  H   H14       1.0  0.05877  0.00837  0.45923  1.0000
  H   H15       1.0  0.10235  0.08908  0.26672  1.0000
  H   H16       1.0  0.05317  0.05918  0.26039  1.0000
  H   H17       1.0  0.97964  0.05028  0.45921  1.0000
  H   H18       1.0  0.95018  0.07013  0.46201  1.0000
  H   H19       1.0  0.92879  0.99384  0.26048  1.0000
  H   H20       1.0  0.89889  0.01312  0.26685  1.0000
  H   H21       1.0  0.93773  0.92922  0.45926  1.0000
  H   H22       1.0  0.91787  0.87990  0.46204  1.0000
  H   H23       1.0  0.97485  0.88563  0.26675  1.0000
  H   H24       1.0  0.99413  0.93481  0.26042  1.0000
  H   H25       1.0  0.02149  0.97540  0.35822  1.0000
  H   H26       1.0  0.01258  0.04595  0.35822  1.0000
  H   H27       1.0  0.94203  0.96649  0.35826  1.0000
  N   N13       1.0  0.93259  0.84929  0.37107  1.0000
  H   H28       1.0  0.94780  0.84520  0.39152  1.0000
  N   N14       1.0  0.90483  0.05540  0.37111  1.0000
  H   H29       1.0  0.88554  0.04020  0.39161  1.0000
  N   N15       1.0  0.13869  0.08317  0.37105  1.0000
  H   H30       1.0  0.14277  0.10246  0.39150  1.0000
  C   C49       1.0  0.40564  0.20228  0.31390  1.0000
  C   C50       1.0  0.41649  0.18408  0.31472  1.0000
  C   C51       1.0  0.44524  0.19388  0.32240  1.0000
  C   C52       1.0  0.46343  0.22280  0.32938  1.0000
  C   C53       1.0  0.45333  0.24158  0.33064  1.0000
  C   C54       1.0  0.42449  0.23103  0.32280  1.0000
  C   C55       1.0  0.45550  0.17498  0.32242  1.0000
  C   C56       1.0  0.44308  0.15086  0.37632  1.0000
  C   C57       1.0  0.45255  0.13171  0.37408  1.0000
  C   C58       1.0  0.47467  0.13620  0.31764  1.0000
  C   C59       1.0  0.48725  0.16016  0.26402  1.0000
  C   C60       1.0  0.47786  0.17938  0.26665  1.0000
  C   C61       1.0  0.37653  0.19189  0.30448  1.0000
  C   C62       1.0  0.36045  0.17052  0.24278  1.0000
  C   C63       1.0  0.33171  0.15991  0.23474  1.0000
  C   C64       1.0  0.31826  0.17046  0.28785  1.0000
  C   C65       1.0  0.33414  0.19219  0.34810  1.0000
  C   C66       1.0  0.36281  0.20258  0.35675  1.0000
  C   C67       1.0  0.47176  0.27054  0.33971  1.0000
  C   C68       1.0  0.46836  0.28563  0.40964  1.0000
  C   C69       1.0  0.48676  0.31427  0.41917  1.0000
  C   C70       1.0  0.50850  0.32856  0.35776  1.0000
  C   C71       1.0  0.51188  0.31363  0.28744  1.0000
  C   C72       1.0  0.49385  0.28489  0.27895  1.0000
  H   H31       1.0  0.32061  0.14440  0.18992  1.0000
  H   H32       1.0  0.36954  0.16259  0.20220  1.0000
  H   H33       1.0  0.32482  0.20030  0.38683  1.0000
  H   H34       1.0  0.37346  0.21772  0.40309  1.0000
  H   H35       1.0  0.45276  0.27578  0.45527  1.0000
  H   H36       1.0  0.48411  0.32473  0.47077  1.0000
  H   H37       1.0  0.49674  0.27462  0.22724  1.0000
  H   H38       1.0  0.52772  0.32362  0.24280  1.0000
  H   H39       1.0  0.48706  0.19628  0.22550  1.0000
  H   H40       1.0  0.50317  0.16359  0.22221  1.0000
  H   H41       1.0  0.44311  0.11435  0.41310  1.0000
  H   H42       1.0  0.42705  0.14706  0.41818  1.0000
  H   H43       1.0  0.40315  0.16318  0.30933  1.0000
  H   H44       1.0  0.41724  0.24468  0.32056  1.0000
  H   H45       1.0  0.48427  0.23027  0.33678  1.0000
  N   N16       1.0  0.48417  0.11701  0.31155  1.0000
  H   H46       1.0  0.46821  0.09806  0.29174  1.0000
  N   N17       1.0  0.52677  0.35727  0.37004  1.0000
  H   H47       1.0  0.54683  0.36112  0.36803  1.0000
  N   N18       1.0  0.28932  0.15896  0.27787  1.0000
  H   H48       1.0  0.28547  0.17437  0.25792  1.0000
  C   C73       1.0  0.78572  0.20325  0.31391  1.0000
  C   C74       1.0  0.80391  0.23229  0.31472  1.0000
  C   C75       1.0  0.79410  0.25123  0.32237  1.0000
  C   C76       1.0  0.76517  0.24049  0.32922  1.0000
  C   C77       1.0  0.74641  0.21163  0.33058  1.0000
  C   C78       1.0  0.75697  0.19334  0.32283  1.0000
  C   C79       1.0  0.81300  0.28040  0.32243  1.0000
  C   C80       1.0  0.83710  0.29209  0.37640  1.0000
  C   C81       1.0  0.85625  0.32070  0.37416  1.0000
  C   C82       1.0  0.85177  0.33835  0.31771  1.0000
  C   C83       1.0  0.82782  0.32697  0.26405  1.0000
  C   C84       1.0  0.80859  0.29836  0.26669  1.0000
  C   C85       1.0  0.79612  0.18453  0.30454  1.0000
  C   C86       1.0  0.81749  0.18982  0.24283  1.0000
  C   C87       1.0  0.82810  0.17169  0.23479  1.0000
  C   C88       1.0  0.81756  0.14770  0.28791  1.0000
  C   C89       1.0  0.79583  0.14185  0.34820  1.0000
  C   C90       1.0  0.78544  0.16013  0.35683  1.0000
  C   C91       1.0  0.71744  0.20108  0.33961  1.0000
  C   C92       1.0  0.70235  0.18258  0.40954  1.0000
  C   C93       1.0  0.67371  0.17235  0.41909  1.0000
  C   C94       1.0  0.65942  0.17980  0.35765  1.0000
  C   C95       1.0  0.67435  0.19809  0.28732  1.0000
  C   C96       1.0  0.70309  0.20880  0.27882  1.0000
  H   H49       1.0  0.84361  0.17610  0.18996  1.0000
  H   H50       1.0  0.82541  0.20684  0.20223  1.0000
  H   H51       1.0  0.78772  0.12442  0.38688  1.0000
  H   H52       1.0  0.77028  0.15563  0.40312  1.0000
  H   H53       1.0  0.71221  0.17687  0.45525  1.0000
  H   H54       1.0  0.66326  0.15926  0.47071  1.0000
  H   H55       1.0  0.71336  0.22197  0.22712  1.0000
  H   H56       1.0  0.66436  0.20394  0.24266  1.0000
  H   H57       1.0  0.79172  0.29065  0.22544  1.0000
  H   H58       1.0  0.82441  0.33946  0.22220  1.0000
  H   H59       1.0  0.87361  0.32863  0.41322  1.0000
  H   H60       1.0  0.84090  0.27986  0.41826  1.0000
  H   H61       1.0  0.82481  0.23985  0.30938  1.0000
  H   H62       1.0  0.74332  0.17244  0.32055  1.0000
  H   H63       1.0  0.75770  0.25386  0.33671  1.0000
  N   N19       1.0  0.87097  0.36703  0.31160  1.0000
  H   H64       1.0  0.88993  0.37001  0.29181  1.0000
  N   N20       1.0  0.63071  0.16935  0.36995  1.0000
  H   H65       1.0  0.62687  0.18558  0.36791  1.0000
  N   N21       1.0  0.82906  0.13025  0.27792  1.0000
  H   H66       1.0  0.81364  0.11100  0.25800  1.0000
  C   C97       1.0  0.78472  0.58234  0.31386  1.0000
  C   C98       1.0  0.75568  0.57149  0.31470  1.0000
  C   C99       1.0  0.73674  0.54273  0.32237  1.0000
  C   C100      1.0  0.74748  0.52455  0.32932  1.0000
  C   C101      1.0  0.77635  0.53465  0.33056  1.0000
  C   C102      1.0  0.79463  0.56349  0.32270  1.0000
  C   C103      1.0  0.70757  0.53246  0.32243  1.0000
  C   C104      1.0  0.69588  0.54488  0.37636  1.0000
  C   C105      1.0  0.66727  0.53542  0.37412  1.0000
  C   C106      1.0  0.64962  0.51330  0.31768  1.0000
  C   C107      1.0  0.66100  0.50072  0.26403  1.0000
  C   C108      1.0  0.68961  0.51009  0.26671  1.0000
  C   C109      1.0  0.80344  0.61145  0.30449  1.0000
  C   C110      1.0  0.79815  0.62754  0.24282  1.0000
  C   C111      1.0  0.81628  0.65627  0.23477  1.0000
  C   C112      1.0  0.84028  0.66972  0.28788  1.0000
  C   C113      1.0  0.84613  0.65384  0.34813  1.0000
  C   C114      1.0  0.82784  0.62517  0.35677  1.0000
  C   C115      1.0  0.78690  0.51623  0.33961  1.0000
  C   C116      1.0  0.80540  0.51964  0.40951  1.0000
  C   C117      1.0  0.81563  0.50123  0.41906  1.0000
  C   C118      1.0  0.80818  0.47949  0.35765  1.0000
  C   C119      1.0  0.78988  0.47612  0.28732  1.0000
  C   C120      1.0  0.77917  0.49415  0.27884  1.0000
  H   H67       1.0  0.81187  0.66737  0.18995  1.0000
  H   H68       1.0  0.78112  0.61844  0.20221  1.0000
  H   H69       1.0  0.86356  0.66316  0.38682  1.0000
  H   H70       1.0  0.83235  0.61451  0.40305  1.0000
  H   H71       1.0  0.81111  0.53522  0.45520  1.0000
  H   H72       1.0  0.82873  0.50388  0.47069  1.0000
  H   H73       1.0  0.76599  0.49125  0.22714  1.0000
  H   H74       1.0  0.78401  0.46027  0.24270  1.0000
  H   H75       1.0  0.69732  0.50092  0.22547  1.0000
  H   H76       1.0  0.64851  0.48481  0.22221  1.0000
  H   H77       1.0  0.65934  0.54485  0.41315  1.0000
  H   H78       1.0  0.70811  0.56091  0.41820  1.0000
  H   H79       1.0  0.74811  0.58482  0.30935  1.0000
  H   H80       1.0  0.81553  0.57075  0.32050  1.0000
  H   H81       1.0  0.73411  0.50371  0.33673  1.0000
  N   N22       1.0  0.62094  0.50381  0.31155  1.0000
  H   H82       1.0  0.61796  0.51979  0.29176  1.0000
  N   N23       1.0  0.81862  0.46122  0.36997  1.0000
  H   H83       1.0  0.80239  0.44116  0.36794  1.0000
  N   N24       1.0  0.85772  0.69867  0.27789  1.0000
  H   H84       1.0  0.87697  0.70251  0.25793  1.0000
  N   N25       1.0  0.19514  0.10499  0.38972  1.0000
  C   C121      1.0  0.22239  0.11843  0.41178  1.0000
  C   C122      1.0  0.24228  0.12920  0.34237  1.0000
  C   C123      1.0  0.22858  0.12103  0.49610  1.0000
  N   N26       1.0  0.23423  0.12339  0.57040  1.0000
  C   C124      1.0  0.27267  0.14497  0.35863  1.0000
  H   H85       1.0  0.27698  0.16062  0.40977  1.0000
  H   H86       1.0  0.27867  0.13038  0.38469  1.0000
  N   N27       1.0  0.88304  0.09006  0.38974  1.0000
  C   C125      1.0  0.86962  0.10389  0.41180  1.0000
  C   C126      1.0  0.85881  0.11298  0.34240  1.0000
  C   C127      1.0  0.86707  0.10752  0.49611  1.0000
  N   N28       1.0  0.86474  0.11085  0.57040  1.0000
  C   C128      1.0  0.84306  0.12760  0.35866  1.0000
  H   H87       1.0  0.82742  0.11628  0.40984  1.0000
  H   H88       1.0  0.85766  0.14820  0.38467  1.0000
  N   N29       1.0  0.89795  0.79285  0.38973  1.0000
  C   C129      1.0  0.88413  0.76560  0.41179  1.0000
  C   C130      1.0  0.87501  0.74570  0.34239  1.0000
  C   C131      1.0  0.88052  0.75941  0.49610  1.0000
  N   N30       1.0  0.87722  0.75376  0.57040  1.0000
  C   C132      1.0  0.86039  0.71532  0.35864  1.0000
  H   H89       1.0  0.87172  0.71100  0.40978  1.0000
  H   H90       1.0  0.83980  0.70933  0.38470  1.0000
  C   C133      1.0  0.52800  0.12192  0.36916  1.0000
  N   N31       1.0  0.57270  0.12883  0.40593  1.0000
  C   C134      1.0  0.54638  0.12069  0.43192  1.0000
  C   C135      1.0  0.53976  0.11265  0.51408  1.0000
  N   N32       1.0  0.53393  0.10562  0.58667  1.0000
  C   C136      1.0  0.49898  0.11433  0.39038  1.0000
  H   H91       1.0  0.49957  0.12749  0.44548  1.0000
  H   H92       1.0  0.48799  0.09288  0.41403  1.0000
  C   C137      1.0  0.86606  0.40596  0.36919  1.0000
  N   N33       1.0  0.85915  0.44374  0.40593  1.0000
  C   C138      1.0  0.86730  0.42557  0.43193  1.0000
  C   C139      1.0  0.87534  0.42699  0.51409  1.0000
  N   N34       1.0  0.88238  0.42821  0.58667  1.0000
  C   C140      1.0  0.87366  0.38453  0.39041  1.0000
  H   H93       1.0  0.86051  0.37197  0.44555  1.0000
  H   H94       1.0  0.89512  0.39500  0.41403  1.0000
  C   C141      1.0  0.58201  0.45998  0.36917  1.0000
  N   N35       1.0  0.54424  0.41528  0.40595  1.0000
  C   C142      1.0  0.56241  0.44161  0.43193  1.0000
  C   C143      1.0  0.56099  0.44823  0.51408  1.0000
  N   N36       1.0  0.55977  0.45406  0.58666  1.0000
  C   C144      1.0  0.60344  0.48901  0.39038  1.0000
  H   H95       1.0  0.61600  0.48843  0.44552  1.0000
  H   H96       1.0  0.59296  0.49999  0.41397  1.0000
