data_image0
_chemical_formula_structural       CNC2H2CO2HCNC2H2CO2HCNC2H2CO2HCNC2H2CO2HCNC2H2CO2HCNC2H2CO2HC4HC3NHCO2HC4HC3NHCO2HC4HC3NHCO2HC4HC3NHCO2HC4HC3NHCO2HC4HC3NHCO2HC4HC3NHCO2HC4HC3NHCO2HC4HC3NHCO2HC4HC3NHCO2HC4HC3NHCO2HC4HC3NHCO2HC6H3C6H3C6H3C6H3C6H3C6H3C6H3C6H3C6H3C6H3C6H3C6H3C4HC3NHCO2HC4HC3NHCO2HC4HC3NHCO2HC4HC3NHCO2HC4HC3NHCO2HC4HC3NHCO2HCNC2H2CO2HCNC2H2CO2HCNC2H2CO2HCNC2H2CO2HCNC2H2CO2HCNC2H2CO2HCNC2H2CO2HCNC2H2CO2HCNC2H2CO2HCNC2H2CO2HCNC2H2CO2HCNC2H2CO2H
_chemical_formula_sum              "C288 N36 H144 O72"
_cell_length_a       56.5309
_cell_length_b       56.5309
_cell_length_c       14.9197
_cell_angle_alpha    90
_cell_angle_beta     90
_cell_angle_gamma    120

_space_group_name_H-M_alt    "P 1"
_space_group_IT_number       1

loop_
  _space_group_symop_operation_xyz
  'x, y, z'

loop_
  _atom_site_type_symbol
  _atom_site_label
  _atom_site_symmetry_multiplicity
  _atom_site_fract_x
  _atom_site_fract_y
  _atom_site_fract_z
  _atom_site_occupancy
  C   C1        1.0  0.23541  0.45084  0.26107  1.0000
  N   N1        1.0  0.22227  0.42322  0.26689  1.0000
  C   C2        1.0  0.20537  0.36448  0.28166  1.0000
  C   C3        1.0  0.19046  0.33551  0.28211  1.0000
  H   H1        1.0  0.19741  0.32516  0.24397  1.0000
  H   H2        1.0  0.24512  0.46003  0.20267  1.0000
  C   C4        1.0  0.22992  0.37766  0.23492  1.0000
  O   O1        1.0  0.22869  0.37481  0.15350  1.0000
  O   O2        1.0  0.25146  0.38165  0.26941  1.0000
  H   H3        1.0  0.25449  0.38250  0.32792  1.0000
  C   C5        1.0  0.55005  0.78003  0.26105  1.0000
  N   N2        1.0  0.57767  0.79450  0.26687  1.0000
  C   C6        1.0  0.63640  0.83637  0.28164  1.0000
  C   C7        1.0  0.66537  0.85044  0.28210  1.0000
  H   H4        1.0  0.67572  0.86773  0.24395  1.0000
  H   H5        1.0  0.54086  0.78052  0.20263  1.0000
  C   C8        1.0  0.62322  0.84773  0.23488  1.0000
  O   O3        1.0  0.62607  0.84935  0.15346  1.0000
  O   O4        1.0  0.61921  0.86528  0.26935  1.0000
  H   H6        1.0  0.61836  0.86745  0.32786  1.0000
  C   C9        1.0  0.22083  0.76550  0.26106  1.0000
  N   N3        1.0  0.20636  0.77863  0.26689  1.0000
  C   C10       1.0  0.16451  0.79552  0.28167  1.0000
  C   C11       1.0  0.15044  0.81042  0.28213  1.0000
  H   H7        1.0  0.13314  0.80348  0.24399  1.0000
  H   H8        1.0  0.22032  0.75579  0.20266  1.0000
  C   C12       1.0  0.15314  0.77097  0.23493  1.0000
  O   O5        1.0  0.15152  0.77220  0.15352  1.0000
  O   O6        1.0  0.13559  0.74942  0.26942  1.0000
  H   H9        1.0  0.13342  0.74640  0.32794  1.0000
  C   C13       1.0  0.76877  0.54674  0.26111  1.0000
  N   N4        1.0  0.78191  0.57436  0.26693  1.0000
  C   C14       1.0  0.79881  0.63310  0.28169  1.0000
  C   C15       1.0  0.81371  0.66207  0.28213  1.0000
  H   H10       1.0  0.80676  0.67242  0.24399  1.0000
  H   H11       1.0  0.75906  0.53755  0.20273  1.0000
  C   C16       1.0  0.77426  0.61992  0.23497  1.0000
  O   O7        1.0  0.77548  0.62276  0.15355  1.0000
  O   O8        1.0  0.75271  0.61593  0.26948  1.0000
  H   H12       1.0  0.74969  0.61508  0.32800  1.0000
  C   C17       1.0  0.45415  0.21751  0.26111  1.0000
  N   N5        1.0  0.42653  0.20304  0.26694  1.0000
  C   C18       1.0  0.36779  0.16120  0.28170  1.0000
  C   C19       1.0  0.33882  0.14713  0.28214  1.0000
  H   H13       1.0  0.32847  0.12984  0.24401  1.0000
  H   H14       1.0  0.46334  0.21698  0.20273  1.0000
  C   C20       1.0  0.38097  0.14983  0.23499  1.0000
  O   O9        1.0  0.37812  0.14820  0.15357  1.0000
  O   O10       1.0  0.38496  0.13227  0.26950  1.0000
  H   H15       1.0  0.38580  0.13010  0.32802  1.0000
  C   C21       1.0  0.78336  0.23212  0.26109  1.0000
  N   N6        1.0  0.79784  0.21898  0.26692  1.0000
  C   C22       1.0  0.83968  0.20208  0.28170  1.0000
  C   C23       1.0  0.85375  0.18718  0.28214  1.0000
  H   H16       1.0  0.87104  0.19413  0.24401  1.0000
  H   H17       1.0  0.78389  0.24184  0.20271  1.0000
  C   C24       1.0  0.85105  0.22664  0.23498  1.0000
  O   O11       1.0  0.85268  0.22542  0.15356  1.0000
  O   O12       1.0  0.86860  0.24818  0.26950  1.0000
  H   H18       1.0  0.87077  0.25120  0.32802  1.0000
  C   C25       1.0  0.23610  0.15624  0.33088  1.0000
  C   C26       1.0  0.20877  0.18708  0.32695  1.0000
  C   C27       1.0  0.20707  0.17069  0.25160  1.0000
  C   C28       1.0  0.22074  0.15540  0.25513  1.0000
  H   H19       1.0  0.22026  0.14410  0.20064  1.0000
  C   C29       1.0  0.19576  0.20340  0.33386  1.0000
  C   C30       1.0  0.16604  0.23228  0.33620  1.0000
  C   C31       1.0  0.15743  0.20807  0.28635  1.0000
  N   N7        1.0  0.17218  0.19516  0.28735  1.0000
  H   H20       1.0  0.14045  0.20022  0.24663  1.0000
  C   C32       1.0  0.19429  0.17070  0.17252  1.0000
  O   O13       1.0  0.17644  0.14884  0.14219  1.0000
  O   O14       1.0  0.20713  0.19028  0.12154  1.0000
  H   H21       1.0  0.20158  0.19146  0.06704  1.0000
  C   C33       1.0  0.84465  0.07536  0.33088  1.0000
  C   C34       1.0  0.81380  0.01718  0.32694  1.0000
  C   C35       1.0  0.83019  0.03188  0.25159  1.0000
  C   C36       1.0  0.84549  0.06084  0.25513  1.0000
  H   H22       1.0  0.85677  0.07165  0.20062  1.0000
  C   C37       1.0  0.79748  0.98786  0.33385  1.0000
  C   C38       1.0  0.76860  0.92926  0.33619  1.0000
  C   C39       1.0  0.79281  0.94486  0.28633  1.0000
  N   N8        1.0  0.80573  0.97252  0.28733  1.0000
  H   H23       1.0  0.80066  0.93573  0.24661  1.0000
  C   C40       1.0  0.83017  0.01909  0.17250  1.0000
  O   O15       1.0  0.85203  0.02310  0.14216  1.0000
  O   O16       1.0  0.81059  0.01235  0.12153  1.0000
  H   H24       1.0  0.80941  0.00562  0.06703  1.0000
  C   C41       1.0  0.92553  0.76479  0.33087  1.0000
  C   C42       1.0  0.98370  0.79212  0.32694  1.0000
  C   C43       1.0  0.96901  0.79382  0.25158  1.0000
  C   C44       1.0  0.94005  0.78015  0.25511  1.0000
  H   H25       1.0  0.92923  0.78062  0.20061  1.0000
  C   C45       1.0  0.01303  0.80513  0.33384  1.0000
  C   C46       1.0  0.07163  0.83484  0.33618  1.0000
  C   C47       1.0  0.05603  0.84345  0.28631  1.0000
  N   N9        1.0  0.02836  0.82870  0.28731  1.0000
  H   H26       1.0  0.06516  0.86043  0.24658  1.0000
  C   C48       1.0  0.98180  0.80659  0.17249  1.0000
  O   O17       1.0  0.97779  0.82443  0.14214  1.0000
  O   O18       1.0  0.98854  0.79374  0.12152  1.0000
  H   H27       1.0  0.99527  0.79929  0.06702  1.0000
  C   C49       1.0  0.76810  0.84136  0.33093  1.0000
  C   C50       1.0  0.79542  0.81051  0.32696  1.0000
  C   C51       1.0  0.79711  0.82689  0.25160  1.0000
  C   C52       1.0  0.78344  0.84219  0.25515  1.0000
  H   H28       1.0  0.78391  0.85348  0.20065  1.0000
  C   C53       1.0  0.80842  0.79419  0.33385  1.0000
  C   C54       1.0  0.83814  0.76530  0.33616  1.0000
  C   C55       1.0  0.84675  0.78951  0.28630  1.0000
  N   N10       1.0  0.83200  0.80243  0.28731  1.0000
  H   H29       1.0  0.86372  0.79736  0.24657  1.0000
  C   C56       1.0  0.80987  0.82687  0.17250  1.0000
  O   O19       1.0  0.82772  0.84873  0.14214  1.0000
  O   O20       1.0  0.79702  0.80729  0.12154  1.0000
  H   H30       1.0  0.80257  0.80610  0.06704  1.0000
  C   C57       1.0  0.15953  0.92224  0.33089  1.0000
  C   C58       1.0  0.19038  0.98041  0.32695  1.0000
  C   C59       1.0  0.17399  0.96572  0.25161  1.0000
  C   C60       1.0  0.15869  0.93675  0.25515  1.0000
  H   H31       1.0  0.14740  0.92594  0.20065  1.0000
  C   C61       1.0  0.20670  0.00973  0.33385  1.0000
  C   C62       1.0  0.23558  0.06834  0.33617  1.0000
  C   C63       1.0  0.21138  0.05274  0.28631  1.0000
  N   N11       1.0  0.19846  0.02507  0.28733  1.0000
  H   H32       1.0  0.20353  0.06186  0.24659  1.0000
  C   C64       1.0  0.17400  0.97851  0.17252  1.0000
  O   O21       1.0  0.15214  0.97449  0.14219  1.0000
  O   O22       1.0  0.19358  0.98524  0.12153  1.0000
  H   H33       1.0  0.19475  0.99197  0.06703  1.0000
  C   C65       1.0  0.07865  0.23279  0.33092  1.0000
  C   C66       1.0  0.02048  0.20547  0.32696  1.0000
  C   C67       1.0  0.03517  0.20377  0.25161  1.0000
  C   C68       1.0  0.06413  0.21744  0.25516  1.0000
  H   H34       1.0  0.07495  0.21696  0.20066  1.0000
  C   C69       1.0  0.99115  0.19246  0.33386  1.0000
  C   C70       1.0  0.93255  0.16275  0.33619  1.0000
  C   C71       1.0  0.94815  0.15414  0.28633  1.0000
  N   N12       1.0  0.97581  0.16889  0.28733  1.0000
  H   H35       1.0  0.93902  0.13716  0.24660  1.0000
  C   C72       1.0  0.02238  0.19101  0.17252  1.0000
  O   O23       1.0  0.02640  0.17316  0.14216  1.0000
  O   O24       1.0  0.01564  0.20385  0.12155  1.0000
  H   H36       1.0  0.00891  0.19831  0.06705  1.0000
  C   C73       1.0  0.23330  0.55283  0.31499  1.0000
  C   C74       1.0  0.22695  0.59944  0.32463  1.0000
  C   C75       1.0  0.23363  0.59208  0.24094  1.0000
  C   C76       1.0  0.23708  0.56893  0.23806  1.0000
  H   H37       1.0  0.24498  0.56520  0.18137  1.0000
  C   C77       1.0  0.22957  0.62556  0.34208  1.0000
  C   C78       1.0  0.24137  0.68057  0.34760  1.0000
  C   C79       1.0  0.22445  0.66224  0.28096  1.0000
  N   N13       1.0  0.21991  0.63628  0.27985  1.0000
  H   H38       1.0  0.21789  0.66889  0.22790  1.0000
  C   C80       1.0  0.24080  0.60877  0.16620  1.0000
  O   O25       1.0  0.22801  0.59903  0.09673  1.0000
  O   O26       1.0  0.26473  0.62764  0.16185  1.0000
  H   H39       1.0  0.27190  0.63833  0.11444  1.0000
  C   C81       1.0  0.44803  0.67597  0.31497  1.0000
  C   C82       1.0  0.40142  0.62301  0.32459  1.0000
  C   C83       1.0  0.40877  0.63706  0.24092  1.0000
  C   C84       1.0  0.43193  0.66366  0.23804  1.0000
  H   H40       1.0  0.43565  0.67530  0.18138  1.0000
  C   C85       1.0  0.37531  0.59952  0.34205  1.0000
  C   C86       1.0  0.32029  0.55633  0.34754  1.0000
  C   C87       1.0  0.33862  0.55772  0.28092  1.0000
  N   N14       1.0  0.36459  0.57914  0.27982  1.0000
  H   H41       1.0  0.33197  0.54451  0.22788  1.0000
  C   C88       1.0  0.39208  0.62755  0.16620  1.0000
  O   O27       1.0  0.40181  0.62450  0.09669  1.0000
  O   O28       1.0  0.37320  0.63260  0.16190  1.0000
  H   H42       1.0  0.36251  0.62909  0.11451  1.0000
  C   C89       1.0  0.32491  0.76754  0.31488  1.0000
  C   C90       1.0  0.37784  0.77387  0.32460  1.0000
  C   C91       1.0  0.36381  0.76721  0.24088  1.0000
  C   C92       1.0  0.33722  0.76376  0.23793  1.0000
  H   H43       1.0  0.32559  0.75587  0.18124  1.0000
  C   C93       1.0  0.40134  0.77126  0.34207  1.0000
  C   C94       1.0  0.44459  0.75950  0.34770  1.0000
  C   C95       1.0  0.44315  0.77639  0.28100  1.0000
  N   N15       1.0  0.42172  0.78092  0.27985  1.0000
  H   H44       1.0  0.45636  0.78294  0.22794  1.0000
  C   C96       1.0  0.37334  0.76004  0.16614  1.0000
  O   O29       1.0  0.37642  0.77285  0.09669  1.0000
  O   O30       1.0  0.36828  0.73612  0.16177  1.0000
  H   H45       1.0  0.37181  0.72895  0.11435  1.0000
  C   C97       1.0  0.77085  0.44473  0.31490  1.0000
  C   C98       1.0  0.77720  0.39814  0.32458  1.0000
  C   C99       1.0  0.77053  0.40550  0.24087  1.0000
  C   C100      1.0  0.76708  0.42866  0.23794  1.0000
  H   H46       1.0  0.75918  0.43239  0.18126  1.0000
  C   C101      1.0  0.77458  0.37203  0.34203  1.0000
  C   C102      1.0  0.76279  0.31701  0.34756  1.0000
  C   C103      1.0  0.77971  0.33535  0.28092  1.0000
  N   N16       1.0  0.78425  0.36131  0.27981  1.0000
  H   H47       1.0  0.78627  0.32870  0.22787  1.0000
  C   C104      1.0  0.76337  0.38881  0.16613  1.0000
  O   O31       1.0  0.77617  0.39855  0.09667  1.0000
  O   O32       1.0  0.73944  0.36995  0.16175  1.0000
  H   H48       1.0  0.73228  0.35925  0.11433  1.0000
  C   C105      1.0  0.55617  0.32162  0.31491  1.0000
  C   C106      1.0  0.60275  0.37455  0.32461  1.0000
  C   C107      1.0  0.59539  0.36052  0.24090  1.0000
  C   C108      1.0  0.57224  0.33392  0.23795  1.0000
  H   H49       1.0  0.56851  0.32229  0.18126  1.0000
  C   C109      1.0  0.62886  0.39805  0.34208  1.0000
  C   C110      1.0  0.68387  0.44127  0.34762  1.0000
  C   C111      1.0  0.66554  0.43986  0.28100  1.0000
  N   N17       1.0  0.63958  0.41844  0.27987  1.0000
  H   H50       1.0  0.67219  0.45307  0.22795  1.0000
  C   C112      1.0  0.61208  0.37006  0.16616  1.0000
  O   O33       1.0  0.60234  0.37313  0.09670  1.0000
  O   O34       1.0  0.63095  0.36500  0.16178  1.0000
  H   H51       1.0  0.64165  0.36854  0.11436  1.0000
  C   C113      1.0  0.67925  0.23003  0.31496  1.0000
  C   C114      1.0  0.62634  0.22368  0.32459  1.0000
  C   C115      1.0  0.64038  0.23037  0.24089  1.0000
  C   C116      1.0  0.66698  0.23382  0.23795  1.0000
  H   H52       1.0  0.67862  0.24172  0.18129  1.0000
  C   C117      1.0  0.60284  0.22630  0.34204  1.0000
  C   C118      1.0  0.55961  0.23808  0.34756  1.0000
  C   C119      1.0  0.56103  0.22117  0.28093  1.0000
  N   N18       1.0  0.58245  0.21663  0.27982  1.0000
  H   H53       1.0  0.54782  0.21460  0.22788  1.0000
  C   C120      1.0  0.63085  0.23754  0.16616  1.0000
  O   O35       1.0  0.62779  0.22475  0.09668  1.0000
  O   O36       1.0  0.63591  0.26147  0.16183  1.0000
  H   H54       1.0  0.63238  0.26864  0.11442  1.0000
  C   C121      1.0  0.10770  0.24724  0.33308  1.0000
  C   C122      1.0  0.12234  0.23303  0.33274  1.0000
  C   C123      1.0  0.15128  0.24693  0.33463  1.0000
  C   C124      1.0  0.16519  0.27592  0.33467  1.0000
  C   C125      1.0  0.15136  0.29106  0.33395  1.0000
  C   C126      1.0  0.12242  0.27611  0.33423  1.0000
  H   H55       1.0  0.18607  0.28634  0.33508  1.0000
  H   H56       1.0  0.11175  0.28634  0.33150  1.0000
  H   H57       1.0  0.11160  0.21212  0.33415  1.0000
  C   C127      1.0  0.75364  0.85596  0.33308  1.0000
  C   C128      1.0  0.76786  0.88482  0.33273  1.0000
  C   C129      1.0  0.75395  0.89985  0.33462  1.0000
  C   C130      1.0  0.72497  0.88477  0.33468  1.0000
  C   C131      1.0  0.70982  0.85579  0.33397  1.0000
  C   C132      1.0  0.72478  0.84181  0.33424  1.0000
  H   H58       1.0  0.71454  0.89523  0.33507  1.0000
  H   H59       1.0  0.71454  0.82091  0.33153  1.0000
  H   H60       1.0  0.78877  0.89498  0.33414  1.0000
  C   C133      1.0  0.14493  0.89318  0.33304  1.0000
  C   C134      1.0  0.11607  0.87854  0.33262  1.0000
  C   C135      1.0  0.10104  0.84960  0.33460  1.0000
  C   C136      1.0  0.11612  0.83570  0.33467  1.0000
  C   C137      1.0  0.14509  0.84953  0.33396  1.0000
  C   C138      1.0  0.15908  0.87847  0.33423  1.0000
  H   H61       1.0  0.10566  0.81481  0.33510  1.0000
  H   H62       1.0  0.17998  0.88913  0.33153  1.0000
  H   H63       1.0  0.10591  0.88929  0.33412  1.0000
  C   C139      1.0  0.89648  0.75034  0.33301  1.0000
  C   C140      1.0  0.88184  0.76456  0.33259  1.0000
  C   C141      1.0  0.85290  0.75065  0.33458  1.0000
  C   C142      1.0  0.83899  0.72167  0.33465  1.0000
  C   C143      1.0  0.85282  0.70652  0.33393  1.0000
  C   C144      1.0  0.88176  0.72147  0.33416  1.0000
  H   H64       1.0  0.81811  0.71124  0.33509  1.0000
  H   H65       1.0  0.89242  0.71124  0.33151  1.0000
  H   H66       1.0  0.89258  0.78547  0.33411  1.0000
  C   C145      1.0  0.25055  0.14164  0.33302  1.0000
  C   C146      1.0  0.23633  0.11278  0.33261  1.0000
  C   C147      1.0  0.25024  0.09775  0.33459  1.0000
  C   C148      1.0  0.27922  0.11282  0.33466  1.0000
  C   C149      1.0  0.29437  0.14180  0.33393  1.0000
  C   C150      1.0  0.27942  0.15578  0.33416  1.0000
  H   H67       1.0  0.28965  0.10236  0.33510  1.0000
  H   H68       1.0  0.28965  0.17669  0.33151  1.0000
  H   H69       1.0  0.21542  0.10262  0.33413  1.0000
  C   C151      1.0  0.85924  0.10441  0.33303  1.0000
  C   C152      1.0  0.88811  0.11905  0.33266  1.0000
  C   C153      1.0  0.90314  0.14799  0.33460  1.0000
  C   C154      1.0  0.88806  0.16190  0.33467  1.0000
  C   C155      1.0  0.85909  0.14807  0.33394  1.0000
  C   C156      1.0  0.84510  0.11913  0.33416  1.0000
  H   H70       1.0  0.89852  0.18278  0.33511  1.0000
  H   H71       1.0  0.82420  0.10846  0.33150  1.0000
  H   H72       1.0  0.89826  0.10830  0.33413  1.0000
  C   C157      1.0  0.29151  0.53965  0.33668  1.0000
  C   C158      1.0  0.27588  0.55270  0.32768  1.0000
  C   C159      1.0  0.24714  0.53777  0.32129  1.0000
  C   C160      1.0  0.23370  0.50899  0.32524  1.0000
  C   C161      1.0  0.24888  0.49528  0.33091  1.0000
  C   C162      1.0  0.27779  0.51079  0.33553  1.0000
  H   H73       1.0  0.21281  0.49799  0.32202  1.0000
  H   H74       1.0  0.28885  0.50104  0.34226  1.0000
  H   H75       1.0  0.28566  0.57365  0.32664  1.0000
  C   C163      1.0  0.46124  0.74737  0.33679  1.0000
  C   C164      1.0  0.44819  0.71870  0.32773  1.0000
  C   C165      1.0  0.46310  0.70487  0.32129  1.0000
  C   C166      1.0  0.49189  0.72020  0.32522  1.0000
  C   C167      1.0  0.50560  0.74909  0.33095  1.0000
  C   C168      1.0  0.49011  0.76250  0.33569  1.0000
  H   H76       1.0  0.50288  0.71030  0.32196  1.0000
  H   H77       1.0  0.49987  0.78331  0.34237  1.0000
  H   H78       1.0  0.42723  0.70753  0.32669  1.0000
  C   C169      1.0  0.25350  0.70935  0.33672  1.0000
  C   C170      1.0  0.28217  0.72497  0.32768  1.0000
  C   C171      1.0  0.29601  0.75371  0.32126  1.0000
  C   C172      1.0  0.28068  0.76717  0.32520  1.0000
  C   C173      1.0  0.25179  0.75200  0.33091  1.0000
  C   C174      1.0  0.23837  0.72309  0.33552  1.0000
  H   H79       1.0  0.29058  0.78806  0.32196  1.0000
  H   H80       1.0  0.21756  0.71205  0.34235  1.0000
  H   H81       1.0  0.29333  0.71518  0.32662  1.0000
  C   C175      1.0  0.71265  0.45793  0.33676  1.0000
  C   C176      1.0  0.72828  0.44488  0.32771  1.0000
  C   C177      1.0  0.75702  0.45980  0.32130  1.0000
  C   C178      1.0  0.77047  0.48859  0.32532  1.0000
  C   C179      1.0  0.75530  0.50230  0.33096  1.0000
  C   C180      1.0  0.72638  0.48680  0.33556  1.0000
  H   H82       1.0  0.79136  0.49958  0.32199  1.0000
  H   H83       1.0  0.71533  0.49656  0.34237  1.0000
  H   H84       1.0  0.71849  0.42393  0.32662  1.0000
  C   C181      1.0  0.54296  0.25021  0.33669  1.0000
  C   C182      1.0  0.55601  0.27888  0.32764  1.0000
  C   C183      1.0  0.54109  0.29271  0.32129  1.0000
  C   C184      1.0  0.51231  0.27738  0.32531  1.0000
  C   C185      1.0  0.49859  0.24849  0.33093  1.0000
  C   C186      1.0  0.51409  0.23507  0.33551  1.0000
  H   H85       1.0  0.50131  0.28727  0.32201  1.0000
  H   H86       1.0  0.50433  0.21427  0.34232  1.0000
  H   H87       1.0  0.57696  0.29005  0.32658  1.0000
  C   C187      1.0  0.75067  0.28823  0.33670  1.0000
  C   C188      1.0  0.72200  0.27261  0.32764  1.0000
  C   C189      1.0  0.70817  0.24387  0.32125  1.0000
  C   C190      1.0  0.72350  0.23042  0.32526  1.0000
  C   C191      1.0  0.75238  0.24559  0.33091  1.0000
  C   C192      1.0  0.76580  0.27450  0.33555  1.0000
  H   H88       1.0  0.71360  0.20953  0.32200  1.0000
  H   H89       1.0  0.78661  0.28555  0.34229  1.0000
  H   H90       1.0  0.71083  0.28240  0.32660  1.0000
  C   C193      1.0  0.23519  0.46632  0.33460  1.0000
  C   C194      1.0  0.20864  0.40830  0.34041  1.0000
  C   C195      1.0  0.20781  0.42308  0.41683  1.0000
  C   C196      1.0  0.22112  0.45202  0.41242  1.0000
  H   H91       1.0  0.22120  0.46295  0.46738  1.0000
  C   C197      1.0  0.19576  0.37900  0.33430  1.0000
  C   C198      1.0  0.16617  0.32047  0.33249  1.0000
  C   C199      1.0  0.15747  0.33606  0.38199  1.0000
  N   N19       1.0  0.17216  0.36373  0.38079  1.0000
  H   H92       1.0  0.14043  0.32692  0.42141  1.0000
  C   C200      1.0  0.19616  0.41039  0.49723  1.0000
  O   O37       1.0  0.17878  0.41445  0.53140  1.0000
  O   O38       1.0  0.20964  0.40362  0.54497  1.0000
  H   H93       1.0  0.20485  0.39694  0.59988  1.0000
  C   C201      1.0  0.53456  0.76435  0.33463  1.0000
  C   C202      1.0  0.59259  0.79584  0.34042  1.0000
  C   C203      1.0  0.57780  0.78024  0.41688  1.0000
  C   C204      1.0  0.54887  0.76462  0.41248  1.0000
  H   H94       1.0  0.53794  0.75378  0.46748  1.0000
  C   C205      1.0  0.62188  0.81224  0.33432  1.0000
  C   C206      1.0  0.68042  0.84120  0.33251  1.0000
  C   C207      1.0  0.66483  0.81691  0.38203  1.0000
  N   N20       1.0  0.63716  0.80393  0.38083  1.0000
  H   H95       1.0  0.67397  0.80902  0.42147  1.0000
  C   C208      1.0  0.59050  0.78131  0.49730  1.0000
  O   O39       1.0  0.58644  0.75988  0.53158  1.0000
  O   O40       1.0  0.59727  0.80159  0.54495  1.0000
  H   H96       1.0  0.60396  0.80350  0.59987  1.0000
  C   C209      1.0  0.23653  0.76570  0.33460  1.0000
  C   C210      1.0  0.20505  0.79225  0.34042  1.0000
  C   C211      1.0  0.22067  0.79308  0.41684  1.0000
  C   C212      1.0  0.23628  0.77977  0.41242  1.0000
  H   H97       1.0  0.24714  0.77968  0.46739  1.0000
  C   C213      1.0  0.18864  0.80513  0.33432  1.0000
  C   C214      1.0  0.15969  0.83472  0.33252  1.0000
  C   C215      1.0  0.18398  0.84341  0.38201  1.0000
  N   N21       1.0  0.19696  0.82873  0.38081  1.0000
  H   H98       1.0  0.19187  0.86046  0.42144  1.0000
  C   C216      1.0  0.21963  0.80473  0.49724  1.0000
  O   O41       1.0  0.24106  0.82210  0.53144  1.0000
  O   O42       1.0  0.19936  0.79124  0.54497  1.0000
  H   H99       1.0  0.19747  0.79602  0.59989  1.0000
  C   C217      1.0  0.76899  0.53126  0.33465  1.0000
  C   C218      1.0  0.79554  0.58929  0.34044  1.0000
  C   C219      1.0  0.79639  0.57450  0.41685  1.0000
  C   C220      1.0  0.78307  0.54557  0.41244  1.0000
  H   H100      1.0  0.78299  0.53463  0.46741  1.0000
  C   C221      1.0  0.80842  0.61858  0.33433  1.0000
  C   C222      1.0  0.83801  0.67712  0.33249  1.0000
  C   C223      1.0  0.84671  0.66153  0.38198  1.0000
  N   N22       1.0  0.83202  0.63386  0.38079  1.0000
  H   H101      1.0  0.86376  0.67067  0.42140  1.0000
  C   C224      1.0  0.80804  0.58719  0.49724  1.0000
  O   O43       1.0  0.82542  0.58314  0.53140  1.0000
  O   O44       1.0  0.79456  0.59397  0.54499  1.0000
  H   H102      1.0  0.79935  0.60065  0.59991  1.0000
  C   C225      1.0  0.46963  0.23323  0.33463  1.0000
  C   C226      1.0  0.41160  0.20175  0.34043  1.0000
  C   C227      1.0  0.42639  0.21739  0.41683  1.0000
  C   C228      1.0  0.45532  0.23300  0.41242  1.0000
  H   H103      1.0  0.46626  0.24387  0.46737  1.0000
  C   C229      1.0  0.38231  0.18534  0.33432  1.0000
  C   C230      1.0  0.32377  0.15639  0.33249  1.0000
  C   C231      1.0  0.33936  0.18068  0.38197  1.0000
  N   N23       1.0  0.36704  0.19366  0.38079  1.0000
  H   H104      1.0  0.33022  0.18859  0.42138  1.0000
  C   C232      1.0  0.41370  0.21636  0.49721  1.0000
  O   O45       1.0  0.41776  0.23781  0.53133  1.0000
  O   O46       1.0  0.40693  0.19611  0.54499  1.0000
  H   H105      1.0  0.40025  0.19423  0.59991  1.0000
  C   C233      1.0  0.76764  0.23189  0.33461  1.0000
  C   C234      1.0  0.79913  0.20534  0.34042  1.0000
  C   C235      1.0  0.78349  0.20450  0.41682  1.0000
  C   C236      1.0  0.76788  0.21781  0.41240  1.0000
  H   H106      1.0  0.75701  0.21788  0.46736  1.0000
  C   C237      1.0  0.81554  0.19246  0.33432  1.0000
  C   C238      1.0  0.84449  0.16288  0.33250  1.0000
  C   C239      1.0  0.82020  0.15418  0.38198  1.0000
  N   N24       1.0  0.80722  0.16886  0.38079  1.0000
  H   H107      1.0  0.81230  0.13713  0.42138  1.0000
  C   C240      1.0  0.78452  0.19284  0.49722  1.0000
  O   O47       1.0  0.76308  0.17545  0.53135  1.0000
  O   O48       1.0  0.80478  0.20632  0.54499  1.0000
  H   H108      1.0  0.80666  0.20152  0.59989  1.0000
  C   C241      1.0  0.23714  0.17267  0.40338  1.0000
  N   N25       1.0  0.22359  0.18675  0.39853  1.0000
  C   C242      1.0  0.20525  0.22745  0.38698  1.0000
  C   C243      1.0  0.19027  0.24145  0.38687  1.0000
  H   H109      1.0  0.19713  0.25865  0.42543  1.0000
  H   H110      1.0  0.24781  0.17405  0.46036  1.0000
  C   C244      1.0  0.22969  0.23884  0.43426  1.0000
  O   O49       1.0  0.22808  0.23934  0.51589  1.0000
  O   O50       1.0  0.25104  0.25740  0.40186  1.0000
  H   H111      1.0  0.25424  0.26039  0.34363  1.0000
  C   C245      1.0  0.82822  0.05997  0.40339  1.0000
  N   N26       1.0  0.81413  0.03233  0.39853  1.0000
  C   C246      1.0  0.77343  0.97329  0.38697  1.0000
  C   C247      1.0  0.75944  0.94432  0.38686  1.0000
  H   H112      1.0  0.74223  0.93398  0.42543  1.0000
  H   H113      1.0  0.82685  0.06925  0.46037  1.0000
  C   C248      1.0  0.76205  0.98636  0.43426  1.0000
  O   O51       1.0  0.76155  0.98424  0.51589  1.0000
  O   O52       1.0  0.74349  0.98914  0.40186  1.0000
  H   H114      1.0  0.74050  0.98936  0.34363  1.0000
  C   C249      1.0  0.94092  0.76375  0.40338  1.0000
  N   N27       1.0  0.96856  0.77730  0.39852  1.0000
  C   C250      1.0  0.02759  0.79565  0.38698  1.0000
  C   C251      1.0  0.05657  0.81062  0.38687  1.0000
  H   H115      1.0  0.06691  0.80376  0.42544  1.0000
  H   H116      1.0  0.93163  0.75309  0.46036  1.0000
  C   C252      1.0  0.01453  0.77120  0.43428  1.0000
  O   O53       1.0  0.01664  0.77282  0.51591  1.0000
  O   O54       1.0  0.01175  0.74986  0.40190  1.0000
  H   H117      1.0  0.01153  0.74665  0.34367  1.0000
  C   C253      1.0  0.76706  0.82493  0.40343  1.0000
  N   N28       1.0  0.78061  0.81084  0.39855  1.0000
  C   C254      1.0  0.79894  0.77014  0.38699  1.0000
  C   C255      1.0  0.81392  0.75614  0.38686  1.0000
  H   H118      1.0  0.80706  0.73894  0.42543  1.0000
  H   H119      1.0  0.75640  0.82356  0.46042  1.0000
  C   C256      1.0  0.77450  0.75876  0.43429  1.0000
  O   O55       1.0  0.77612  0.75826  0.51592  1.0000
  O   O56       1.0  0.75315  0.74020  0.40191  1.0000
  H   H120      1.0  0.74994  0.73721  0.34369  1.0000
  C   C257      1.0  0.17597  0.93762  0.40339  1.0000
  N   N29       1.0  0.19005  0.96526  0.39853  1.0000
  C   C258      1.0  0.23075  0.02430  0.38698  1.0000
  C   C259      1.0  0.24475  0.05327  0.38686  1.0000
  H   H121      1.0  0.26195  0.06361  0.42543  1.0000
  H   H122      1.0  0.17734  0.92834  0.46037  1.0000
  C   C260      1.0  0.24213  0.01124  0.43429  1.0000
  O   O57       1.0  0.24263  0.01335  0.51592  1.0000
  O   O58       1.0  0.26069  0.00845  0.40190  1.0000
  H   H123      1.0  0.26368  0.00824  0.34367  1.0000
  C   C261      1.0  0.06326  0.23383  0.40343  1.0000
  N   N30       1.0  0.03562  0.22028  0.39855  1.0000
  C   C262      1.0  0.97659  0.20195  0.38699  1.0000
  C   C263      1.0  0.94761  0.18697  0.38687  1.0000
  H   H124      1.0  0.93727  0.19383  0.42544  1.0000
  H   H125      1.0  0.07254  0.24449  0.46041  1.0000
  C   C264      1.0  0.98965  0.22639  0.43429  1.0000
  O   O59       1.0  0.98753  0.22478  0.51592  1.0000
  O   O60       1.0  0.99244  0.24774  0.40189  1.0000
  H   H126      1.0  0.99265  0.25095  0.34367  1.0000
  C   C265      1.0  0.22454  0.55979  0.39405  1.0000
  N   N31       1.0  0.22258  0.58272  0.39603  1.0000
  C   C266      1.0  0.24533  0.64271  0.41434  1.0000
  C   C267      1.0  0.25101  0.67008  0.41551  1.0000
  H   H127      1.0  0.26413  0.68323  0.46301  1.0000
  H   H128      1.0  0.22338  0.55021  0.45337  1.0000
  C   C268      1.0  0.25875  0.63502  0.47600  1.0000
  O   O61       1.0  0.25349  0.63555  0.55521  1.0000
  O   O62       1.0  0.28190  0.63885  0.46083  1.0000
  H   H129      1.0  0.28902  0.64067  0.40661  1.0000
  C   C269      1.0  0.44108  0.66024  0.39401  1.0000
  N   N32       1.0  0.41815  0.63535  0.39599  1.0000
  C   C270      1.0  0.35816  0.59814  0.41431  1.0000
  C   C271      1.0  0.33078  0.57645  0.41549  1.0000
  H   H130      1.0  0.31764  0.57642  0.46299  1.0000
  H   H131      1.0  0.45067  0.66866  0.45333  1.0000
  C   C272      1.0  0.36586  0.61925  0.47596  1.0000
  O   O63       1.0  0.36532  0.61345  0.55517  1.0000
  O   O64       1.0  0.36203  0.63857  0.46078  1.0000
  H   H132      1.0  0.36022  0.64387  0.40656  1.0000
  C   C273      1.0  0.34059  0.77628  0.39401  1.0000
  N   N33       1.0  0.36548  0.77824  0.39599  1.0000
  C   C274      1.0  0.40273  0.75552  0.41436  1.0000
  C   C275      1.0  0.42444  0.74985  0.41557  1.0000
  H   H133      1.0  0.42447  0.73674  0.46309  1.0000
  H   H134      1.0  0.33216  0.77743  0.45332  1.0000
  C   C276      1.0  0.38163  0.74209  0.47601  1.0000
  O   O65       1.0  0.38742  0.74736  0.55522  1.0000
  O   O66       1.0  0.36232  0.71894  0.46085  1.0000
  H   H135      1.0  0.35702  0.71182  0.40664  1.0000
  C   C277      1.0  0.77960  0.43779  0.39402  1.0000
  N   N34       1.0  0.78156  0.41486  0.39599  1.0000
  C   C278      1.0  0.75882  0.35488  0.41429  1.0000
  C   C279      1.0  0.75314  0.32750  0.41547  1.0000
  H   H136      1.0  0.74003  0.31436  0.46297  1.0000
  H   H137      1.0  0.78075  0.44737  0.45334  1.0000
  C   C280      1.0  0.74540  0.36256  0.47594  1.0000
  O   O67       1.0  0.75065  0.36203  0.55515  1.0000
  O   O68       1.0  0.72225  0.35872  0.46075  1.0000
  H   H138      1.0  0.71513  0.35690  0.40654  1.0000
  C   C281      1.0  0.56310  0.33730  0.39403  1.0000
  N   N35       1.0  0.58603  0.36219  0.39602  1.0000
  C   C282      1.0  0.64601  0.39943  0.41433  1.0000
  C   C283      1.0  0.67339  0.42113  0.41551  1.0000
  H   H139      1.0  0.68653  0.42116  0.46301  1.0000
  H   H140      1.0  0.55352  0.32886  0.45335  1.0000
  C   C284      1.0  0.63833  0.37832  0.47596  1.0000
  O   O69       1.0  0.63886  0.38411  0.55518  1.0000
  O   O70       1.0  0.64217  0.35901  0.46076  1.0000
  H   H141      1.0  0.64399  0.35372  0.40654  1.0000
  C   C285      1.0  0.66357  0.22126  0.39406  1.0000
  N   N36       1.0  0.63868  0.21931  0.39601  1.0000
  C   C286      1.0  0.60145  0.24206  0.41429  1.0000
  C   C287      1.0  0.57975  0.24774  0.41546  1.0000
  H   H142      1.0  0.57972  0.26085  0.46296  1.0000
  H   H143      1.0  0.67201  0.22012  0.45337  1.0000
  C   C288      1.0  0.62256  0.25548  0.47592  1.0000
  O   O71       1.0  0.61677  0.25023  0.55514  1.0000
  O   O72       1.0  0.64187  0.27863  0.46073  1.0000
  H   H144      1.0  0.64717  0.28575  0.40650  1.0000
