data_image0
_chemical_formula_structural       C3NCH3C3NCH3C3NCH3CNHCNHCNHNC18H12NC18H12NC18H12NC18H12CNHCNHCNHC3NCH3C3NCH3C3NCH3
_chemical_formula_sum              "C102 N16 H72"
_cell_length_a       38.5843
_cell_length_b       38.5843
_cell_length_c       14.7352
_cell_angle_alpha    90
_cell_angle_beta     90
_cell_angle_gamma    120

_space_group_name_H-M_alt    "P 1"
_space_group_IT_number       1

loop_
  _space_group_symop_operation_xyz
  'x, y, z'

loop_
  _atom_site_type_symbol
  _atom_site_label
  _atom_site_symmetry_multiplicity
  _atom_site_fract_x
  _atom_site_fract_y
  _atom_site_fract_z
  _atom_site_occupancy
  C   C1        1.0  0.20100  0.11868  0.27816  1.0000
  C   C2        1.0  0.17771  0.09280  0.35013  1.0000
  C   C3        1.0  0.26263  0.13354  0.35279  1.0000
  N   N1        1.0  0.24172  0.13742  0.28297  1.0000
  C   C4        1.0  0.18502  0.12938  0.19822  1.0000
  H   H1        1.0  0.15299  0.11825  0.20252  1.0000
  H   H2        1.0  0.19100  0.11731  0.13700  1.0000
  H   H3        1.0  0.19983  0.16190  0.19202  1.0000
  C   C5        1.0  0.89542  0.08935  0.26956  1.0000
  C   C6        1.0  0.91841  0.08932  0.34531  1.0000
  C   C7        1.0  0.87754  0.13344  0.34654  1.0000
  N   N2        1.0  0.87648  0.11115  0.27389  1.0000
  C   C8        1.0  0.88778  0.06547  0.18562  1.0000
  H   H4        1.0  0.89796  0.04382  0.18998  1.0000
  H   H5        1.0  0.90281  0.08552  0.12862  1.0000
  H   H6        1.0  0.85567  0.04875  0.17188  1.0000
  C   C9        1.0  0.92127  0.80957  0.27307  1.0000
  C   C10       1.0  0.92142  0.83306  0.34795  1.0000
  C   C11       1.0  0.87714  0.74808  0.35171  1.0000
  N   N3        1.0  0.89938  0.76886  0.27858  1.0000
  C   C12       1.0  0.94506  0.82528  0.18885  1.0000
  H   H7        1.0  0.96678  0.85711  0.19234  1.0000
  H   H8        1.0  0.92497  0.81998  0.13179  1.0000
  H   H9        1.0  0.96170  0.80974  0.17585  1.0000
  C   C13       1.0  0.58182  0.19518  0.28014  1.0000
  N   N4        1.0  0.61738  0.19609  0.27674  1.0000
  H   H10       1.0  0.57613  0.21052  0.23133  1.0000
  C   C14       1.0  0.81529  0.39103  0.28062  1.0000
  N   N5        1.0  0.81425  0.42563  0.27892  1.0000
  H   H11       1.0  0.79992  0.37028  0.23133  1.0000
  C   C15       1.0  0.61858  0.43031  0.28953  1.0000
  N   N6        1.0  0.58400  0.39470  0.28668  1.0000
  H   H12       1.0  0.63892  0.43650  0.23875  1.0000
  N   N7        1.0  0.00595  0.00499  0.35570  1.0000
  C   C16       1.0  0.04872  0.02625  0.35503  1.0000
  C   C17       1.0  0.98447  0.96220  0.35412  1.0000
  C   C18       1.0  0.98477  0.02659  0.35408  1.0000
  C   C19       1.0  0.98964  0.05258  0.28152  1.0000
  C   C20       1.0  0.96848  0.07365  0.27947  1.0000
  C   C21       1.0  0.94068  0.06855  0.34833  1.0000
  C   C22       1.0  0.93639  0.04287  0.42157  1.0000
  C   C23       1.0  0.95812  0.02238  0.42457  1.0000
  C   C24       1.0  0.07021  0.02306  0.28098  1.0000
  C   C25       1.0  0.11244  0.04443  0.27991  1.0000
  C   C26       1.0  0.13471  0.07046  0.35186  1.0000
  C   C27       1.0  0.11296  0.07297  0.42662  1.0000
  C   C28       1.0  0.07073  0.05125  0.42819  1.0000
  C   C29       1.0  0.98850  0.93994  0.42532  1.0000
  C   C30       1.0  0.96797  0.89773  0.42304  1.0000
  C   C31       1.0  0.94236  0.87612  0.34987  1.0000
  C   C32       1.0  0.93749  0.89865  0.28018  1.0000
  C   C33       1.0  0.95861  0.94088  0.28154  1.0000
  H   H13       1.0  0.12689  0.04099  0.22542  1.0000
  H   H14       1.0  0.05508  0.00502  0.22726  1.0000
  H   H15       1.0  0.05597  0.05408  0.48279  1.0000
  H   H16       1.0  0.12778  0.09133  0.48023  1.0000
  H   H17       1.0  0.00893  0.05648  0.22979  1.0000
  H   H18       1.0  0.97338  0.09266  0.22638  1.0000
  H   H19       1.0  0.00695  0.95453  0.47888  1.0000
  H   H20       1.0  0.97241  0.88280  0.47508  1.0000
  H   H21       1.0  0.91851  0.88438  0.22714  1.0000
  H   H22       1.0  0.95479  0.95614  0.22937  1.0000
  H   H23       1.0  0.95397  0.00378  0.47801  1.0000
  H   H24       1.0  0.91672  0.03828  0.47302  1.0000
  N   N8        1.0  0.43452  0.21920  0.35810  1.0000
  C   C34       1.0  0.45720  0.26163  0.34994  1.0000
  C   C35       1.0  0.39192  0.19771  0.35640  1.0000
  C   C36       1.0  0.45760  0.19976  0.36357  1.0000
  C   C37       1.0  0.48213  0.20608  0.44008  1.0000
  C   C38       1.0  0.51289  0.19655  0.43746  1.0000
  C   C39       1.0  0.51961  0.17957  0.35895  1.0000
  C   C40       1.0  0.49372  0.17166  0.28388  1.0000
  C   C41       1.0  0.46316  0.18156  0.28613  1.0000
  C   C42       1.0  0.47964  0.27920  0.27051  1.0000
  C   C43       1.0  0.51074  0.31937  0.27020  1.0000
  C   C44       1.0  0.52053  0.34349  0.34918  1.0000
  C   C45       1.0  0.49610  0.32625  0.42685  1.0000
  C   C46       1.0  0.46511  0.28594  0.42742  1.0000
  C   C47       1.0  0.37065  0.19760  0.27841  1.0000
  C   C48       1.0  0.32841  0.17664  0.27733  1.0000
  C   C49       1.0  0.30566  0.15465  0.35384  1.0000
  C   C50       1.0  0.32748  0.15478  0.43156  1.0000
  C   C51       1.0  0.36972  0.17599  0.43297  1.0000
  H   H25       1.0  0.52748  0.33011  0.21242  1.0000
  H   H26       1.0  0.47547  0.26191  0.21443  1.0000
  H   H27       1.0  0.45045  0.27350  0.48687  1.0000
  H   H28       1.0  0.50235  0.34199  0.48624  1.0000
  H   H29       1.0  0.47986  0.22074  0.49558  1.0000
  H   H30       1.0  0.53204  0.20460  0.49153  1.0000
  H   H31       1.0  0.38593  0.21301  0.22183  1.0000
  H   H32       1.0  0.31443  0.17755  0.21915  1.0000
  H   H33       1.0  0.31278  0.13966  0.48895  1.0000
  H   H34       1.0  0.38435  0.17561  0.49052  1.0000
  H   H35       1.0  0.44702  0.17832  0.22852  1.0000
  H   H36       1.0  0.49822  0.16038  0.22500  1.0000
  N   N9        1.0  0.79189  0.21970  0.34821  1.0000
  C   C52       1.0  0.74951  0.20019  0.33877  1.0000
  C   C53       1.0  0.81324  0.19845  0.34766  1.0000
  C   C54       1.0  0.81145  0.26213  0.35650  1.0000
  C   C55       1.0  0.80472  0.27946  0.43408  1.0000
  C   C56       1.0  0.81417  0.31974  0.43363  1.0000
  C   C57       1.0  0.83145  0.34424  0.35634  1.0000
  C   C58       1.0  0.83980  0.32712  0.28027  1.0000
  C   C59       1.0  0.83000  0.28668  0.28033  1.0000
  C   C60       1.0  0.72467  0.18269  0.41500  1.0000
  C   C61       1.0  0.68443  0.17357  0.41386  1.0000
  C   C62       1.0  0.66780  0.18205  0.33693  1.0000
  C   C63       1.0  0.69246  0.19747  0.25900  1.0000
  C   C64       1.0  0.73256  0.20631  0.25978  1.0000
  C   C65       1.0  0.83310  0.19642  0.42614  1.0000
  C   C66       1.0  0.85427  0.17534  0.42563  1.0000
  C   C67       1.0  0.85635  0.15529  0.34680  1.0000
  C   C68       1.0  0.83624  0.15764  0.26836  1.0000
  C   C69       1.0  0.81518  0.17882  0.26867  1.0000
  H   H37       1.0  0.66826  0.16325  0.47253  1.0000
  H   H38       1.0  0.73667  0.17954  0.47420  1.0000
  H   H39       1.0  0.75025  0.22019  0.20469  1.0000
  H   H40       1.0  0.68215  0.20441  0.20181  1.0000
  H   H41       1.0  0.78978  0.26192  0.48860  1.0000
  H   H42       1.0  0.80594  0.33030  0.48840  1.0000
  H   H43       1.0  0.83211  0.21029  0.48444  1.0000
  H   H44       1.0  0.86800  0.17461  0.48440  1.0000
  H   H45       1.0  0.83674  0.14393  0.20934  1.0000
  H   H46       1.0  0.80117  0.17989  0.21069  1.0000
  H   H47       1.0  0.83348  0.27439  0.22196  1.0000
  H   H48       1.0  0.85123  0.34348  0.22217  1.0000
  N   N10       1.0  0.79087  0.57622  0.35920  1.0000
  C   C70       1.0  0.81021  0.55331  0.34712  1.0000
  C   C71       1.0  0.81212  0.61881  0.35707  1.0000
  C   C72       1.0  0.74848  0.55340  0.36857  1.0000
  C   C73       1.0  0.73148  0.52847  0.44508  1.0000
  C   C74       1.0  0.69111  0.49784  0.44478  1.0000
  C   C75       1.0  0.66616  0.49182  0.36899  1.0000
  C   C76       1.0  0.68291  0.51830  0.29440  1.0000
  C   C77       1.0  0.72348  0.54863  0.29409  1.0000
  C   C78       1.0  0.82851  0.54593  0.42174  1.0000
  C   C79       1.0  0.83762  0.51482  0.41872  1.0000
  C   C80       1.0  0.82829  0.48972  0.34149  1.0000
  C   C81       1.0  0.81205  0.49899  0.26510  1.0000
  C   C82       1.0  0.80325  0.53026  0.26773  1.0000
  C   C83       1.0  0.81480  0.64120  0.43513  1.0000
  C   C84       1.0  0.83585  0.68344  0.43321  1.0000
  C   C85       1.0  0.85525  0.70505  0.35336  1.0000
  C   C86       1.0  0.85226  0.68210  0.27536  1.0000
  C   C87       1.0  0.83106  0.63987  0.27705  1.0000
  H   H49       1.0  0.84850  0.50893  0.47644  1.0000
  H   H50       1.0  0.83223  0.56102  0.48129  1.0000
  H   H51       1.0  0.78871  0.53404  0.21395  1.0000
  H   H52       1.0  0.80447  0.48175  0.20779  1.0000
  H   H53       1.0  0.74931  0.53022  0.49827  1.0000
  H   H54       1.0  0.68083  0.47832  0.49829  1.0000
  H   H55       1.0  0.80142  0.62671  0.49413  1.0000
  H   H56       1.0  0.83709  0.69828  0.49173  1.0000
  H   H57       1.0  0.86547  0.69593  0.21566  1.0000
  H   H58       1.0  0.82950  0.62442  0.21934  1.0000
  H   H59       1.0  0.73546  0.56510  0.23643  1.0000
  H   H60       1.0  0.66620  0.51426  0.23729  1.0000
  C   C88       1.0  0.19975  0.08929  0.42288  1.0000
  N   N11       1.0  0.24042  0.10920  0.42202  1.0000
  H   H61       1.0  0.18545  0.07114  0.47703  1.0000
  C   C89       1.0  0.91902  0.11233  0.42083  1.0000
  N   N12       1.0  0.89915  0.13313  0.41921  1.0000
  H   H62       1.0  0.93502  0.11432  0.47783  1.0000
  C   C90       1.0  0.89843  0.81111  0.42396  1.0000
  N   N13       1.0  0.87756  0.77045  0.42356  1.0000
  H   H63       1.0  0.89651  0.82548  0.48039  1.0000
  C   C91       1.0  0.56655  0.15668  0.41779  1.0000
  C   C92       1.0  0.55458  0.17572  0.35211  1.0000
  C   C93       1.0  0.62897  0.17830  0.34003  1.0000
  N   N14       1.0  0.60287  0.15910  0.40905  1.0000
  C   C94       1.0  0.54215  0.13283  0.49591  1.0000
  H   H64       1.0  0.51176  0.12783  0.49449  1.0000
  H   H65       1.0  0.55646  0.14814  0.55897  1.0000
  H   H66       1.0  0.54002  0.10353  0.49550  1.0000
  C   C95       1.0  0.85413  0.41359  0.41796  1.0000
  C   C96       1.0  0.83507  0.38299  0.35140  1.0000
  C   C97       1.0  0.83215  0.45468  0.34290  1.0000
  N   N15       1.0  0.85157  0.44747  0.41089  1.0000
  C   C98       1.0  0.87815  0.41260  0.49521  1.0000
  H   H67       1.0  0.88302  0.38714  0.49267  1.0000
  H   H68       1.0  0.86306  0.41141  0.55876  1.0000
  H   H69       1.0  0.90750  0.43971  0.49482  1.0000
  C   C99       1.0  0.59725  0.44410  0.43182  1.0000
  C   C100      1.0  0.62727  0.45686  0.36342  1.0000
  C   C101      1.0  0.55551  0.38238  0.35234  1.0000
  N   N16       1.0  0.56332  0.40778  0.42337  1.0000
  C   C102      1.0  0.59892  0.46768  0.51263  1.0000
  H   H70       1.0  0.62426  0.49810  0.51141  1.0000
  H   H71       1.0  0.60086  0.45276  0.57376  1.0000
  H   H72       1.0  0.57174  0.46974  0.51612  1.0000
