data_image0
_chemical_formula_structural       C4OC4OH4N2C3NH3CHC3NH3CHC2HC2HN2CN2CHCN2CHC4OC4OH4N2C3NH3CHC3NH3CHC2HC2HN2CN2CHCN2CHC4OC4OH4N2C3NH3CHC3NH3CHC2HC2HN2CN2CHCN2CHC4OC4OH4N2C3NH3CHC3NH3CHC2HC2HN2CN2CHCN2CH
_chemical_formula_sum              "C96 O8 H64 N40"
_cell_length_a       31.4006
_cell_length_b       31.4006
_cell_length_c       14.9185
_cell_angle_alpha    90
_cell_angle_beta     90
_cell_angle_gamma    90

_space_group_name_H-M_alt    "P 1"
_space_group_IT_number       1

loop_
  _space_group_symop_operation_xyz
  'x, y, z'

loop_
  _atom_site_type_symbol
  _atom_site_label
  _atom_site_symmetry_multiplicity
  _atom_site_fract_x
  _atom_site_fract_y
  _atom_site_fract_z
  _atom_site_occupancy
  C   C1        1.0  0.01023  0.49523  0.32247  1.0000
  C   C2        1.0  0.07525  0.43029  0.31851  1.0000
  C   C3        1.0  0.08694  0.47349  0.31762  1.0000
  C   C4        1.0  0.05482  0.50496  0.32008  1.0000
  O   O1        1.0  0.10602  0.39955  0.31645  1.0000
  C   C5        1.0  0.47761  0.02783  0.32506  1.0000
  C   C6        1.0  0.43311  0.01834  0.32536  1.0000
  C   C7        1.0  0.40070  0.04966  0.32926  1.0000
  C   C8        1.0  0.41247  0.09291  0.33281  1.0000
  O   O2        1.0  0.38172  0.12363  0.33699  1.0000
  H   H1        1.0  0.11285  0.39300  0.37930  1.0000
  H   H2        1.0  0.37467  0.13098  0.27463  1.0000
  H   H3        1.0  0.06546  0.03546  0.31869  1.0000
  H   H4        1.0  0.42302  0.48776  0.32285  1.0000
  N   N1        1.0  0.35828  0.04113  0.32716  1.0000
  N   N2        1.0  0.12928  0.48124  0.31261  1.0000
  C   C9        1.0  0.00074  0.21443  0.31888  1.0000
  C   C10       1.0  0.03849  0.23725  0.30173  1.0000
  C   C11       1.0  0.03803  0.28217  0.29297  1.0000
  N   N3        1.0  0.07474  0.30113  0.26518  1.0000
  H   H5        1.0  0.09997  0.28427  0.25174  1.0000
  H   H6        1.0  0.07448  0.32953  0.24043  1.0000
  H   H7        1.0  0.06617  0.22080  0.29046  1.0000
  C   C12       1.0  0.00074  0.16969  0.32215  1.0000
  H   H8        1.0  0.02891  0.15387  0.31374  1.0000
  C   C13       1.0  0.29097  0.00477  0.31542  1.0000
  C   C14       1.0  0.26811  0.96708  0.29784  1.0000
  C   C15       1.0  0.22318  0.96760  0.28928  1.0000
  N   N4        1.0  0.20422  0.93099  0.26103  1.0000
  H   H9        1.0  0.22090  0.90558  0.24800  1.0000
  H   H10       1.0  0.17553  0.93093  0.23777  1.0000
  H   H11       1.0  0.28455  0.93944  0.28608  1.0000
  C   C16       1.0  0.33570  0.00472  0.31887  1.0000
  H   H12       1.0  0.35151  0.97656  0.31016  1.0000
  C   C17       1.0  0.00056  0.45062  0.32153  1.0000
  C   C18       1.0  0.03206  0.41853  0.31891  1.0000
  H   H13       1.0  0.47007  0.43993  0.32214  1.0000
  C   C19       1.0  0.45573  0.10470  0.33070  1.0000
  C   C20       1.0  0.48709  0.07231  0.32714  1.0000
  H   H14       1.0  0.01769  0.08241  0.32695  1.0000
  N   N5        1.0  0.46427  0.14713  0.32944  1.0000
  N   N6        1.0  0.02434  0.37617  0.31472  1.0000
  C   C21       1.0  0.99869  0.30379  0.30927  1.0000
  N   N7        1.0  0.96388  0.27909  0.32571  1.0000
  N   N8        1.0  0.96451  0.23746  0.32949  1.0000
  C   C22       1.0  0.99181  0.34823  0.31373  1.0000
  H   H15       1.0  0.96161  0.35969  0.32274  1.0000
  C   C23       1.0  0.20160  0.00691  0.30608  1.0000
  N   N9        1.0  0.22633  0.04166  0.32284  1.0000
  N   N10       1.0  0.26797  0.04099  0.32655  1.0000
  C   C24       1.0  0.15717  0.01380  0.31079  1.0000
  H   H16       1.0  0.14571  0.04398  0.32015  1.0000
  C   C25       1.0  0.01023  0.99523  0.32247  1.0000
  C   C26       1.0  0.07525  0.93029  0.31851  1.0000
  C   C27       1.0  0.08694  0.97349  0.31762  1.0000
  C   C28       1.0  0.05482  0.00496  0.32008  1.0000
  O   O3        1.0  0.10602  0.89955  0.31645  1.0000
  C   C29       1.0  0.47761  0.52783  0.32506  1.0000
  C   C30       1.0  0.43311  0.51834  0.32536  1.0000
  C   C31       1.0  0.40070  0.54966  0.32926  1.0000
  C   C32       1.0  0.41247  0.59291  0.33281  1.0000
  O   O4        1.0  0.38172  0.62364  0.33699  1.0000
  H   H17       1.0  0.11285  0.89300  0.37930  1.0000
  H   H18       1.0  0.37467  0.63098  0.27463  1.0000
  H   H19       1.0  0.06546  0.53546  0.31869  1.0000
  H   H20       1.0  0.42302  0.98776  0.32285  1.0000
  N   N11       1.0  0.35828  0.54113  0.32716  1.0000
  N   N12       1.0  0.12928  0.98124  0.31261  1.0000
  C   C33       1.0  0.00074  0.71443  0.31888  1.0000
  C   C34       1.0  0.03849  0.73725  0.30173  1.0000
  C   C35       1.0  0.03803  0.78217  0.29297  1.0000
  N   N13       1.0  0.07474  0.80113  0.26518  1.0000
  H   H21       1.0  0.09997  0.78427  0.25174  1.0000
  H   H22       1.0  0.07448  0.82953  0.24043  1.0000
  H   H23       1.0  0.06617  0.72080  0.29046  1.0000
  C   C36       1.0  0.00074  0.66969  0.32215  1.0000
  H   H24       1.0  0.02891  0.65387  0.31374  1.0000
  C   C37       1.0  0.29097  0.50477  0.31542  1.0000
  C   C38       1.0  0.26811  0.46708  0.29784  1.0000
  C   C39       1.0  0.22318  0.46760  0.28928  1.0000
  N   N14       1.0  0.20422  0.43099  0.26103  1.0000
  H   H25       1.0  0.22090  0.40559  0.24800  1.0000
  H   H26       1.0  0.17553  0.43093  0.23777  1.0000
  H   H27       1.0  0.28455  0.43944  0.28608  1.0000
  C   C40       1.0  0.33570  0.50472  0.31887  1.0000
  H   H28       1.0  0.35151  0.47656  0.31016  1.0000
  C   C41       1.0  0.00056  0.95062  0.32153  1.0000
  C   C42       1.0  0.03206  0.91853  0.31891  1.0000
  H   H29       1.0  0.47007  0.93993  0.32214  1.0000
  C   C43       1.0  0.45573  0.60470  0.33070  1.0000
  C   C44       1.0  0.48709  0.57231  0.32714  1.0000
  H   H30       1.0  0.01769  0.58241  0.32695  1.0000
  N   N15       1.0  0.46427  0.64713  0.32944  1.0000
  N   N16       1.0  0.02434  0.87617  0.31472  1.0000
  C   C45       1.0  0.99869  0.80378  0.30927  1.0000
  N   N17       1.0  0.96388  0.77909  0.32571  1.0000
  N   N18       1.0  0.96451  0.73745  0.32949  1.0000
  C   C46       1.0  0.99181  0.84823  0.31373  1.0000
  H   H31       1.0  0.96161  0.85969  0.32274  1.0000
  C   C47       1.0  0.20160  0.50691  0.30608  1.0000
  N   N19       1.0  0.22633  0.54166  0.32284  1.0000
  N   N20       1.0  0.26797  0.54099  0.32655  1.0000
  C   C48       1.0  0.15717  0.51380  0.31079  1.0000
  H   H32       1.0  0.14571  0.54398  0.32015  1.0000
  C   C49       1.0  0.51023  0.49523  0.32247  1.0000
  C   C50       1.0  0.57525  0.43029  0.31851  1.0000
  C   C51       1.0  0.58694  0.47349  0.31762  1.0000
  C   C52       1.0  0.55482  0.50496  0.32008  1.0000
  O   O5        1.0  0.60602  0.39955  0.31645  1.0000
  C   C53       1.0  0.97761  0.02783  0.32506  1.0000
  C   C54       1.0  0.93311  0.01834  0.32536  1.0000
  C   C55       1.0  0.90070  0.04966  0.32926  1.0000
  C   C56       1.0  0.91247  0.09291  0.33281  1.0000
  O   O6        1.0  0.88172  0.12363  0.33699  1.0000
  H   H33       1.0  0.61285  0.39300  0.37930  1.0000
  H   H34       1.0  0.87467  0.13098  0.27463  1.0000
  H   H35       1.0  0.56546  0.03546  0.31869  1.0000
  H   H36       1.0  0.92302  0.48776  0.32285  1.0000
  N   N21       1.0  0.85828  0.04113  0.32716  1.0000
  N   N22       1.0  0.62928  0.48124  0.31261  1.0000
  C   C57       1.0  0.50074  0.21443  0.31888  1.0000
  C   C58       1.0  0.53849  0.23725  0.30173  1.0000
  C   C59       1.0  0.53803  0.28217  0.29297  1.0000
  N   N23       1.0  0.57474  0.30113  0.26518  1.0000
  H   H37       1.0  0.59997  0.28427  0.25174  1.0000
  H   H38       1.0  0.57448  0.32953  0.24043  1.0000
  H   H39       1.0  0.56617  0.22080  0.29046  1.0000
  C   C60       1.0  0.50074  0.16969  0.32215  1.0000
  H   H40       1.0  0.52891  0.15387  0.31374  1.0000
  C   C61       1.0  0.79097  0.00477  0.31542  1.0000
  C   C62       1.0  0.76811  0.96708  0.29784  1.0000
  C   C63       1.0  0.72318  0.96760  0.28928  1.0000
  N   N24       1.0  0.70422  0.93099  0.26103  1.0000
  H   H41       1.0  0.72090  0.90558  0.24800  1.0000
  H   H42       1.0  0.67553  0.93093  0.23777  1.0000
  H   H43       1.0  0.78455  0.93944  0.28608  1.0000
  C   C64       1.0  0.83570  0.00472  0.31887  1.0000
  H   H44       1.0  0.85151  0.97656  0.31016  1.0000
  C   C65       1.0  0.50056  0.45062  0.32153  1.0000
  C   C66       1.0  0.53206  0.41853  0.31891  1.0000
  H   H45       1.0  0.97007  0.43993  0.32214  1.0000
  C   C67       1.0  0.95573  0.10470  0.33070  1.0000
  C   C68       1.0  0.98709  0.07231  0.32714  1.0000
  H   H46       1.0  0.51768  0.08241  0.32695  1.0000
  N   N25       1.0  0.96427  0.14713  0.32944  1.0000
  N   N26       1.0  0.52434  0.37617  0.31472  1.0000
  C   C69       1.0  0.49868  0.30379  0.30927  1.0000
  N   N27       1.0  0.46388  0.27909  0.32571  1.0000
  N   N28       1.0  0.46451  0.23746  0.32949  1.0000
  C   C70       1.0  0.49181  0.34823  0.31373  1.0000
  H   H47       1.0  0.46161  0.35969  0.32274  1.0000
  C   C71       1.0  0.70160  0.00691  0.30608  1.0000
  N   N29       1.0  0.72633  0.04166  0.32284  1.0000
  N   N30       1.0  0.76797  0.04099  0.32655  1.0000
  C   C72       1.0  0.65717  0.01380  0.31079  1.0000
  H   H48       1.0  0.64571  0.04398  0.32015  1.0000
  C   C73       1.0  0.51023  0.99523  0.32247  1.0000
  C   C74       1.0  0.57525  0.93029  0.31851  1.0000
  C   C75       1.0  0.58694  0.97349  0.31762  1.0000
  C   C76       1.0  0.55482  0.00496  0.32008  1.0000
  O   O7        1.0  0.60602  0.89955  0.31645  1.0000
  C   C77       1.0  0.97761  0.52783  0.32506  1.0000
  C   C78       1.0  0.93311  0.51834  0.32536  1.0000
  C   C79       1.0  0.90070  0.54966  0.32926  1.0000
  C   C80       1.0  0.91247  0.59291  0.33281  1.0000
  O   O8        1.0  0.88172  0.62364  0.33699  1.0000
  H   H49       1.0  0.61285  0.89300  0.37930  1.0000
  H   H50       1.0  0.87467  0.63098  0.27463  1.0000
  H   H51       1.0  0.56546  0.53546  0.31869  1.0000
  H   H52       1.0  0.92302  0.98776  0.32285  1.0000
  N   N31       1.0  0.85828  0.54113  0.32716  1.0000
  N   N32       1.0  0.62928  0.98124  0.31261  1.0000
  C   C81       1.0  0.50074  0.71443  0.31888  1.0000
  C   C82       1.0  0.53849  0.73725  0.30173  1.0000
  C   C83       1.0  0.53803  0.78217  0.29297  1.0000
  N   N33       1.0  0.57474  0.80113  0.26518  1.0000
  H   H53       1.0  0.59997  0.78427  0.25174  1.0000
  H   H54       1.0  0.57448  0.82953  0.24043  1.0000
  H   H55       1.0  0.56617  0.72080  0.29046  1.0000
  C   C84       1.0  0.50074  0.66969  0.32215  1.0000
  H   H56       1.0  0.52891  0.65387  0.31374  1.0000
  C   C85       1.0  0.79097  0.50477  0.31542  1.0000
  C   C86       1.0  0.76811  0.46708  0.29784  1.0000
  C   C87       1.0  0.72318  0.46760  0.28928  1.0000
  N   N34       1.0  0.70422  0.43099  0.26103  1.0000
  H   H57       1.0  0.72090  0.40559  0.24800  1.0000
  H   H58       1.0  0.67553  0.43093  0.23777  1.0000
  H   H59       1.0  0.78455  0.43944  0.28608  1.0000
  C   C88       1.0  0.83570  0.50472  0.31887  1.0000
  H   H60       1.0  0.85151  0.47656  0.31016  1.0000
  C   C89       1.0  0.50056  0.95062  0.32153  1.0000
  C   C90       1.0  0.53206  0.91853  0.31891  1.0000
  H   H61       1.0  0.97007  0.93993  0.32214  1.0000
  C   C91       1.0  0.95573  0.60470  0.33070  1.0000
  C   C92       1.0  0.98709  0.57231  0.32714  1.0000
  H   H62       1.0  0.51768  0.58241  0.32695  1.0000
  N   N35       1.0  0.96427  0.64713  0.32944  1.0000
  N   N36       1.0  0.52434  0.87617  0.31472  1.0000
  C   C93       1.0  0.49868  0.80378  0.30927  1.0000
  N   N37       1.0  0.46388  0.77909  0.32571  1.0000
  N   N38       1.0  0.46451  0.73745  0.32949  1.0000
  C   C94       1.0  0.49181  0.84823  0.31373  1.0000
  H   H63       1.0  0.46161  0.85969  0.32274  1.0000
  C   C95       1.0  0.70160  0.50691  0.30608  1.0000
  N   N39       1.0  0.72633  0.54166  0.32284  1.0000
  N   N40       1.0  0.76797  0.54099  0.32655  1.0000
  C   C96       1.0  0.65717  0.51380  0.31079  1.0000
  H   H64       1.0  0.64571  0.54398  0.32015  1.0000
