data_image0
_chemical_formula_structural       C3NC3NC5NC4NC35H25C21H18C16H16C2NC3NHCH3CNCNHCH3C2NC4NHCH3C2NC3NHCH3CNCNHCH3C2NC4NHCH3C18H17C3NC3NC2NC5NC34H24C3NC3NC5NC5NC36H26C2HC5H3C4HC6H3C2HC4H3C2HC5H3C4HC6H3C2HC4H3
_chemical_formula_sum              "C282 N24 H174"
_cell_length_a       67.0155
_cell_length_b       67.0155
_cell_length_c       14.9757
_cell_angle_alpha    89.8018
_cell_angle_beta     90.1982
_cell_angle_gamma    120

_space_group_name_H-M_alt    "P 1"
_space_group_IT_number       1

loop_
  _space_group_symop_operation_xyz
  'x, y, z'

loop_
  _atom_site_type_symbol
  _atom_site_label
  _atom_site_symmetry_multiplicity
  _atom_site_fract_x
  _atom_site_fract_y
  _atom_site_fract_z
  _atom_site_occupancy
  C   C1        1.0  0.01762  0.48789  0.34219  1.0000
  C   C2        1.0  0.04141  0.49982  0.34101  1.0000
  C   C3        1.0  0.04888  0.52335  0.33561  1.0000
  N   N1        1.0  0.02942  0.52480  0.33342  1.0000
  C   C4        1.0  0.01002  0.50385  0.33683  1.0000
  C   C5        1.0  0.98654  0.49818  0.33505  1.0000
  C   C6        1.0  0.97894  0.51452  0.33219  1.0000
  N   N2        1.0  0.99194  0.53775  0.33381  1.0000
  C   C7        1.0  0.97888  0.54791  0.33064  1.0000
  C   C8        1.0  0.95602  0.53003  0.32688  1.0000
  C   C9        1.0  0.95606  0.50946  0.32769  1.0000
  C   C10       1.0  0.98641  0.57183  0.33219  1.0000
  C   C11       1.0  0.00984  0.58970  0.33545  1.0000
  N   N3        1.0  0.02931  0.58825  0.33328  1.0000
  C   C12       1.0  0.04870  0.60920  0.33675  1.0000
  C   C13       1.0  0.04111  0.62515  0.34212  1.0000
  C   C14       1.0  0.01732  0.61322  0.34090  1.0000
  C   C15       1.0  0.07218  0.61488  0.33498  1.0000
  N   N4        1.0  0.06679  0.57531  0.33388  1.0000
  C   C16       1.0  0.07983  0.56515  0.33070  1.0000
  C   C17       1.0  0.10270  0.58304  0.32690  1.0000
  C   C18       1.0  0.10266  0.60360  0.32766  1.0000
  C   C19       1.0  0.07231  0.54123  0.33237  1.0000
  C   C20       1.0  0.08963  0.53483  0.33116  1.0000
  C   C21       1.0  0.09862  0.53249  0.24926  1.0000
  C   C22       1.0  0.11677  0.52764  0.24809  1.0000
  C   C23       1.0  0.12635  0.52489  0.32849  1.0000
  C   C24       1.0  0.14552  0.52112  0.32727  1.0000
  C   C25       1.0  0.18409  0.53156  0.27284  1.0000
  C   C26       1.0  0.16479  0.53461  0.27209  1.0000
  C   C27       1.0  0.08945  0.63863  0.33706  1.0000
  C   C28       1.0  0.09600  0.65196  0.25808  1.0000
  C   C29       1.0  0.11394  0.67507  0.25950  1.0000
  C   C30       1.0  0.12597  0.68539  0.33956  1.0000
  C   C31       1.0  0.14510  0.70834  0.33981  1.0000
  C   C32       1.0  0.14396  0.72658  0.29660  1.0000
  C   C33       1.0  0.16312  0.74905  0.29521  1.0000
  C   C34       1.0  0.18413  0.75386  0.33576  1.0000
  C   C35       1.0  0.96910  0.57824  0.33098  1.0000
  C   C36       1.0  0.93267  0.58860  0.32834  1.0000
  C   C37       1.0  0.94197  0.58566  0.24794  1.0000
  C   C38       1.0  0.95998  0.58061  0.24910  1.0000
  C   C39       1.0  0.91370  0.59271  0.32714  1.0000
  C   C40       1.0  0.89425  0.57937  0.27244  1.0000
  C   C41       1.0  0.87518  0.58280  0.27309  1.0000
  C   C42       1.0  0.87482  0.59974  0.32820  1.0000
  C   C43       1.0  0.96926  0.47443  0.33721  1.0000
  C   C44       1.0  0.96246  0.46122  0.25813  1.0000
  C   C45       1.0  0.94438  0.43817  0.25955  1.0000
  C   C46       1.0  0.93245  0.42781  0.33968  1.0000
  C   C47       1.0  0.91311  0.40498  0.33987  1.0000
  C   C48       1.0  0.87363  0.35975  0.33559  1.0000
  C   C49       1.0  0.89447  0.36432  0.29465  1.0000
  C   C50       1.0  0.91385  0.38666  0.29613  1.0000
  H   H1        1.0  0.89561  0.35144  0.26269  1.0000
  H   H2        1.0  0.92865  0.38936  0.26566  1.0000
  H   H3        1.0  0.93938  0.42933  0.20055  1.0000
  H   H4        1.0  0.97028  0.46844  0.19868  1.0000
  H   H5        1.0  0.00771  0.47035  0.34574  1.0000
  H   H6        1.0  0.05140  0.49227  0.34377  1.0000
  H   H7        1.0  0.02937  0.53903  0.32698  1.0000
  H   H8        1.0  0.02934  0.57403  0.32678  1.0000
  H   H9        1.0  0.94158  0.49355  0.32526  1.0000
  H   H10       1.0  0.94152  0.53142  0.32412  1.0000
  H   H11       1.0  0.96615  0.57832  0.18985  1.0000
  H   H12       1.0  0.93572  0.58721  0.18743  1.0000
  H   H13       1.0  0.00733  0.62077  0.34368  1.0000
  H   H14       1.0  0.05101  0.64269  0.34578  1.0000
  H   H15       1.0  0.11713  0.61951  0.32517  1.0000
  H   H16       1.0  0.08807  0.64480  0.19869  1.0000
  H   H17       1.0  0.11873  0.68402  0.20058  1.0000
  H   H18       1.0  0.16169  0.76186  0.26365  1.0000
  H   H19       1.0  0.12902  0.72370  0.26641  1.0000
  H   H20       1.0  0.16531  0.54739  0.23280  1.0000
  H   H21       1.0  0.19792  0.54228  0.23408  1.0000
  H   H22       1.0  0.12296  0.52616  0.18758  1.0000
  H   H23       1.0  0.09230  0.53470  0.19002  1.0000
  H   H24       1.0  0.89344  0.56647  0.23346  1.0000
  H   H25       1.0  0.86120  0.57219  0.23466  1.0000
  C   C51       1.0  0.53949  0.51769  0.33354  1.0000
  C   C52       1.0  0.55737  0.51271  0.32983  1.0000
  C   C53       1.0  0.57794  0.53331  0.33058  1.0000
  C   C54       1.0  0.55491  0.65297  0.25204  1.0000
  C   C55       1.0  0.55976  0.67597  0.25083  1.0000
  C   C56       1.0  0.55585  0.73934  0.27545  1.0000
  C   C57       1.0  0.55279  0.71698  0.27479  1.0000
  C   C58       1.0  0.43547  0.53084  0.26060  1.0000
  C   C59       1.0  0.41236  0.52568  0.26183  1.0000
  C   C60       1.0  0.36083  0.50410  0.29861  1.0000
  C   C61       1.0  0.33835  0.50078  0.29695  1.0000
  C   C62       1.0  0.33353  0.51694  0.33718  1.0000
  C   C63       1.0  0.50175  0.44316  0.25079  1.0000
  C   C64       1.0  0.50679  0.46621  0.25195  1.0000
  C   C65       1.0  0.50804  0.40169  0.27531  1.0000
  C   C66       1.0  0.50461  0.37919  0.27594  1.0000
  C   C67       1.0  0.62616  0.58808  0.26067  1.0000
  C   C68       1.0  0.64920  0.59303  0.26193  1.0000
  C   C69       1.0  0.72765  0.60058  0.33711  1.0000
  C   C70       1.0  0.72307  0.61693  0.29641  1.0000
  C   C71       1.0  0.70073  0.61399  0.29820  1.0000
  H   H26       1.0  0.73592  0.63100  0.26440  1.0000
  H   H27       1.0  0.69801  0.62613  0.26785  1.0000
  H   H28       1.0  0.65804  0.59701  0.20289  1.0000
  H   H29       1.0  0.61892  0.58877  0.20128  1.0000
  H   H30       1.0  0.59385  0.53475  0.32819  1.0000
  H   H31       1.0  0.50911  0.47477  0.19271  1.0000
  H   H32       1.0  0.50022  0.43546  0.19028  1.0000
  H   H33       1.0  0.46662  0.47325  0.34609  1.0000
  H   H34       1.0  0.44265  0.53015  0.20131  1.0000
  H   H35       1.0  0.40342  0.52156  0.20288  1.0000
  H   H36       1.0  0.32557  0.48658  0.26540  1.0000
  H   H37       1.0  0.36373  0.49207  0.26867  1.0000
  H   H38       1.0  0.54001  0.70478  0.23552  1.0000
  H   H39       1.0  0.54511  0.74250  0.23678  1.0000
  H   H40       1.0  0.56123  0.68372  0.19030  1.0000
  H   H41       1.0  0.55267  0.64451  0.19281  1.0000
  H   H42       1.0  0.52094  0.41384  0.23630  1.0000
  H   H43       1.0  0.51521  0.37587  0.23747  1.0000
  C   C72       1.0  0.43453  0.98885  0.25321  1.0000
  C   C73       1.0  0.41154  0.97070  0.25156  1.0000
  C   C74       1.0  0.34814  0.90337  0.27485  1.0000
  C   C75       1.0  0.37050  0.92266  0.27463  1.0000
  C   C76       1.0  0.55659  0.99145  0.26300  1.0000
  C   C77       1.0  0.56177  0.97352  0.26433  1.0000
  C   C78       1.0  0.58332  0.94351  0.30124  1.0000
  C   C79       1.0  0.58663  0.92434  0.29962  1.0000
  C   C80       1.0  0.64414  0.14535  0.25137  1.0000
  C   C81       1.0  0.62108  0.12735  0.25300  1.0000
  C   C82       1.0  0.68565  0.19309  0.27485  1.0000
  C   C83       1.0  0.70815  0.21215  0.27501  1.0000
  C   C84       1.0  0.49931  0.12491  0.26297  1.0000
  C   C85       1.0  0.49434  0.14299  0.26430  1.0000
  C   C86       1.0  0.47047  0.19291  0.29894  1.0000
  C   C87       1.0  0.47341  0.17352  0.30068  1.0000
  H   H44       1.0  0.45641  0.19176  0.26695  1.0000
  H   H45       1.0  0.46127  0.15870  0.27031  1.0000
  H   H46       1.0  0.49040  0.14797  0.20527  1.0000
  H   H47       1.0  0.49862  0.11708  0.20355  1.0000
  H   H48       1.0  0.61246  0.12113  0.19393  1.0000
  H   H49       1.0  0.65177  0.15155  0.19070  1.0000
  H   H50       1.0  0.55728  0.99941  0.20367  1.0000
  H   H51       1.0  0.56586  0.96876  0.20538  1.0000
  H   H52       1.0  0.60082  0.92579  0.26804  1.0000
  H   H53       1.0  0.59534  0.95846  0.27123  1.0000
  H   H54       1.0  0.38274  0.92217  0.23553  1.0000
  H   H55       1.0  0.34502  0.88957  0.23598  1.0000
  H   H56       1.0  0.40385  0.96457  0.19089  1.0000
  H   H57       1.0  0.44306  0.99521  0.19414  1.0000
  H   H58       1.0  0.67345  0.19387  0.23612  1.0000
  H   H59       1.0  0.71141  0.22610  0.23650  1.0000
  C   C88       1.0  0.31107  0.51418  0.33413  1.0000
  C   C89       1.0  0.30024  0.51517  0.25361  1.0000
  N   N5        1.0  0.27928  0.51369  0.25833  1.0000
  C   C90       1.0  0.26755  0.51119  0.33513  1.0000
  C   C91       1.0  0.24630  0.51083  0.33441  1.0000
  C   C92       1.0  0.21709  0.51354  0.25252  1.0000
  N   N6        1.0  0.23693  0.51280  0.25664  1.0000
  H   H60       1.0  0.21128  0.51503  0.19107  1.0000
  C   C93       1.0  0.31027  0.51906  0.16288  1.0000
  H   H61       1.0  0.32780  0.52203  0.16236  1.0000
  H   H62       1.0  0.31067  0.53415  0.13312  1.0000
  H   H63       1.0  0.29956  0.50408  0.12133  1.0000
  C   C94       1.0  0.57221  0.87190  0.25629  1.0000
  N   N7        1.0  0.57369  0.85241  0.26100  1.0000
  C   C95       1.0  0.57385  0.79039  0.25518  1.0000
  N   N8        1.0  0.57458  0.81095  0.25931  1.0000
  H   H64       1.0  0.57236  0.78318  0.19373  1.0000
  C   C96       1.0  0.56832  0.87818  0.16558  1.0000
  H   H65       1.0  0.56535  0.89274  0.16505  1.0000
  H   H66       1.0  0.55324  0.86354  0.13581  1.0000
  H   H67       1.0  0.58330  0.88252  0.12401  1.0000
  C   C97       1.0  0.20383  0.77632  0.33311  1.0000
  C   C98       1.0  0.21560  0.78723  0.25282  1.0000
  N   N9        1.0  0.23508  0.80819  0.25795  1.0000
  C   C99       1.0  0.24433  0.81985  0.33497  1.0000
  C   C100      1.0  0.26522  0.84111  0.33470  1.0000
  C   C101      1.0  0.29711  0.87039  0.25350  1.0000
  C   C102      1.0  0.30821  0.88248  0.33242  1.0000
  N   N10       1.0  0.27654  0.85055  0.25717  1.0000
  H   H68       1.0  0.30439  0.87625  0.19219  1.0000
  C   C103      1.0  0.20944  0.77727  0.16196  1.0000
  H   H69       1.0  0.19489  0.75974  0.16112  1.0000
  H   H70       1.0  0.22413  0.77691  0.13248  1.0000
  H   H71       1.0  0.20515  0.78800  0.12034  1.0000
  C   C104      1.0  0.74994  0.60295  0.33392  1.0000
  C   C105      1.0  0.76047  0.60166  0.25342  1.0000
  N   N11       1.0  0.78125  0.60272  0.25807  1.0000
  C   C106      1.0  0.79307  0.60508  0.33480  1.0000
  C   C107      1.0  0.81410  0.60500  0.33405  1.0000
  C   C108      1.0  0.84278  0.60158  0.25224  1.0000
  N   N12       1.0  0.82317  0.60273  0.25635  1.0000
  H   H72       1.0  0.84837  0.59990  0.19084  1.0000
  C   C109      1.0  0.75026  0.59781  0.16284  1.0000
  H   H73       1.0  0.73286  0.59518  0.16242  1.0000
  H   H74       1.0  0.74949  0.58254  0.13364  1.0000
  H   H75       1.0  0.76107  0.61267  0.12074  1.0000
  C   C110      1.0  0.48574  0.24565  0.25602  1.0000
  N   N13       1.0  0.48467  0.26536  0.26071  1.0000
  C   C111      1.0  0.48580  0.32803  0.25499  1.0000
  N   N14       1.0  0.48465  0.30727  0.25905  1.0000
  H   H76       1.0  0.48749  0.33541  0.19359  1.0000
  C   C112      1.0  0.48959  0.23944  0.16544  1.0000
  H   H77       1.0  0.49224  0.22468  0.16499  1.0000
  H   H78       1.0  0.50485  0.25399  0.13622  1.0000
  H   H79       1.0  0.47473  0.23545  0.12335  1.0000
  C   C113      1.0  0.85371  0.33745  0.33281  1.0000
  C   C114      1.0  0.84167  0.32684  0.25256  1.0000
  N   N15       1.0  0.82197  0.30606  0.25764  1.0000
  C   C115      1.0  0.81272  0.29431  0.33458  1.0000
  C   C116      1.0  0.79160  0.27328  0.33430  1.0000
  C   C117      1.0  0.75928  0.24453  0.25318  1.0000
  C   C118      1.0  0.74820  0.23239  0.33209  1.0000
  N   N16       1.0  0.78005  0.26414  0.25684  1.0000
  H   H80       1.0  0.75183  0.23888  0.19193  1.0000
  C   C119      1.0  0.84779  0.33697  0.16182  1.0000
  H   H81       1.0  0.86256  0.35437  0.16107  1.0000
  H   H82       1.0  0.83320  0.33772  0.13286  1.0000
  H   H83       1.0  0.85171  0.32612  0.11971  1.0000
  C   C120      1.0  0.07978  0.59854  0.33217  1.0000
  C   C121      1.0  0.11692  0.52688  0.41027  1.0000
  C   C122      1.0  0.09889  0.53191  0.41172  1.0000
  C   C123      1.0  0.14622  0.50432  0.38267  1.0000
  C   C124      1.0  0.16551  0.50122  0.38312  1.0000
  C   C125      1.0  0.18488  0.51483  0.32843  1.0000
  C   C126      1.0  0.11908  0.67194  0.41859  1.0000
  C   C127      1.0  0.10103  0.64890  0.41755  1.0000
  C   C128      1.0  0.18529  0.73578  0.37978  1.0000
  C   C129      1.0  0.16608  0.71339  0.38177  1.0000
  C   C130      1.0  0.96009  0.58131  0.41154  1.0000
  C   C131      1.0  0.94220  0.58655  0.41010  1.0000
  C   C132      1.0  0.89437  0.61319  0.38243  1.0000
  C   C133      1.0  0.91343  0.60971  0.38205  1.0000
  C   C134      1.0  0.95781  0.46409  0.41779  1.0000
  C   C135      1.0  0.93962  0.44112  0.41883  1.0000
  C   C136      1.0  0.89230  0.40016  0.38218  1.0000
  C   C137      1.0  0.87287  0.37792  0.38013  1.0000
  H   H84       1.0  0.85798  0.37521  0.40987  1.0000
  H   H85       1.0  0.89085  0.41300  0.41290  1.0000
  H   H86       1.0  0.93157  0.43422  0.47824  1.0000
  H   H87       1.0  0.96233  0.47337  0.47588  1.0000
  H   H88       1.0  0.96623  0.57939  0.47172  1.0000
  H   H89       1.0  0.93562  0.58802  0.46970  1.0000
  H   H90       1.0  0.11720  0.58165  0.32415  1.0000
  H   H91       1.0  0.09668  0.63956  0.47559  1.0000
  H   H92       1.0  0.12721  0.67881  0.47796  1.0000
  H   H93       1.0  0.16781  0.70063  0.41210  1.0000
  H   H94       1.0  0.20031  0.73867  0.40927  1.0000
  H   H95       1.0  0.09287  0.53385  0.47190  1.0000
  H   H96       1.0  0.12371  0.52557  0.46986  1.0000
  H   H97       1.0  0.16516  0.48871  0.42356  1.0000
  H   H98       1.0  0.13254  0.49400  0.42283  1.0000
  H   H99       1.0  0.92727  0.61994  0.42181  1.0000
  H   H100      1.0  0.89503  0.62585  0.42245  1.0000
  C   C138      1.0  0.59951  0.61643  0.34485  1.0000
  C   C139      1.0  0.58758  0.62829  0.34369  1.0000
  C   C140      1.0  0.56405  0.61224  0.33838  1.0000
  N   N17       1.0  0.56260  0.59133  0.33622  1.0000
  C   C141      1.0  0.58355  0.59288  0.33959  1.0000
  C   C142      1.0  0.58922  0.57507  0.33780  1.0000
  C   C143      1.0  0.57289  0.55114  0.33498  1.0000
  N   N18       1.0  0.54965  0.54090  0.33662  1.0000
  C   C144      1.0  0.51557  0.50129  0.33507  1.0000
  C   C145      1.0  0.49770  0.50685  0.33816  1.0000
  N   N19       1.0  0.49914  0.52776  0.33604  1.0000
  C   C146      1.0  0.47820  0.52621  0.33942  1.0000
  C   C147      1.0  0.46224  0.50265  0.34454  1.0000
  C   C148      1.0  0.47418  0.49079  0.34338  1.0000
  C   C149      1.0  0.47252  0.54402  0.33776  1.0000
  C   C150      1.0  0.48886  0.56795  0.33505  1.0000
  N   N20       1.0  0.51209  0.57819  0.33673  1.0000
  C   C151      1.0  0.52225  0.60140  0.33362  1.0000
  C   C152      1.0  0.50437  0.60639  0.32984  1.0000
  C   C153      1.0  0.48380  0.58578  0.33058  1.0000
  C   C154      1.0  0.54617  0.61780  0.33519  1.0000
  C   C155      1.0  0.55257  0.64152  0.33396  1.0000
  C   C156      1.0  0.56252  0.68818  0.33120  1.0000
  C   C157      1.0  0.56052  0.67665  0.41300  1.0000
  C   C158      1.0  0.55552  0.65359  0.41449  1.0000
  C   C159      1.0  0.56629  0.71113  0.32994  1.0000
  C   C160      1.0  0.58309  0.72854  0.38531  1.0000
  C   C161      1.0  0.58619  0.75093  0.38575  1.0000
  C   C162      1.0  0.57257  0.75677  0.33109  1.0000
  C   C163      1.0  0.44877  0.53753  0.33966  1.0000
  C   C164      1.0  0.40200  0.52726  0.34178  1.0000
  C   C165      1.0  0.41542  0.53372  0.42090  1.0000
  C   C166      1.0  0.43846  0.53872  0.42004  1.0000
  C   C167      1.0  0.37904  0.52343  0.34182  1.0000
  C   C168      1.0  0.35158  0.53613  0.38120  1.0000
  C   C169      1.0  0.37397  0.53932  0.38344  1.0000
  C   C170      1.0  0.50916  0.47757  0.33384  1.0000
  C   C171      1.0  0.50606  0.46536  0.41439  1.0000
  C   C172      1.0  0.50084  0.44223  0.41294  1.0000
  C   C173      1.0  0.49879  0.43078  0.33118  1.0000
  C   C174      1.0  0.49470  0.40772  0.32999  1.0000
  C   C175      1.0  0.48766  0.36179  0.33100  1.0000
  C   C176      1.0  0.47421  0.36782  0.38525  1.0000
  C   C177      1.0  0.47768  0.39035  0.38487  1.0000
  C   C178      1.0  0.61297  0.58154  0.33982  1.0000
  C   C179      1.0  0.62334  0.58031  0.42032  1.0000
  C   C180      1.0  0.65960  0.59136  0.34197  1.0000
  C   C181      1.0  0.64631  0.58508  0.42119  1.0000
  C   C182      1.0  0.68243  0.59485  0.34198  1.0000
  C   C183      1.0  0.68727  0.57878  0.38409  1.0000
  C   C184      1.0  0.70951  0.58159  0.38173  1.0000
  H   H101      1.0  0.71223  0.56935  0.41131  1.0000
  H   H102      1.0  0.67444  0.56444  0.41483  1.0000
  H   H103      1.0  0.65323  0.58383  0.48053  1.0000
  H   H104      1.0  0.61409  0.57544  0.47844  1.0000
  H   H105      1.0  0.61705  0.62406  0.34834  1.0000
  H   H106      1.0  0.59513  0.64583  0.34640  1.0000
  H   H107      1.0  0.54837  0.57706  0.32986  1.0000
  H   H108      1.0  0.51338  0.54204  0.33006  1.0000
  H   H109      1.0  0.55599  0.49682  0.32716  1.0000
  H   H110      1.0  0.50799  0.47333  0.47458  1.0000
  H   H111      1.0  0.49937  0.43410  0.47255  1.0000
  H   H112      1.0  0.44471  0.49501  0.34814  1.0000
  H   H113      1.0  0.50575  0.62227  0.32708  1.0000
  H   H114      1.0  0.46789  0.58434  0.32807  1.0000
  H   H115      1.0  0.44778  0.54364  0.47813  1.0000
  H   H116      1.0  0.40853  0.53490  0.48017  1.0000
  H   H117      1.0  0.38671  0.55376  0.41385  1.0000
  H   H118      1.0  0.34868  0.54823  0.41050  1.0000
  H   H119      1.0  0.55357  0.64554  0.47469  1.0000
  H   H120      1.0  0.56186  0.68466  0.47258  1.0000
  H   H121      1.0  0.59870  0.76303  0.42619  1.0000
  H   H122      1.0  0.59342  0.72512  0.42546  1.0000
  H   H123      1.0  0.46746  0.39389  0.42462  1.0000
  H   H124      1.0  0.46154  0.35575  0.42523  1.0000
  C   C185      1.0  0.47096  0.06976  0.34663  1.0000
  C   C186      1.0  0.45910  0.04597  0.34533  1.0000
  C   C187      1.0  0.47516  0.03851  0.34019  1.0000
  N   N21       1.0  0.49607  0.05797  0.33822  1.0000
  C   C188      1.0  0.49451  0.07737  0.34162  1.0000
  C   C189      1.0  0.51232  0.10085  0.34000  1.0000
  C   C190      1.0  0.53625  0.10845  0.33710  1.0000
  N   N22       1.0  0.54650  0.09546  0.33864  1.0000
  C   C191      1.0  0.56971  0.10852  0.33531  1.0000
  C   C192      1.0  0.57468  0.13138  0.33159  1.0000
  C   C193      1.0  0.55408  0.13134  0.33259  1.0000
  C   C194      1.0  0.58611  0.10099  0.33679  1.0000
  C   C195      1.0  0.58055  0.07756  0.34021  1.0000
  N   N23       1.0  0.55964  0.05810  0.33823  1.0000
  C   C196      1.0  0.56120  0.03870  0.34172  1.0000
  C   C197      1.0  0.58476  0.04631  0.34697  1.0000
  C   C198      1.0  0.59661  0.07009  0.34557  1.0000
  C   C199      1.0  0.54340  0.01522  0.34002  1.0000
  C   C200      1.0  0.51946  0.00762  0.33720  1.0000
  N   N24       1.0  0.50922  0.02061  0.33882  1.0000
  C   C201      1.0  0.48601  0.00756  0.33557  1.0000
  C   C202      1.0  0.48103  0.98470  0.33176  1.0000
  C   C203      1.0  0.50164  0.98474  0.33263  1.0000
  C   C204      1.0  0.46961  0.01508  0.33699  1.0000
  C   C205      1.0  0.44589  0.99776  0.33534  1.0000
  C   C206      1.0  0.39923  0.96105  0.33171  1.0000
  C   C207      1.0  0.41068  0.97039  0.41373  1.0000
  C   C208      1.0  0.43373  0.98843  0.41566  1.0000
  C   C209      1.0  0.37628  0.94188  0.32998  1.0000
  C   C210      1.0  0.35881  0.94114  0.38509  1.0000
  C   C211      1.0  0.33641  0.92185  0.38503  1.0000
  C   C212      1.0  0.33064  0.90253  0.33014  1.0000
  C   C213      1.0  0.54989  0.99795  0.34201  1.0000
  C   C214      1.0  0.56016  0.96145  0.34429  1.0000
  C   C215      1.0  0.55369  0.96830  0.42337  1.0000
  C   C216      1.0  0.54869  0.98634  0.42243  1.0000
  C   C217      1.0  0.56399  0.94233  0.34441  1.0000
  C   C218      1.0  0.57046  0.90329  0.33988  1.0000
  C   C219      1.0  0.55129  0.90211  0.38394  1.0000
  C   C220      1.0  0.54811  0.92132  0.38614  1.0000
  C   C221      1.0  0.60983  0.11830  0.33513  1.0000
  C   C222      1.0  0.62214  0.12739  0.41543  1.0000
  C   C223      1.0  0.64526  0.14529  0.41351  1.0000
  C   C224      1.0  0.65661  0.15473  0.33151  1.0000
  C   C225      1.0  0.67968  0.17369  0.32982  1.0000
  C   C226      1.0  0.72561  0.21257  0.32987  1.0000
  C   C227      1.0  0.71965  0.19307  0.38435  1.0000
  C   C228      1.0  0.69711  0.17401  0.38446  1.0000
  C   C229      1.0  0.50585  0.11813  0.34209  1.0000
  C   C230      1.0  0.50709  0.12960  0.42262  1.0000
  C   C231      1.0  0.49604  0.15493  0.34437  1.0000
  C   C232      1.0  0.50232  0.14779  0.42356  1.0000
  C   C233      1.0  0.49255  0.17428  0.34443  1.0000
  C   C234      1.0  0.50862  0.19511  0.38660  1.0000
  C   C235      1.0  0.50582  0.21455  0.38424  1.0000
  C   C236      1.0  0.48683  0.21378  0.33967  1.0000
  H   H125      1.0  0.51806  0.22946  0.41388  1.0000
  H   H126      1.0  0.52296  0.19657  0.41731  1.0000
  H   H127      1.0  0.50358  0.15587  0.48292  1.0000
  H   H128      1.0  0.51196  0.12511  0.48072  1.0000
  H   H129      1.0  0.46332  0.07966  0.35010  1.0000
  H   H130      1.0  0.44156  0.03598  0.34791  1.0000
  H   H131      1.0  0.51035  0.05802  0.33233  1.0000
  H   H132      1.0  0.54536  0.05806  0.33179  1.0000
  H   H133      1.0  0.55263  0.14581  0.33020  1.0000
  H   H134      1.0  0.59057  0.14589  0.32881  1.0000
  H   H135      1.0  0.61424  0.12131  0.47578  1.0000
  H   H136      1.0  0.65347  0.15191  0.47295  1.0000
  H   H137      1.0  0.61416  0.08008  0.34816  1.0000
  H   H138      1.0  0.59240  0.03640  0.35050  1.0000
  H   H139      1.0  0.46515  0.97020  0.32888  1.0000
  H   H140      1.0  0.50308  0.97027  0.33012  1.0000
  H   H141      1.0  0.54376  0.99066  0.48048  1.0000
  H   H142      1.0  0.55250  0.96014  0.48267  1.0000
  H   H143      1.0  0.53365  0.91956  0.41643  1.0000
  H   H144      1.0  0.53917  0.88706  0.41316  1.0000
  H   H145      1.0  0.44171  0.99440  0.47600  1.0000
  H   H146      1.0  0.40259  0.96357  0.47315  1.0000
  H   H147      1.0  0.32426  0.92217  0.42526  1.0000
  H   H148      1.0  0.36218  0.95479  0.42536  1.0000
  H   H149      1.0  0.69361  0.16022  0.42440  1.0000
  H   H150      1.0  0.73176  0.19245  0.42422  1.0000
  C   C237      1.0  0.27749  0.50993  0.41720  1.0000
  C   C238      1.0  0.29924  0.51140  0.41548  1.0000
  H   H151      1.0  0.30668  0.51075  0.47450  1.0000
  C   C239      1.0  0.20494  0.51246  0.33120  1.0000
  C   C240      1.0  0.21412  0.50996  0.41312  1.0000
  C   C241      1.0  0.23481  0.50920  0.41595  1.0000
  C   C242      1.0  0.24458  0.50748  0.49725  1.0000
  C   C243      1.0  0.26573  0.50781  0.49788  1.0000
  H   H152      1.0  0.23658  0.50635  0.55668  1.0000
  H   H153      1.0  0.27269  0.50695  0.55775  1.0000
  H   H154      1.0  0.20622  0.50966  0.47190  1.0000
  C   C244      1.0  0.57320  0.88359  0.33681  1.0000
  C   C245      1.0  0.57619  0.84306  0.33780  1.0000
  C   C246      1.0  0.57746  0.85414  0.41988  1.0000
  C   C247      1.0  0.57599  0.87441  0.41816  1.0000
  H   H155      1.0  0.57665  0.88243  0.47719  1.0000
  C   C248      1.0  0.57655  0.82217  0.33707  1.0000
  C   C249      1.0  0.57493  0.77919  0.33386  1.0000
  C   C250      1.0  0.57744  0.79075  0.41578  1.0000
  C   C251      1.0  0.57820  0.81219  0.41861  1.0000
  C   C252      1.0  0.57993  0.82356  0.49991  1.0000
  C   C253      1.0  0.57959  0.84438  0.50054  1.0000
  H   H156      1.0  0.58105  0.81660  0.55934  1.0000
  H   H157      1.0  0.58045  0.85210  0.56041  1.0000
  H   H158      1.0  0.57774  0.78305  0.47455  1.0000
  C   C254      1.0  0.23316  0.80984  0.41682  1.0000
  C   C255      1.0  0.21289  0.78809  0.41466  1.0000
  H   H159      1.0  0.20481  0.78059  0.47352  1.0000
  C   C256      1.0  0.29655  0.87322  0.41409  1.0000
  C   C257      1.0  0.27510  0.85253  0.41646  1.0000
  C   C258      1.0  0.26363  0.84269  0.49752  1.0000
  C   C259      1.0  0.24281  0.82153  0.49770  1.0000
  H   H160      1.0  0.27052  0.85063  0.55711  1.0000
  H   H161      1.0  0.23502  0.81453  0.55741  1.0000
  H   H162      1.0  0.30417  0.88107  0.47304  1.0000
  C   C260      1.0  0.78344  0.60665  0.41683  1.0000
  C   C261      1.0  0.76188  0.60561  0.41517  1.0000
  H   H163      1.0  0.75465  0.60647  0.47418  1.0000
  C   C262      1.0  0.85500  0.60252  0.33088  1.0000
  C   C263      1.0  0.84612  0.60530  0.41272  1.0000
  C   C264      1.0  0.82568  0.60650  0.41554  1.0000
  C   C265      1.0  0.81622  0.60854  0.49679  1.0000
  C   C266      1.0  0.79528  0.60864  0.49742  1.0000
  H   H164      1.0  0.82428  0.60956  0.55618  1.0000
  H   H165      1.0  0.78855  0.60971  0.55727  1.0000
  H   H166      1.0  0.85409  0.60553  0.47149  1.0000
  C   C267      1.0  0.48448  0.23371  0.33652  1.0000
  C   C268      1.0  0.48231  0.27469  0.33745  1.0000
  C   C269      1.0  0.48075  0.26336  0.41948  1.0000
  C   C270      1.0  0.48181  0.24286  0.41778  1.0000
  H   H167      1.0  0.48095  0.23467  0.47679  1.0000
  C   C271      1.0  0.48238  0.29580  0.33673  1.0000
  C   C272      1.0  0.48488  0.33920  0.33366  1.0000
  C   C273      1.0  0.48207  0.32739  0.41546  1.0000
  C   C274      1.0  0.48088  0.30575  0.41824  1.0000
  C   C275      1.0  0.47886  0.29413  0.49948  1.0000
  C   C276      1.0  0.47877  0.27309  0.50009  1.0000
  H   H168      1.0  0.47784  0.30107  0.55888  1.0000
  H   H169      1.0  0.47771  0.26520  0.55992  1.0000
  H   H170      1.0  0.48188  0.33505  0.47425  1.0000
  C   C277      1.0  0.82415  0.30402  0.41638  1.0000
  C   C278      1.0  0.84465  0.32558  0.41427  1.0000
  H   H171      1.0  0.85291  0.33287  0.47312  1.0000
  C   C279      1.0  0.76009  0.24134  0.41368  1.0000
  C   C280      1.0  0.78175  0.26179  0.41602  1.0000
  C   C281      1.0  0.79347  0.27132  0.49702  1.0000
  C   C282      1.0  0.81452  0.29225  0.49720  1.0000
  H   H172      1.0  0.78660  0.26332  0.55658  1.0000
  H   H173      1.0  0.82248  0.29905  0.55689  1.0000
  H   H174      1.0  0.75251  0.23343  0.47261  1.0000
