data_image0
_chemical_formula_structural       CNC2NC4NC18H14C2NC16H12C3NC2NC5NC4NC18H14CNC16H12C11H11CNCNC4NC16H13NC2HNCHNCHNCHNCHNCHNCHNCHCNC2HCNC2HNC2HNCHC7NC12H12C2NC3NC3NC18H14C12H12C3NC3NC3NC18H14C3NC3NC2NC5NC20H15C8NC14H13CNCHCNC2HCNC2HCNC2HCNC2HCNC2HCNC2HCNC2HCNHCNHCNCHCNC2H
_chemical_formula_sum              "C312 N48 H180"
_cell_length_a       56.9097
_cell_length_b       56.9097
_cell_length_c       14.9975
_cell_angle_alpha    90.0018
_cell_angle_beta     89.9652
_cell_angle_gamma    120

_space_group_name_H-M_alt    "P 1"
_space_group_IT_number       1

loop_
  _space_group_symop_operation_xyz
  'x, y, z'

loop_
  _atom_site_type_symbol
  _atom_site_label
  _atom_site_symmetry_multiplicity
  _atom_site_fract_x
  _atom_site_fract_y
  _atom_site_fract_z
  _atom_site_occupancy
  C   C1        1.0  0.28663  0.53023  0.33168  1.0000
  N   N1        1.0  0.27774  0.48810  0.33650  1.0000
  C   C2        1.0  0.30518  0.50337  0.33335  1.0000
  C   C3        1.0  0.32506  0.49517  0.33266  1.0000
  N   N2        1.0  0.29459  0.44512  0.33412  1.0000
  C   C4        1.0  0.29655  0.42243  0.33354  1.0000
  C   C5        1.0  0.32430  0.43122  0.33283  1.0000
  C   C6        1.0  0.33827  0.45921  0.33242  1.0000
  C   C7        1.0  0.27510  0.39503  0.33404  1.0000
  N   N3        1.0  0.23475  0.40185  0.33641  1.0000
  C   C8        1.0  0.20731  0.38654  0.33867  1.0000
  C   C9        1.0  0.22590  0.35971  0.33882  1.0000
  C   C10       1.0  0.21598  0.46765  0.33798  1.0000
  C   C11       1.0  0.23738  0.49504  0.33748  1.0000
  C   C12       1.0  0.23024  0.51576  0.33770  1.0000
  C   C13       1.0  0.22136  0.52244  0.25879  1.0000
  C   C14       1.0  0.21671  0.54450  0.25718  1.0000
  C   C15       1.0  0.22108  0.56078  0.33380  1.0000
  C   C16       1.0  0.14692  0.36003  0.26068  1.0000
  C   C17       1.0  0.11884  0.34156  0.25902  1.0000
  C   C18       1.0  0.28253  0.37457  0.33162  1.0000
  C   C19       1.0  0.30253  0.33749  0.32871  1.0000
  C   C20       1.0  0.30051  0.34990  0.24935  1.0000
  C   C21       1.0  0.29057  0.36808  0.25058  1.0000
  C   C22       1.0  0.35286  0.51591  0.33004  1.0000
  C   C23       1.0  0.36489  0.52910  0.24908  1.0000
  C   C24       1.0  0.39147  0.55136  0.24795  1.0000
  C   C25       1.0  0.40696  0.56099  0.32729  1.0000
  H   H1        1.0  0.39917  0.56079  0.18823  1.0000
  H   H2        1.0  0.35403  0.52319  0.19093  1.0000
  H   H3        1.0  0.28512  0.54737  0.32918  1.0000
  H   H4        1.0  0.26805  0.46865  0.33979  1.0000
  H   H5        1.0  0.24443  0.42131  0.33356  1.0000
  H   H6        1.0  0.35894  0.47104  0.33146  1.0000
  H   H7        1.0  0.33325  0.41950  0.33266  1.0000
  H   H8        1.0  0.29010  0.37725  0.19239  1.0000
  H   H9        1.0  0.30677  0.34628  0.18955  1.0000
  H   H10       1.0  0.22752  0.34261  0.33946  1.0000
  H   H11       1.0  0.15792  0.36358  0.20323  1.0000
  H   H12       1.0  0.11038  0.33188  0.20030  1.0000
  H   H13       1.0  0.21049  0.54881  0.19854  1.0000
  H   H14       1.0  0.21888  0.51170  0.20139  1.0000
  C   C26       1.0  0.53734  0.75647  0.33188  1.0000
  C   C27       1.0  0.56419  0.80187  0.33378  1.0000
  N   N4        1.0  0.62243  0.84953  0.33458  1.0000
  C   C28       1.0  0.64512  0.87418  0.33400  1.0000
  C   C29       1.0  0.63633  0.89314  0.33342  1.0000
  C   C30       1.0  0.60834  0.87912  0.33305  1.0000
  C   C31       1.0  0.67252  0.88013  0.33438  1.0000
  C   C32       1.0  0.68101  0.82082  0.33893  1.0000
  C   C33       1.0  0.70785  0.86626  0.33887  1.0000
  C   C34       1.0  0.59991  0.74839  0.33846  1.0000
  C   C35       1.0  0.54516  0.69898  0.25928  1.0000
  C   C36       1.0  0.52310  0.67226  0.25766  1.0000
  C   C37       1.0  0.70754  0.78693  0.26107  1.0000
  C   C38       1.0  0.72601  0.77732  0.25944  1.0000
  C   C39       1.0  0.69298  0.90802  0.33190  1.0000
  C   C40       1.0  0.71765  0.95065  0.24952  1.0000
  C   C41       1.0  0.69947  0.92252  0.25082  1.0000
  C   C42       1.0  0.53852  0.83586  0.24944  1.0000
  C   C43       1.0  0.51627  0.84021  0.24817  1.0000
  H   H15       1.0  0.50690  0.83851  0.18839  1.0000
  H   H16       1.0  0.54450  0.83096  0.19129  1.0000
  H   H17       1.0  0.52021  0.73782  0.32912  1.0000
  H   H18       1.0  0.59651  0.88796  0.33216  1.0000
  H   H19       1.0  0.64805  0.91381  0.33325  1.0000
  H   H20       1.0  0.69029  0.91287  0.19268  1.0000
  H   H21       1.0  0.72125  0.96052  0.18971  1.0000
  H   H22       1.0  0.72494  0.88498  0.33959  1.0000
  H   H23       1.0  0.70400  0.79438  0.20361  1.0000
  H   H24       1.0  0.73569  0.77852  0.20069  1.0000
  H   H25       1.0  0.51881  0.66172  0.19903  1.0000
  H   H26       1.0  0.55593  0.70722  0.20189  1.0000
  C   C44       1.0  0.28689  0.75669  0.33040  1.0000
  C   C45       1.0  0.31109  0.78094  0.33118  1.0000
  C   C46       1.0  0.30532  0.80208  0.33537  1.0000
  N   N5        1.0  0.27786  0.78983  0.33617  1.0000
  C   C47       1.0  0.26569  0.76239  0.33294  1.0000
  C   C48       1.0  0.23761  0.74250  0.33235  1.0000
  N   N6        1.0  0.21803  0.77297  0.33371  1.0000
  C   C49       1.0  0.19338  0.77101  0.33316  1.0000
  C   C50       1.0  0.17442  0.74326  0.33262  1.0000
  C   C51       1.0  0.18844  0.72929  0.33224  1.0000
  C   C52       1.0  0.18743  0.79246  0.33356  1.0000
  C   C53       1.0  0.20715  0.82056  0.33574  1.0000
  N   N7        1.0  0.23460  0.83282  0.33581  1.0000
  C   C54       1.0  0.24673  0.86025  0.33806  1.0000
  C   C55       1.0  0.22552  0.86593  0.34005  1.0000
  C   C56       1.0  0.20130  0.84165  0.33794  1.0000
  C   C57       1.0  0.27482  0.88009  0.33875  1.0000
  N   N8        1.0  0.29449  0.84960  0.33792  1.0000
  C   C58       1.0  0.31917  0.85159  0.33771  1.0000
  C   C59       1.0  0.32515  0.83018  0.33721  1.0000
  C   C60       1.0  0.35302  0.83733  0.33755  1.0000
  C   C61       1.0  0.36864  0.84626  0.25873  1.0000
  C   C62       1.0  0.39536  0.85092  0.25724  1.0000
  C   C63       1.0  0.40719  0.84648  0.33387  1.0000
  C   C64       1.0  0.28213  0.90799  0.33934  1.0000
  C   C65       1.0  0.28068  0.92070  0.26040  1.0000
  C   C66       1.0  0.29027  0.94877  0.25887  1.0000
  C   C67       1.0  0.30195  0.96507  0.33558  1.0000
  C   C68       1.0  0.15954  0.78503  0.33116  1.0000
  C   C69       1.0  0.10245  0.76501  0.32829  1.0000
  C   C70       1.0  0.11691  0.76705  0.24892  1.0000
  C   C71       1.0  0.14503  0.77699  0.25014  1.0000
  C   C72       1.0  0.23056  0.71470  0.32972  1.0000
  C   C73       1.0  0.23173  0.70270  0.24874  1.0000
  C   C74       1.0  0.22742  0.67612  0.24760  1.0000
  C   C75       1.0  0.22154  0.66061  0.32693  1.0000
  H   H27       1.0  0.22914  0.66844  0.18785  1.0000
  H   H28       1.0  0.23669  0.71358  0.19059  1.0000
  H   H29       1.0  0.32975  0.78245  0.32856  1.0000
  H   H30       1.0  0.26810  0.79951  0.33972  1.0000
  H   H31       1.0  0.24438  0.82313  0.33344  1.0000
  H   H32       1.0  0.17960  0.70862  0.33138  1.0000
  H   H33       1.0  0.15375  0.73431  0.33249  1.0000
  H   H34       1.0  0.15468  0.77745  0.19195  1.0000
  H   H35       1.0  0.10704  0.76076  0.18916  1.0000
  H   H36       1.0  0.18259  0.84003  0.33859  1.0000
  H   H37       1.0  0.27328  0.90974  0.20288  1.0000
  H   H38       1.0  0.28913  0.95729  0.20013  1.0000
  H   H39       1.0  0.40594  0.85720  0.19866  1.0000
  H   H40       1.0  0.36043  0.84880  0.20131  1.0000
  C   C76       1.0  0.78486  0.54172  0.33400  1.0000
  N   N9        1.0  0.79545  0.59997  0.33477  1.0000
  C   C77       1.0  0.79349  0.62266  0.33421  1.0000
  C   C78       1.0  0.76574  0.61387  0.33360  1.0000
  C   C79       1.0  0.75177  0.58588  0.33319  1.0000
  C   C80       1.0  0.81494  0.65005  0.33461  1.0000
  C   C81       1.0  0.88273  0.65854  0.33904  1.0000
  C   C82       1.0  0.86414  0.68538  0.33899  1.0000
  C   C83       1.0  0.87406  0.57743  0.33856  1.0000
  C   C84       1.0  0.86871  0.52267  0.25940  1.0000
  C   C85       1.0  0.87336  0.50060  0.25778  1.0000
  C   C86       1.0  0.94313  0.68504  0.26098  1.0000
  C   C87       1.0  0.97120  0.70350  0.25920  1.0000
  C   C88       1.0  0.80751  0.67052  0.33212  1.0000
  C   C89       1.0  0.78956  0.69517  0.24975  1.0000
  C   C90       1.0  0.79953  0.67701  0.25104  1.0000
  C   C91       1.0  0.72519  0.51601  0.24976  1.0000
  C   C92       1.0  0.69860  0.49375  0.24862  1.0000
  H   H41       1.0  0.69093  0.48433  0.18889  1.0000
  H   H42       1.0  0.73607  0.52193  0.19161  1.0000
  H   H43       1.0  0.80491  0.49772  0.32970  1.0000
  H   H44       1.0  0.73110  0.57405  0.33229  1.0000
  H   H45       1.0  0.75679  0.62560  0.33344  1.0000
  H   H46       1.0  0.79997  0.66781  0.19291  1.0000
  H   H47       1.0  0.78329  0.69877  0.18995  1.0000
  H   H48       1.0  0.86252  0.70247  0.33962  1.0000
  H   H49       1.0  0.93213  0.68145  0.20354  1.0000
  H   H50       1.0  0.97967  0.71315  0.20041  1.0000
  H   H51       1.0  0.87963  0.49631  0.19916  1.0000
  H   H52       1.0  0.87122  0.53342  0.20201  1.0000
  C   C93       1.0  0.44491  0.17090  0.33446  1.0000
  C   C94       1.0  0.45370  0.15194  0.33374  1.0000
  C   C95       1.0  0.48169  0.16596  0.33338  1.0000
  C   C96       1.0  0.54493  0.34611  0.25986  1.0000
  C   C97       1.0  0.56699  0.37283  0.25824  1.0000
  C   C98       1.0  0.38254  0.25815  0.26137  1.0000
  C   C99       1.0  0.36408  0.26776  0.25960  1.0000
  C   C100      1.0  0.37242  0.09449  0.24972  1.0000
  C   C101      1.0  0.39061  0.12261  0.25115  1.0000
  C   C102      1.0  0.55156  0.20925  0.24998  1.0000
  C   C103      1.0  0.57382  0.20492  0.24876  1.0000
  H   H53       1.0  0.58324  0.20667  0.18900  1.0000
  H   H54       1.0  0.54564  0.21421  0.19187  1.0000
  H   H55       1.0  0.56984  0.30727  0.33026  1.0000
  H   H56       1.0  0.49352  0.15712  0.33242  1.0000
  H   H57       1.0  0.39980  0.13230  0.19303  1.0000
  H   H58       1.0  0.36884  0.08466  0.18986  1.0000
  H   H59       1.0  0.36509  0.16011  0.34019  1.0000
  H   H60       1.0  0.38612  0.25071  0.20395  1.0000
  H   H61       1.0  0.35442  0.26655  0.20083  1.0000
  H   H62       1.0  0.57130  0.38337  0.19959  1.0000
  H   H63       1.0  0.53419  0.33787  0.20246  1.0000
  C   C104      1.0  0.77895  0.26415  0.33186  1.0000
  N   N10       1.0  0.81218  0.25526  0.33690  1.0000
  C   C105      1.0  0.82435  0.28270  0.33366  1.0000
  N   N11       1.0  0.87201  0.27211  0.33438  1.0000
  C   C106      1.0  0.89666  0.27408  0.33379  1.0000
  C   C107      1.0  0.91562  0.30183  0.33320  1.0000
  C   C108      1.0  0.90160  0.31580  0.33285  1.0000
  C   C109      1.0  0.90261  0.25263  0.33416  1.0000
  N   N12       1.0  0.85543  0.21227  0.33646  1.0000
  C   C110      1.0  0.84330  0.18483  0.33872  1.0000
  C   C111      1.0  0.88874  0.20343  0.33864  1.0000
  C   C112      1.0  0.77087  0.19350  0.33838  1.0000
  C   C113      1.0  0.76488  0.21490  0.33790  1.0000
  C   C114      1.0  0.72144  0.19885  0.25941  1.0000
  C   C115      1.0  0.69472  0.19420  0.25791  1.0000
  C   C116      1.0  0.68285  0.19862  0.33455  1.0000
  C   C117      1.0  0.80942  0.12443  0.26087  1.0000
  C   C118      1.0  0.79982  0.09635  0.25922  1.0000
  C   C119      1.0  0.93050  0.26006  0.33168  1.0000
  C   C120      1.0  0.98759  0.28008  0.32861  1.0000
  C   C121      1.0  0.97314  0.27803  0.24929  1.0000
  C   C122      1.0  0.94501  0.26809  0.25060  1.0000
  C   C123      1.0  0.85948  0.33038  0.33040  1.0000
  C   C124      1.0  0.85834  0.34239  0.24942  1.0000
  C   C125      1.0  0.86268  0.36899  0.24824  1.0000
  H   H64       1.0  0.86098  0.37668  0.18849  1.0000
  H   H65       1.0  0.85344  0.33154  0.19125  1.0000
  H   H66       1.0  0.76029  0.26263  0.32915  1.0000
  H   H67       1.0  0.82194  0.24557  0.34056  1.0000
  H   H68       1.0  0.91043  0.33646  0.33197  1.0000
  H   H69       1.0  0.93629  0.31078  0.33302  1.0000
  H   H70       1.0  0.93537  0.26763  0.19245  1.0000
  H   H71       1.0  0.98301  0.28431  0.18948  1.0000
  H   H72       1.0  0.90745  0.20505  0.33936  1.0000
  H   H73       1.0  0.81687  0.13542  0.20341  1.0000
  H   H74       1.0  0.80103  0.08788  0.20048  1.0000
  H   H75       1.0  0.68417  0.18795  0.19932  1.0000
  H   H76       1.0  0.72967  0.19633  0.20198  1.0000
  N   N13       1.0  0.22831  0.62616  0.25606  1.0000
  C   C126      1.0  0.22823  0.60232  0.25508  1.0000
  C   C127      1.0  0.21907  0.58485  0.32996  1.0000
  H   H77       1.0  0.23620  0.59807  0.20050  1.0000
  N   N14       1.0  0.44142  0.60221  0.25643  1.0000
  C   C128      1.0  0.46527  0.62598  0.25548  1.0000
  H   H78       1.0  0.46954  0.63820  0.20089  1.0000
  N   N15       1.0  0.46542  0.83932  0.25638  1.0000
  C   C129      1.0  0.44166  0.83941  0.25528  1.0000
  H   H79       1.0  0.42948  0.83147  0.20064  1.0000
  N   N16       1.0  0.86177  0.41894  0.25666  1.0000
  C   C130      1.0  0.86185  0.44279  0.25567  1.0000
  H   H80       1.0  0.85390  0.44704  0.20108  1.0000
  N   N17       1.0  0.64865  0.44289  0.25709  1.0000
  C   C131      1.0  0.62480  0.41912  0.25612  1.0000
  H   H81       1.0  0.62056  0.40691  0.20155  1.0000
  N   N18       1.0  0.62467  0.20582  0.25702  1.0000
  C   C132      1.0  0.64844  0.20574  0.25594  1.0000
  H   H82       1.0  0.66064  0.21369  0.20131  1.0000
  N   N19       1.0  0.03127  0.30763  0.25778  1.0000
  C   C133      1.0  0.05875  0.32124  0.25678  1.0000
  H   H83       1.0  0.06828  0.33302  0.20245  1.0000
  N   N20       1.0  0.75993  0.72367  0.25828  1.0000
  C   C134      1.0  0.74633  0.73755  0.25728  1.0000
  H   H84       1.0  0.73455  0.73529  0.20297  1.0000
  C   C135      1.0  0.34348  0.05116  0.32852  1.0000
  N   N21       1.0  0.34392  0.03635  0.25802  1.0000
  C   C136      1.0  0.33005  0.00887  0.25692  1.0000
  C   C137      1.0  0.31454  0.99400  0.33160  1.0000
  H   H85       1.0  0.33235  0.99938  0.20259  1.0000
  C   C138      1.0  0.07363  0.75267  0.32805  1.0000
  N   N22       1.0  0.05878  0.73742  0.25767  1.0000
  C   C139      1.0  0.03130  0.72381  0.25679  1.0000
  C   C140      1.0  0.01647  0.72449  0.33154  1.0000
  H   H86       1.0  0.02177  0.71202  0.20253  1.0000
  N   N23       1.0  0.33014  0.32140  0.25806  1.0000
  C   C141      1.0  0.34375  0.30753  0.25717  1.0000
  C   C142      1.0  0.34307  0.29204  0.33195  1.0000
  H   H87       1.0  0.35555  0.30979  0.20289  1.0000
  N   N24       1.0  0.74617  0.00878  0.25803  1.0000
  C   C143      1.0  0.76005  0.03626  0.25704  1.0000
  H   H88       1.0  0.75780  0.04579  0.20272  1.0000
  C   C144      1.0  0.31088  0.53027  0.33095  1.0000
  C   C145      1.0  0.26549  0.50331  0.33575  1.0000
  C   C146      1.0  0.31923  0.46785  0.33343  1.0000
  C   C147      1.0  0.24700  0.38665  0.33637  1.0000
  C   C148      1.0  0.20163  0.35965  0.34088  1.0000
  C   C149      1.0  0.18747  0.39480  0.33914  1.0000
  C   C150      1.0  0.19335  0.42219  0.33846  1.0000
  N   N25       1.0  0.21796  0.44496  0.33835  1.0000
  C   C151      1.0  0.18827  0.45890  0.33822  1.0000
  C   C152      1.0  0.17434  0.43092  0.33748  1.0000
  C   C153      1.0  0.22936  0.55344  0.41314  1.0000
  C   C154      1.0  0.23378  0.53124  0.41528  1.0000
  C   C155      1.0  0.15957  0.37421  0.33963  1.0000
  C   C156      1.0  0.10250  0.33695  0.33564  1.0000
  C   C157      1.0  0.11559  0.35078  0.41511  1.0000
  C   C158      1.0  0.14371  0.36901  0.41736  1.0000
  C   C159      1.0  0.28381  0.36188  0.41083  1.0000
  C   C160      1.0  0.29348  0.34345  0.40915  1.0000
  C   C161      1.0  0.36825  0.52484  0.40922  1.0000
  C   C162      1.0  0.39496  0.54692  0.40761  1.0000
  H   H89       1.0  0.40509  0.55331  0.46691  1.0000
  H   H90       1.0  0.35984  0.51584  0.46894  1.0000
  H   H91       1.0  0.32951  0.54744  0.32834  1.0000
  H   H92       1.0  0.27848  0.36659  0.47061  1.0000
  H   H93       1.0  0.29495  0.33541  0.46846  1.0000
  H   H94       1.0  0.18298  0.34250  0.34333  1.0000
  H   H95       1.0  0.17933  0.47064  0.33790  1.0000
  H   H96       1.0  0.15368  0.41918  0.33663  1.0000
  H   H97       1.0  0.15232  0.37939  0.47504  1.0000
  H   H98       1.0  0.10461  0.34882  0.47146  1.0000
  H   H99       1.0  0.24068  0.52713  0.47292  1.0000
  H   H100      1.0  0.23366  0.56503  0.46943  1.0000
  C   C163      1.0  0.53729  0.78067  0.33120  1.0000
  C   C164      1.0  0.56425  0.76224  0.33616  1.0000
  N   N26       1.0  0.57946  0.78970  0.33703  1.0000
  C   C165      1.0  0.57238  0.82995  0.33318  1.0000
  C   C166      1.0  0.59970  0.85144  0.33402  1.0000
  C   C167      1.0  0.68091  0.86041  0.33659  1.0000
  N   N27       1.0  0.66571  0.83296  0.33666  1.0000
  C   C168      1.0  0.70791  0.84205  0.34100  1.0000
  C   C169      1.0  0.67276  0.79274  0.33955  1.0000
  C   C170      1.0  0.64537  0.77122  0.33892  1.0000
  N   N28       1.0  0.62260  0.77307  0.33874  1.0000
  C   C171      1.0  0.60866  0.72943  0.33876  1.0000
  C   C172      1.0  0.63665  0.74349  0.33808  1.0000
  C   C173      1.0  0.57252  0.74240  0.33794  1.0000
  C   C174      1.0  0.55180  0.71454  0.33816  1.0000
  C   C175      1.0  0.50677  0.66037  0.33424  1.0000
  C   C176      1.0  0.51405  0.67601  0.41354  1.0000
  C   C177      1.0  0.53629  0.70261  0.41575  1.0000
  C   C178      1.0  0.69335  0.78543  0.34005  1.0000
  C   C179      1.0  0.73062  0.76562  0.33610  1.0000
  C   C180      1.0  0.71681  0.76494  0.41561  1.0000
  C   C181      1.0  0.69854  0.77479  0.41779  1.0000
  C   C182      1.0  0.70567  0.92201  0.41108  1.0000
  C   C183      1.0  0.72408  0.95011  0.40932  1.0000
  C   C184      1.0  0.73005  0.96511  0.32884  1.0000
  C   C185      1.0  0.55164  0.83701  0.33046  1.0000
  C   C186      1.0  0.54264  0.84343  0.40960  1.0000
  C   C187      1.0  0.50658  0.84604  0.32746  1.0000
  C   C188      1.0  0.52057  0.84807  0.40788  1.0000
  H   H101      1.0  0.51413  0.85180  0.46714  1.0000
  H   H102      1.0  0.55160  0.84400  0.46937  1.0000
  H   H103      1.0  0.52013  0.78213  0.32828  1.0000
  H   H104      1.0  0.59890  0.79946  0.34072  1.0000
  H   H105      1.0  0.64625  0.82318  0.33411  1.0000
  H   H106      1.0  0.70098  0.91199  0.47086  1.0000
  H   H107      1.0  0.73216  0.95964  0.46857  1.0000
  H   H108      1.0  0.72506  0.84055  0.34348  1.0000
  H   H109      1.0  0.59693  0.70876  0.33863  1.0000
  H   H110      1.0  0.64838  0.73456  0.33732  1.0000
  H   H111      1.0  0.68817  0.77304  0.47550  1.0000
  H   H112      1.0  0.71873  0.75590  0.47193  1.0000
  H   H113      1.0  0.54035  0.71364  0.47333  1.0000
  H   H114      1.0  0.50245  0.66871  0.46983  1.0000
  C   C189      1.0  0.21612  0.74833  0.33318  1.0000
  C   C190      1.0  0.29634  0.87421  0.33815  1.0000
  C   C191      1.0  0.33813  0.87929  0.33809  1.0000
  C   C192      1.0  0.32407  0.89322  0.33742  1.0000
  C   C193      1.0  0.39150  0.83811  0.41310  1.0000
  C   C194      1.0  0.36490  0.83373  0.41518  1.0000
  C   C195      1.0  0.30261  0.95191  0.41503  1.0000
  C   C196      1.0  0.29270  0.92379  0.41718  1.0000
  C   C197      1.0  0.14555  0.78373  0.41038  1.0000
  C   C198      1.0  0.11746  0.77408  0.40870  1.0000
  C   C199      1.0  0.22409  0.69930  0.40890  1.0000
  C   C200      1.0  0.21947  0.67259  0.40728  1.0000
  H   H115      1.0  0.21567  0.66242  0.46655  1.0000
  H   H116      1.0  0.22348  0.70769  0.46862  1.0000
  H   H117      1.0  0.28543  0.73806  0.32769  1.0000
  H   H118      1.0  0.15557  0.78909  0.47013  1.0000
  H   H119      1.0  0.10792  0.77260  0.46801  1.0000
  H   H120      1.0  0.22700  0.88458  0.34250  1.0000
  H   H121      1.0  0.35880  0.88823  0.33810  1.0000
  H   H122      1.0  0.33300  0.91389  0.33676  1.0000
  H   H123      1.0  0.29445  0.91515  0.47482  1.0000
  H   H124      1.0  0.31159  0.96286  0.47141  1.0000
  H   H125      1.0  0.35384  0.82678  0.47275  1.0000
  H   H126      1.0  0.39877  0.83382  0.46946  1.0000
  C   C201      1.0  0.77916  0.51482  0.33159  1.0000
  C   C202      1.0  0.80340  0.51486  0.33228  1.0000
  C   C203      1.0  0.82454  0.54177  0.33634  1.0000
  N   N29       1.0  0.81230  0.55699  0.33716  1.0000
  C   C204      1.0  0.76498  0.54992  0.33336  1.0000
  C   C205      1.0  0.77081  0.57724  0.33416  1.0000
  C   C206      1.0  0.84304  0.65844  0.33680  1.0000
  N   N30       1.0  0.85530  0.64323  0.33686  1.0000
  C   C207      1.0  0.88841  0.68543  0.34104  1.0000
  C   C208      1.0  0.90256  0.65028  0.33963  1.0000
  C   C209      1.0  0.89669  0.62289  0.33902  1.0000
  N   N31       1.0  0.87207  0.60013  0.33886  1.0000
  C   C210      1.0  0.90176  0.58618  0.33882  1.0000
  C   C211      1.0  0.91569  0.61416  0.33815  1.0000
  C   C212      1.0  0.85265  0.55004  0.33809  1.0000
  C   C213      1.0  0.85979  0.52932  0.33830  1.0000
  C   C214      1.0  0.86894  0.48430  0.33438  1.0000
  C   C215      1.0  0.86059  0.49160  0.41370  1.0000
  C   C216      1.0  0.85622  0.51383  0.41588  1.0000
  C   C217      1.0  0.93047  0.67087  0.34002  1.0000
  C   C218      1.0  0.98755  0.70813  0.33578  1.0000
  C   C219      1.0  0.97444  0.69433  0.41534  1.0000
  C   C220      1.0  0.94633  0.67610  0.41770  1.0000
  C   C221      1.0  0.80621  0.68322  0.41129  1.0000
  C   C222      1.0  0.79654  0.70164  0.40953  1.0000
  C   C223      1.0  0.78751  0.70759  0.32906  1.0000
  C   C224      1.0  0.73717  0.52918  0.33073  1.0000
  C   C225      1.0  0.72175  0.52023  0.40990  1.0000
  C   C226      1.0  0.68308  0.48410  0.32795  1.0000
  C   C227      1.0  0.69505  0.49814  0.40830  1.0000
  H   H127      1.0  0.68488  0.49175  0.46757  1.0000
  H   H128      1.0  0.73014  0.52922  0.46963  1.0000
  H   H129      1.0  0.76052  0.49765  0.32891  1.0000
  H   H130      1.0  0.82199  0.57644  0.34049  1.0000
  H   H131      1.0  0.84561  0.62377  0.33450  1.0000
  H   H132      1.0  0.81150  0.67850  0.47110  1.0000
  H   H133      1.0  0.79503  0.70968  0.46881  1.0000
  H   H134      1.0  0.90706  0.70259  0.34344  1.0000
  H   H135      1.0  0.91070  0.57444  0.33874  1.0000
  H   H136      1.0  0.93636  0.62590  0.33742  1.0000
  H   H137      1.0  0.93771  0.66574  0.47544  1.0000
  H   H138      1.0  0.98542  0.69631  0.47167  1.0000
  H   H139      1.0  0.84928  0.51792  0.47351  1.0000
  H   H140      1.0  0.85632  0.48003  0.47003  1.0000
  C   C228      1.0  0.55275  0.26441  0.33202  1.0000
  C   C229      1.0  0.55270  0.28861  0.33276  1.0000
  C   C230      1.0  0.52579  0.28284  0.33684  1.0000
  N   N32       1.0  0.51057  0.25538  0.33760  1.0000
  C   C231      1.0  0.52584  0.24321  0.33442  1.0000
  C   C232      1.0  0.51765  0.21513  0.33370  1.0000
  C   C233      1.0  0.49033  0.19364  0.33444  1.0000
  N   N33       1.0  0.46760  0.19555  0.33511  1.0000
  C   C234      1.0  0.41751  0.16496  0.33490  1.0000
  C   C235      1.0  0.40913  0.18467  0.33724  1.0000
  N   N34       1.0  0.42433  0.21213  0.33734  1.0000
  C   C236      1.0  0.40902  0.22426  0.33954  1.0000
  C   C237      1.0  0.38213  0.20304  0.34168  1.0000
  C   C238      1.0  0.38218  0.17882  0.33960  1.0000
  C   C239      1.0  0.41728  0.25235  0.34002  1.0000
  C   C240      1.0  0.44467  0.27386  0.33941  1.0000
  N   N35       1.0  0.46743  0.27201  0.33936  1.0000
  C   C241      1.0  0.49013  0.29669  0.33902  1.0000
  C   C242      1.0  0.48138  0.31565  0.33924  1.0000
  C   C243      1.0  0.45339  0.30159  0.33844  1.0000
  C   C244      1.0  0.51752  0.30268  0.33856  1.0000
  C   C245      1.0  0.53824  0.33054  0.33877  1.0000
  C   C246      1.0  0.58326  0.38472  0.33485  1.0000
  C   C247      1.0  0.57591  0.36908  0.41420  1.0000
  C   C248      1.0  0.55371  0.34246  0.41634  1.0000
  C   C249      1.0  0.39669  0.25966  0.34040  1.0000
  C   C250      1.0  0.35943  0.27948  0.33617  1.0000
  C   C251      1.0  0.37322  0.28019  0.41571  1.0000
  C   C252      1.0  0.39144  0.27030  0.41807  1.0000
  C   C253      1.0  0.39705  0.13707  0.33229  1.0000
  C   C254      1.0  0.38432  0.12303  0.41140  1.0000
  C   C255      1.0  0.36590  0.09493  0.40952  1.0000
  C   C256      1.0  0.35997  0.07998  0.32898  1.0000
  C   C257      1.0  0.53839  0.20807  0.33100  1.0000
  C   C258      1.0  0.54734  0.20161  0.41013  1.0000
  C   C259      1.0  0.58347  0.19905  0.32805  1.0000
  C   C260      1.0  0.56941  0.19696  0.40842  1.0000
  H   H141      1.0  0.57582  0.19322  0.46769  1.0000
  H   H142      1.0  0.53834  0.20100  0.46989  1.0000
  H   H143      1.0  0.56991  0.26295  0.32939  1.0000
  H   H144      1.0  0.49112  0.24562  0.34090  1.0000
  H   H145      1.0  0.44379  0.22190  0.33455  1.0000
  H   H146      1.0  0.44197  0.13127  0.33352  1.0000
  H   H147      1.0  0.38900  0.13301  0.47125  1.0000
  H   H148      1.0  0.35782  0.08536  0.46876  1.0000
  H   H149      1.0  0.36497  0.20453  0.34406  1.0000
  H   H150      1.0  0.49311  0.33632  0.33892  1.0000
  H   H151      1.0  0.44166  0.31052  0.33755  1.0000
  H   H152      1.0  0.40180  0.27206  0.47580  1.0000
  H   H153      1.0  0.37122  0.28919  0.47203  1.0000
  H   H154      1.0  0.54960  0.33145  0.47399  1.0000
  H   H155      1.0  0.58749  0.37637  0.47049  1.0000
  C   C261      1.0  0.80315  0.28840  0.33114  1.0000
  C   C262      1.0  0.78472  0.24301  0.33610  1.0000
  C   C263      1.0  0.85243  0.30258  0.33304  1.0000
  C   C264      1.0  0.87392  0.29675  0.33384  1.0000
  C   C265      1.0  0.88289  0.22453  0.33637  1.0000
  C   C266      1.0  0.86452  0.17915  0.34078  1.0000
  C   C267      1.0  0.81522  0.16499  0.33936  1.0000
  C   C268      1.0  0.79370  0.17087  0.33876  1.0000
  N   N36       1.0  0.79555  0.19548  0.33862  1.0000
  C   C269      1.0  0.75191  0.16579  0.33870  1.0000
  C   C270      1.0  0.76597  0.15186  0.33796  1.0000
  C   C271      1.0  0.73702  0.20776  0.33824  1.0000
  C   C272      1.0  0.69851  0.20697  0.41379  1.0000
  C   C273      1.0  0.72511  0.21133  0.41588  1.0000
  C   C274      1.0  0.80790  0.13709  0.33985  1.0000
  C   C275      1.0  0.78811  0.08002  0.33588  1.0000
  C   C276      1.0  0.78741  0.09313  0.41539  1.0000
  C   C277      1.0  0.79725  0.12124  0.41758  1.0000
  C   C278      1.0  0.94448  0.26135  0.41085  1.0000
  C   C279      1.0  0.97258  0.27104  0.40909  1.0000
  C   C280      1.0  0.86591  0.34578  0.40956  1.0000
  C   C281      1.0  0.86852  0.38448  0.32757  1.0000
  C   C282      1.0  0.87055  0.37249  0.40793  1.0000
  H   H156      1.0  0.87428  0.38263  0.46722  1.0000
  H   H157      1.0  0.86649  0.33738  0.46930  1.0000
  H   H158      1.0  0.80461  0.30702  0.32827  1.0000
  H   H159      1.0  0.84566  0.22195  0.33390  1.0000
  H   H160      1.0  0.93445  0.25600  0.47064  1.0000
  H   H161      1.0  0.98211  0.27248  0.46835  1.0000
  H   H162      1.0  0.86303  0.16051  0.34328  1.0000
  H   H163      1.0  0.73124  0.15685  0.33860  1.0000
  H   H164      1.0  0.75704  0.13120  0.33720  1.0000
  H   H165      1.0  0.79550  0.12986  0.47529  1.0000
  H   H166      1.0  0.77837  0.08216  0.47171  1.0000
  H   H167      1.0  0.73615  0.21830  0.47342  1.0000
  H   H168      1.0  0.69123  0.21127  0.47011  1.0000
  C   C283      1.0  0.20955  0.59373  0.40241  1.0000
  N   N37       1.0  0.21016  0.61785  0.39895  1.0000
  C   C284      1.0  0.21939  0.63454  0.32672  1.0000
  H   H169      1.0  0.20230  0.58237  0.45908  1.0000
  C   C285      1.0  0.47380  0.61590  0.40285  1.0000
  N   N38       1.0  0.44968  0.59238  0.39936  1.0000
  C   C286      1.0  0.43302  0.58492  0.32712  1.0000
  C   C287      1.0  0.48270  0.63430  0.33040  1.0000
  H   H170      1.0  0.48514  0.62002  0.45952  1.0000
  C   C288      1.0  0.45163  0.85798  0.40271  1.0000
  N   N39       1.0  0.47514  0.85737  0.39935  1.0000
  C   C289      1.0  0.48266  0.84819  0.32714  1.0000
  C   C290      1.0  0.43329  0.84852  0.33014  1.0000
  H   H171      1.0  0.44746  0.86519  0.45938  1.0000
  C   C291      1.0  0.88046  0.45135  0.40303  1.0000
  N   N40       1.0  0.87985  0.42723  0.39958  1.0000
  C   C292      1.0  0.87066  0.41055  0.32735  1.0000
  C   C293      1.0  0.87097  0.46023  0.33056  1.0000
  H   H172      1.0  0.88767  0.46270  0.45970  1.0000
  C   C294      1.0  0.61620  0.42919  0.40345  1.0000
  N   N41       1.0  0.64032  0.45270  0.39998  1.0000
  C   C295      1.0  0.65702  0.46018  0.32776  1.0000
  C   C296      1.0  0.60733  0.41080  0.33101  1.0000
  H   H173      1.0  0.60483  0.42506  0.46012  1.0000
  C   C297      1.0  0.63839  0.18711  0.40335  1.0000
  N   N42       1.0  0.61488  0.18772  0.39997  1.0000
  C   C298      1.0  0.60739  0.19692  0.32776  1.0000
  C   C299      1.0  0.65678  0.19662  0.33083  1.0000
  H   H174      1.0  0.64253  0.17989  0.46000  1.0000
  C   C300      1.0  0.05779  0.30435  0.40375  1.0000
  N   N43       1.0  0.03030  0.29121  0.40031  1.0000
  C   C301      1.0  0.01641  0.29241  0.32826  1.0000
  C   C302      1.0  0.07357  0.32060  0.33154  1.0000
  H   H175      1.0  0.06671  0.30248  0.46033  1.0000
  C   C303      1.0  0.76321  0.75353  0.40417  1.0000
  N   N44       1.0  0.77635  0.73917  0.40075  1.0000
  C   C304      1.0  0.77515  0.72407  0.32873  1.0000
  C   C305      1.0  0.74696  0.75304  0.33200  1.0000
  H   H176      1.0  0.76509  0.76434  0.46072  1.0000
  C   C306      1.0  0.31400  0.00972  0.40382  1.0000
  N   N45       1.0  0.32835  0.03722  0.40048  1.0000
  H   H177      1.0  0.30316  0.00077  0.46033  1.0000
  C   C307      1.0  0.03224  0.74075  0.40366  1.0000
  N   N46       1.0  0.05974  0.75389  0.40012  1.0000
  H   H178      1.0  0.02332  0.74265  0.46024  1.0000
  C   C308      1.0  0.32679  0.29155  0.40408  1.0000
  N   N47       1.0  0.31364  0.30590  0.40054  1.0000
  C   C309      1.0  0.31486  0.32100  0.32846  1.0000
  H   H179      1.0  0.32489  0.28075  0.46067  1.0000
  C   C310      1.0  0.77600  0.03532  0.40396  1.0000
  N   N48       1.0  0.76163  0.00782  0.40052  1.0000
  C   C311      1.0  0.74655  0.99393  0.32849  1.0000
  C   C312      1.0  0.77553  0.05109  0.33177  1.0000
  H   H180      1.0  0.78679  0.04424  0.46052  1.0000
