data_image0
_chemical_formula_structural       C3NC3NC5NC4NC35H25C21H18C16H16CNC2H2CO2HCNC2H2CO2HCNC2H2CO2HCNC2H2CO2HCNC2H2CO2HCNC2H2CO2HC18H17C3NC3NC2NC5NC34H24C3NC3NC5NC5NC36H26C4HC3NHCO2HC4HC3NHCO2HC4HC3NHCO2HC4HC3NHCO2HC4HC3NHCO2HC4HC3NHCO2H
_chemical_formula_sum              "C276 N24 H162 O24"
_cell_length_a       67.0395
_cell_length_b       67.0395
_cell_length_c       14.9583
_cell_angle_alpha    89.802
_cell_angle_beta     90.198
_cell_angle_gamma    120

_space_group_name_H-M_alt    "P 1"
_space_group_IT_number       1

loop_
  _space_group_symop_operation_xyz
  'x, y, z'

loop_
  _atom_site_type_symbol
  _atom_site_label
  _atom_site_symmetry_multiplicity
  _atom_site_fract_x
  _atom_site_fract_y
  _atom_site_fract_z
  _atom_site_occupancy
  C   C1        1.0  0.01819  0.48822  0.32295  1.0000
  C   C2        1.0  0.04197  0.50009  0.32135  1.0000
  C   C3        1.0  0.04959  0.52363  0.32698  1.0000
  N   N1        1.0  0.03017  0.52515  0.33061  1.0000
  C   C4        1.0  0.01071  0.50425  0.32856  1.0000
  C   C5        1.0  0.98727  0.49866  0.33218  1.0000
  C   C6        1.0  0.97975  0.51506  0.33369  1.0000
  N   N2        1.0  0.99275  0.53827  0.32986  1.0000
  C   C7        1.0  0.97974  0.54850  0.33188  1.0000
  C   C8        1.0  0.95690  0.53064  0.33744  1.0000
  C   C9        1.0  0.95690  0.51007  0.33821  1.0000
  C   C10       1.0  0.98727  0.57242  0.32879  1.0000
  C   C11       1.0  0.01076  0.59022  0.32694  1.0000
  N   N3        1.0  0.03018  0.58870  0.33065  1.0000
  C   C12       1.0  0.04964  0.60960  0.32858  1.0000
  C   C13       1.0  0.04216  0.62563  0.32284  1.0000
  C   C14       1.0  0.01838  0.61377  0.32120  1.0000
  C   C15       1.0  0.07308  0.61519  0.33235  1.0000
  N   N4        1.0  0.06760  0.57558  0.33004  1.0000
  C   C16       1.0  0.08061  0.56536  0.33204  1.0000
  C   C17       1.0  0.10345  0.58321  0.33764  1.0000
  C   C18       1.0  0.10345  0.60378  0.33849  1.0000
  C   C19       1.0  0.07308  0.54143  0.32881  1.0000
  C   C20       1.0  0.09042  0.53500  0.32662  1.0000
  C   C21       1.0  0.10326  0.53809  0.24795  1.0000
  C   C22       1.0  0.12149  0.53338  0.24746  1.0000
  C   C23       1.0  0.12720  0.52514  0.32508  1.0000
  C   C24       1.0  0.14647  0.52158  0.32577  1.0000
  C   C25       1.0  0.18758  0.53604  0.29883  1.0000
  C   C26       1.0  0.16827  0.53905  0.29551  1.0000
  C   C27       1.0  0.09039  0.63892  0.33491  1.0000
  C   C28       1.0  0.09918  0.65165  0.25517  1.0000
  C   C29       1.0  0.11712  0.67474  0.25802  1.0000
  C   C30       1.0  0.12693  0.68570  0.34038  1.0000
  C   C31       1.0  0.14593  0.70876  0.34313  1.0000
  C   C32       1.0  0.14631  0.72650  0.29021  1.0000
  C   C33       1.0  0.16520  0.74913  0.29281  1.0000
  C   C34       1.0  0.18449  0.75492  0.34836  1.0000
  C   C35       1.0  0.96995  0.57889  0.32682  1.0000
  C   C36       1.0  0.93352  0.58927  0.32530  1.0000
  C   C37       1.0  0.93896  0.58092  0.24775  1.0000
  C   C38       1.0  0.95702  0.57595  0.24822  1.0000
  C   C39       1.0  0.91451  0.59325  0.32586  1.0000
  C   C40       1.0  0.89257  0.57610  0.29534  1.0000
  C   C41       1.0  0.87353  0.57954  0.29852  1.0000
  C   C42       1.0  0.87584  0.60039  0.33087  1.0000
  C   C43       1.0  0.96995  0.47493  0.33478  1.0000
  C   C44       1.0  0.96094  0.46232  0.25504  1.0000
  C   C45       1.0  0.94286  0.43929  0.25791  1.0000
  C   C46       1.0  0.93310  0.42829  0.34030  1.0000
  C   C47       1.0  0.91389  0.40535  0.34307  1.0000
  C   C48       1.0  0.87486  0.35946  0.34830  1.0000
  C   C49       1.0  0.89399  0.36504  0.29255  1.0000
  C   C50       1.0  0.91311  0.38753  0.28992  1.0000
  H   H1        1.0  0.89437  0.35262  0.25423  1.0000
  H   H2        1.0  0.92672  0.39068  0.24977  1.0000
  H   H3        1.0  0.93629  0.43090  0.19870  1.0000
  H   H4        1.0  0.96718  0.46997  0.19429  1.0000
  H   H5        1.0  0.00821  0.47068  0.32016  1.0000
  H   H6        1.0  0.05185  0.49245  0.31738  1.0000
  H   H7        1.0  0.03020  0.53940  0.33741  1.0000
  H   H8        1.0  0.03015  0.57444  0.33763  1.0000
  H   H9        1.0  0.94242  0.49418  0.34168  1.0000
  H   H10       1.0  0.94242  0.53203  0.34074  1.0000
  H   H11       1.0  0.96037  0.56972  0.19126  1.0000
  H   H12       1.0  0.92978  0.57836  0.18992  1.0000
  H   H13       1.0  0.00850  0.62142  0.31713  1.0000
  H   H14       1.0  0.05213  0.64317  0.32005  1.0000
  H   H15       1.0  0.11794  0.61966  0.34197  1.0000
  H   H16       1.0  0.09287  0.64406  0.19443  1.0000
  H   H17       1.0  0.12352  0.68324  0.19880  1.0000
  H   H18       1.0  0.16453  0.76148  0.25463  1.0000
  H   H19       1.0  0.13258  0.72319  0.25017  1.0000
  H   H20       1.0  0.17045  0.55445  0.27289  1.0000
  H   H21       1.0  0.20307  0.54916  0.27676  1.0000
  H   H22       1.0  0.13064  0.53610  0.18964  1.0000
  H   H23       1.0  0.09977  0.54432  0.19100  1.0000
  H   H24       1.0  0.89009  0.56063  0.27255  1.0000
  H   H25       1.0  0.85792  0.56664  0.27622  1.0000
  C   C51       1.0  0.54023  0.51811  0.33459  1.0000
  C   C52       1.0  0.55808  0.51312  0.34002  1.0000
  C   C53       1.0  0.57866  0.53369  0.34085  1.0000
  C   C54       1.0  0.55067  0.65217  0.25067  1.0000
  C   C55       1.0  0.55537  0.67511  0.25016  1.0000
  C   C56       1.0  0.55269  0.73845  0.30146  1.0000
  C   C57       1.0  0.54969  0.71614  0.29817  1.0000
  C   C58       1.0  0.43710  0.53449  0.25764  1.0000
  C   C59       1.0  0.41400  0.52933  0.26033  1.0000
  C   C60       1.0  0.36224  0.50670  0.29227  1.0000
  C   C61       1.0  0.33961  0.50295  0.29468  1.0000
  C   C62       1.0  0.33379  0.51639  0.34990  1.0000
  C   C63       1.0  0.50778  0.44505  0.25040  1.0000
  C   C64       1.0  0.51274  0.46807  0.25090  1.0000
  C   C65       1.0  0.51261  0.40340  0.29792  1.0000
  C   C66       1.0  0.50918  0.38092  0.30106  1.0000
  C   C67       1.0  0.62639  0.58565  0.25758  1.0000
  C   C68       1.0  0.64942  0.59058  0.26029  1.0000
  C   C69       1.0  0.72929  0.60227  0.34989  1.0000
  C   C70       1.0  0.72368  0.61594  0.29445  1.0000
  C   C71       1.0  0.70119  0.61257  0.29209  1.0000
  H   H26       1.0  0.73609  0.62882  0.25612  1.0000
  H   H27       1.0  0.69802  0.62310  0.25209  1.0000
  H   H28       1.0  0.65781  0.59255  0.20103  1.0000
  H   H29       1.0  0.61873  0.58436  0.19688  1.0000
  H   H30       1.0  0.59454  0.53508  0.34424  1.0000
  H   H31       1.0  0.51898  0.47775  0.19394  1.0000
  H   H32       1.0  0.51033  0.43851  0.19255  1.0000
  H   H33       1.0  0.46730  0.47397  0.32027  1.0000
  H   H34       1.0  0.44470  0.53581  0.19697  1.0000
  H   H35       1.0  0.40551  0.52726  0.20106  1.0000
  H   H36       1.0  0.32727  0.48996  0.25655  1.0000
  H   H37       1.0  0.36556  0.49631  0.25249  1.0000
  H   H38       1.0  0.53429  0.70296  0.27551  1.0000
  H   H39       1.0  0.53957  0.74086  0.27934  1.0000
  H   H40       1.0  0.55265  0.68162  0.19232  1.0000
  H   H41       1.0  0.54442  0.64253  0.19376  1.0000
  H   H42       1.0  0.52807  0.41642  0.27509  1.0000
  H   H43       1.0  0.52207  0.37824  0.27875  1.0000
  C   C72       1.0  0.43666  0.98558  0.25181  1.0000
  C   C73       1.0  0.41373  0.96733  0.25082  1.0000
  C   C74       1.0  0.35033  0.90118  0.30060  1.0000
  C   C75       1.0  0.37264  0.92050  0.29785  1.0000
  C   C76       1.0  0.55425  0.98959  0.26013  1.0000
  C   C77       1.0  0.55943  0.97167  0.26288  1.0000
  C   C78       1.0  0.58205  0.94248  0.29494  1.0000
  C   C79       1.0  0.58579  0.92359  0.29733  1.0000
  C   C80       1.0  0.64357  0.14967  0.25108  1.0000
  C   C81       1.0  0.62054  0.13161  0.25209  1.0000
  C   C82       1.0  0.68528  0.19611  0.29759  1.0000
  C   C83       1.0  0.70776  0.21516  0.30026  1.0000
  C   C84       1.0  0.50306  0.12773  0.25996  1.0000
  C   C85       1.0  0.49810  0.14580  0.26273  1.0000
  C   C86       1.0  0.47279  0.19468  0.29705  1.0000
  C   C87       1.0  0.47615  0.17556  0.29465  1.0000
  H   H44       1.0  0.45990  0.19426  0.25877  1.0000
  H   H45       1.0  0.46561  0.16191  0.25467  1.0000
  H   H46       1.0  0.49615  0.15234  0.20349  1.0000
  H   H47       1.0  0.50434  0.12145  0.19925  1.0000
  H   H48       1.0  0.61080  0.12819  0.19530  1.0000
  H   H49       1.0  0.65003  0.15878  0.19306  1.0000
  H   H50       1.0  0.55293  0.99595  0.19943  1.0000
  H   H51       1.0  0.56148  0.96531  0.20363  1.0000
  H   H52       1.0  0.59877  0.92429  0.25920  1.0000
  H   H53       1.0  0.59243  0.95625  0.25512  1.0000
  H   H54       1.0  0.38586  0.91834  0.27543  1.0000
  H   H55       1.0  0.34795  0.88571  0.27835  1.0000
  H   H56       1.0  0.40729  0.95825  0.19281  1.0000
  H   H57       1.0  0.44638  0.98912  0.19506  1.0000
  H   H58       1.0  0.67222  0.19858  0.27510  1.0000
  H   H59       1.0  0.71041  0.23075  0.27784  1.0000
  C   C88       1.0  0.29782  0.50920  0.27332  1.0000
  N   N5        1.0  0.27683  0.50754  0.27662  1.0000
  C   C89       1.0  0.22547  0.49104  0.30147  1.0000
  C   C90       1.0  0.20551  0.49322  0.29876  1.0000
  H   H60       1.0  0.19091  0.48073  0.26796  1.0000
  H   H61       1.0  0.30430  0.50878  0.21206  1.0000
  C   C91       1.0  0.22489  0.47157  0.26633  1.0000
  O   O1        1.0  0.21911  0.46678  0.18821  1.0000
  O   O2        1.0  0.22142  0.45520  0.31494  1.0000
  H   H62       1.0  0.22350  0.45602  0.37368  1.0000
  C   C92       1.0  0.57952  0.87558  0.27595  1.0000
  N   N6        1.0  0.58118  0.85624  0.27924  1.0000
  C   C93       1.0  0.59768  0.82135  0.30406  1.0000
  C   C94       1.0  0.59550  0.79920  0.30134  1.0000
  H   H63       1.0  0.60799  0.79715  0.27054  1.0000
  H   H64       1.0  0.57995  0.88258  0.21470  1.0000
  C   C95       1.0  0.61715  0.84029  0.26891  1.0000
  O   O3        1.0  0.62194  0.83943  0.19078  1.0000
  O   O4        1.0  0.63352  0.85312  0.31752  1.0000
  H   H65       1.0  0.63270  0.85428  0.37626  1.0000
  C   C96       1.0  0.21324  0.79093  0.27224  1.0000
  N   N7        1.0  0.23257  0.81192  0.27587  1.0000
  C   C97       1.0  0.26743  0.86327  0.30136  1.0000
  C   C98       1.0  0.28958  0.88324  0.29915  1.0000
  H   H66       1.0  0.29168  0.89786  0.26839  1.0000
  H   H67       1.0  0.20632  0.78447  0.21085  1.0000
  C   C99       1.0  0.24854  0.86387  0.26575  1.0000
  O   O5        1.0  0.24953  0.86969  0.18763  1.0000
  O   O6        1.0  0.23565  0.86732  0.31404  1.0000
  H   H68       1.0  0.23440  0.86521  0.37276  1.0000
  C   C100      1.0  0.76494  0.60885  0.27328  1.0000
  N   N8        1.0  0.78576  0.61010  0.27661  1.0000
  C   C101      1.0  0.83713  0.62600  0.30294  1.0000
  C   C102      1.0  0.85674  0.62327  0.29947  1.0000
  H   H69       1.0  0.87144  0.63563  0.26881  1.0000
  H   H70       1.0  0.75845  0.60940  0.21199  1.0000
  C   C103      1.0  0.83884  0.64596  0.26718  1.0000
  O   O7        1.0  0.83435  0.64535  0.18769  1.0000
  O   O8        1.0  0.83501  0.65899  0.31293  1.0000
  H   H71       1.0  0.83665  0.66032  0.37181  1.0000
  C   C104      1.0  0.47988  0.24306  0.27587  1.0000
  N   N9        1.0  0.47862  0.26261  0.27920  1.0000
  C   C105      1.0  0.46272  0.29804  0.30557  1.0000
  C   C106      1.0  0.46545  0.32039  0.30209  1.0000
  H   H72       1.0  0.45308  0.32277  0.27144  1.0000
  H   H73       1.0  0.47932  0.23611  0.21458  1.0000
  C   C107      1.0  0.44277  0.27985  0.26984  1.0000
  O   O9        1.0  0.44337  0.27609  0.19035  1.0000
  O   O10       1.0  0.42974  0.26291  0.31562  1.0000
  H   H74       1.0  0.42842  0.26315  0.37450  1.0000
  C   C108      1.0  0.84558  0.32376  0.27218  1.0000
  N   N10       1.0  0.82603  0.30294  0.27587  1.0000
  C   C109      1.0  0.79063  0.25158  0.30284  1.0000
  C   C110      1.0  0.76828  0.23196  0.29987  1.0000
  H   H75       1.0  0.76585  0.21724  0.26923  1.0000
  H   H76       1.0  0.85245  0.33023  0.21077  1.0000
  C   C111      1.0  0.80876  0.24985  0.26663  1.0000
  O   O11       1.0  0.81240  0.25430  0.18705  1.0000
  O   O12       1.0  0.82577  0.25371  0.31197  1.0000
  H   H77       1.0  0.82563  0.25210  0.37085  1.0000
  C   C112      1.0  0.08060  0.59879  0.33398  1.0000
  C   C113      1.0  0.11389  0.52151  0.40305  1.0000
  C   C114      1.0  0.09588  0.52657  0.40412  1.0000
  C   C115      1.0  0.14458  0.50085  0.35827  1.0000
  C   C116      1.0  0.16382  0.49766  0.35987  1.0000
  C   C117      1.0  0.18568  0.51530  0.33102  1.0000
  C   C118      1.0  0.11779  0.67281  0.41998  1.0000
  C   C119      1.0  0.09976  0.64978  0.41744  1.0000
  C   C120      1.0  0.18412  0.73711  0.40076  1.0000
  C   C121      1.0  0.16524  0.71453  0.39833  1.0000
  C   C122      1.0  0.96473  0.58737  0.40429  1.0000
  C   C123      1.0  0.94689  0.59268  0.40324  1.0000
  C   C124      1.0  0.89785  0.61771  0.36000  1.0000
  C   C125      1.0  0.91682  0.61409  0.35849  1.0000
  C   C126      1.0  0.96066  0.46401  0.41733  1.0000
  C   C127      1.0  0.94248  0.44105  0.41989  1.0000
  C   C128      1.0  0.89472  0.39979  0.39842  1.0000
  C   C129      1.0  0.87562  0.37735  0.40089  1.0000
  H   H78       1.0  0.86194  0.37438  0.44026  1.0000
  H   H79       1.0  0.89420  0.41224  0.43616  1.0000
  H   H80       1.0  0.93612  0.43371  0.48095  1.0000
  H   H81       1.0  0.96678  0.47283  0.47608  1.0000
  H   H82       1.0  0.97364  0.58940  0.46244  1.0000
  H   H83       1.0  0.94315  0.59822  0.46118  1.0000
  H   H84       1.0  0.11794  0.58182  0.34095  1.0000
  H   H85       1.0  0.09377  0.64088  0.47619  1.0000
  H   H86       1.0  0.12419  0.68011  0.48103  1.0000
  H   H87       1.0  0.16605  0.70216  0.43591  1.0000
  H   H88       1.0  0.19793  0.74025  0.44002  1.0000
  H   H89       1.0  0.08705  0.52447  0.46236  1.0000
  H   H90       1.0  0.11782  0.51607  0.46105  1.0000
  H   H91       1.0  0.16183  0.48251  0.38464  1.0000
  H   H92       1.0  0.12907  0.48776  0.38032  1.0000
  H   H93       1.0  0.93245  0.62696  0.38070  1.0000
  H   H94       1.0  0.90015  0.63292  0.38492  1.0000
  C   C130      1.0  0.60051  0.61685  0.32575  1.0000
  C   C131      1.0  0.58865  0.62876  0.32417  1.0000
  C   C132      1.0  0.56510  0.61284  0.32980  1.0000
  N   N11       1.0  0.56359  0.59190  0.33343  1.0000
  C   C133      1.0  0.58449  0.59333  0.33131  1.0000
  C   C134      1.0  0.59007  0.57548  0.33493  1.0000
  C   C135      1.0  0.57367  0.55156  0.33648  1.0000
  N   N12       1.0  0.55045  0.54135  0.33266  1.0000
  C   C136      1.0  0.51630  0.50172  0.33154  1.0000
  C   C137      1.0  0.49850  0.50742  0.32984  1.0000
  N   N13       1.0  0.50002  0.52835  0.33351  1.0000
  C   C138      1.0  0.47912  0.52692  0.33145  1.0000
  C   C139      1.0  0.46309  0.50341  0.32591  1.0000
  C   C140      1.0  0.47495  0.49150  0.32429  1.0000
  C   C141      1.0  0.47354  0.54477  0.33504  1.0000
  C   C142      1.0  0.48994  0.56869  0.33660  1.0000
  N   N14       1.0  0.51315  0.57890  0.33281  1.0000
  C   C143      1.0  0.52338  0.60213  0.33476  1.0000
  C   C144      1.0  0.50553  0.60712  0.34025  1.0000
  C   C145      1.0  0.48495  0.58654  0.34103  1.0000
  C   C146      1.0  0.54730  0.61853  0.33161  1.0000
  C   C147      1.0  0.55374  0.64230  0.32939  1.0000
  C   C148      1.0  0.56361  0.68895  0.32776  1.0000
  C   C149      1.0  0.56721  0.67914  0.40578  1.0000
  C   C150      1.0  0.56217  0.65608  0.40686  1.0000
  C   C151      1.0  0.56716  0.71178  0.32842  1.0000
  C   C152      1.0  0.58789  0.73057  0.36092  1.0000
  C   C153      1.0  0.59108  0.75299  0.36250  1.0000
  C   C154      1.0  0.57343  0.75725  0.33361  1.0000
  C   C155      1.0  0.44981  0.53835  0.33747  1.0000
  C   C156      1.0  0.40302  0.52810  0.34260  1.0000
  C   C157      1.0  0.41590  0.53178  0.42227  1.0000
  C   C158      1.0  0.43893  0.53678  0.41990  1.0000
  C   C159      1.0  0.37995  0.52401  0.34515  1.0000
  C   C160      1.0  0.35158  0.53380  0.40225  1.0000
  C   C161      1.0  0.37416  0.53751  0.40003  1.0000
  C   C162      1.0  0.50984  0.47794  0.32954  1.0000
  C   C163      1.0  0.50135  0.46411  0.40701  1.0000
  C   C164      1.0  0.49605  0.44096  0.40593  1.0000
  C   C165      1.0  0.49944  0.43113  0.32794  1.0000
  C   C166      1.0  0.49547  0.40814  0.32847  1.0000
  C   C167      1.0  0.48833  0.36232  0.33344  1.0000
  C   C168      1.0  0.47100  0.36696  0.36256  1.0000
  C   C169      1.0  0.47463  0.38956  0.36112  1.0000
  C   C170      1.0  0.61380  0.58188  0.33739  1.0000
  C   C171      1.0  0.62475  0.58335  0.41986  1.0000
  C   C172      1.0  0.66045  0.59167  0.34259  1.0000
  C   C173      1.0  0.64770  0.58812  0.42226  1.0000
  C   C174      1.0  0.68340  0.59542  0.34518  1.0000
  C   C175      1.0  0.68897  0.58169  0.40027  1.0000
  C   C176      1.0  0.71142  0.58503  0.40247  1.0000
  H   H95       1.0  0.71441  0.57424  0.44165  1.0000
  H   H96       1.0  0.67655  0.56864  0.43797  1.0000
  H   H97       1.0  0.65505  0.58897  0.48327  1.0000
  H   H98       1.0  0.61593  0.58051  0.47865  1.0000
  H   H99       1.0  0.61805  0.62441  0.32294  1.0000
  H   H100      1.0  0.59629  0.64630  0.32019  1.0000
  H   H101      1.0  0.54933  0.57766  0.34023  1.0000
  H   H102      1.0  0.51430  0.54259  0.33996  1.0000
  H   H103      1.0  0.55669  0.49724  0.34328  1.0000
  H   H104      1.0  0.49936  0.47092  0.46520  1.0000
  H   H105      1.0  0.49053  0.43160  0.46387  1.0000
  H   H106      1.0  0.44555  0.49585  0.32317  1.0000
  H   H107      1.0  0.50692  0.62299  0.34349  1.0000
  H   H108      1.0  0.46907  0.58514  0.34442  1.0000
  H   H109      1.0  0.44782  0.53963  0.47871  1.0000
  H   H110      1.0  0.40859  0.53081  0.48327  1.0000
  H   H111      1.0  0.38651  0.55063  0.43765  1.0000
  H   H112      1.0  0.34842  0.54442  0.44134  1.0000
  H   H113      1.0  0.56425  0.64925  0.46513  1.0000
  H   H114      1.0  0.57267  0.68845  0.46375  1.0000
  H   H115      1.0  0.60622  0.76612  0.38725  1.0000
  H   H116      1.0  0.60097  0.72811  0.38299  1.0000
  H   H117      1.0  0.46177  0.39228  0.38341  1.0000
  H   H118      1.0  0.45581  0.35401  0.38762  1.0000
  C   C177      1.0  0.47188  0.07054  0.32813  1.0000
  C   C178      1.0  0.45996  0.04676  0.32638  1.0000
  C   C179      1.0  0.47589  0.03914  0.33186  1.0000
  N   N15       1.0  0.49682  0.05855  0.33565  1.0000
  C   C180      1.0  0.49539  0.07802  0.33363  1.0000
  C   C181      1.0  0.51325  0.10146  0.33721  1.0000
  C   C182      1.0  0.53717  0.10898  0.33867  1.0000
  N   N16       1.0  0.54738  0.09598  0.33481  1.0000
  C   C183      1.0  0.57061  0.10898  0.33661  1.0000
  C   C184      1.0  0.57561  0.13183  0.34198  1.0000
  C   C185      1.0  0.55503  0.13183  0.34293  1.0000
  C   C186      1.0  0.58700  0.10145  0.33343  1.0000
  C   C187      1.0  0.58131  0.07796  0.33180  1.0000
  N   N17       1.0  0.56038  0.05855  0.33569  1.0000
  C   C188      1.0  0.56181  0.03908  0.33369  1.0000
  C   C189      1.0  0.58532  0.04657  0.32794  1.0000
  C   C190      1.0  0.59723  0.07034  0.32611  1.0000
  C   C191      1.0  0.54397  0.01564  0.33743  1.0000
  C   C192      1.0  0.52005  0.00812  0.33887  1.0000
  N   N18       1.0  0.50984  0.02112  0.33497  1.0000
  C   C193      1.0  0.48661  0.00812  0.33672  1.0000
  C   C194      1.0  0.48162  0.98527  0.34218  1.0000
  C   C195      1.0  0.50219  0.98527  0.34319  1.0000
  C   C196      1.0  0.47021  0.01565  0.33343  1.0000
  C   C197      1.0  0.44644  0.99831  0.33078  1.0000
  C   C198      1.0  0.39980  0.96153  0.32818  1.0000
  C   C199      1.0  0.40951  0.97473  0.40646  1.0000
  C   C200      1.0  0.43257  0.99276  0.40803  1.0000
  C   C201      1.0  0.37697  0.94226  0.32832  1.0000
  C   C202      1.0  0.35814  0.94411  0.36051  1.0000
  C   C203      1.0  0.33570  0.92488  0.36152  1.0000
  C   C204      1.0  0.33148  0.90304  0.33242  1.0000
  C   C205      1.0  0.55039  0.99833  0.33992  1.0000
  C   C206      1.0  0.56065  0.96180  0.34517  1.0000
  C   C207      1.0  0.55696  0.97087  0.42482  1.0000
  C   C208      1.0  0.55196  0.98890  0.42238  1.0000
  C   C209      1.0  0.56474  0.94281  0.34779  1.0000
  C   C210      1.0  0.57234  0.90425  0.35257  1.0000
  C   C211      1.0  0.55495  0.90457  0.40497  1.0000
  C   C212      1.0  0.55125  0.92344  0.40273  1.0000
  C   C213      1.0  0.61078  0.11877  0.33097  1.0000
  C   C214      1.0  0.62471  0.12409  0.40817  1.0000
  C   C215      1.0  0.64785  0.14194  0.40660  1.0000
  C   C216      1.0  0.65759  0.15520  0.32836  1.0000
  C   C217      1.0  0.68057  0.17420  0.32837  1.0000
  C   C218      1.0  0.72640  0.21288  0.33225  1.0000
  C   C219      1.0  0.72179  0.19090  0.36159  1.0000
  C   C220      1.0  0.69920  0.17193  0.36066  1.0000
  C   C221      1.0  0.50684  0.11878  0.33974  1.0000
  C   C222      1.0  0.50539  0.12813  0.42223  1.0000
  C   C223      1.0  0.49705  0.15563  0.34505  1.0000
  C   C224      1.0  0.50062  0.14631  0.42469  1.0000
  C   C225      1.0  0.49331  0.17483  0.34769  1.0000
  C   C226      1.0  0.50705  0.19405  0.40277  1.0000
  C   C227      1.0  0.50372  0.21316  0.40497  1.0000
  C   C228      1.0  0.48647  0.21387  0.35245  1.0000
  H   H119      1.0  0.51451  0.22688  0.44416  1.0000
  H   H120      1.0  0.52010  0.19461  0.44043  1.0000
  H   H121      1.0  0.49979  0.15272  0.48571  1.0000
  H   H122      1.0  0.50824  0.12206  0.48101  1.0000
  H   H123      1.0  0.46431  0.08052  0.32538  1.0000
  H   H124      1.0  0.44243  0.03688  0.32234  1.0000
  H   H125      1.0  0.51107  0.05852  0.34201  1.0000
  H   H126      1.0  0.54615  0.05857  0.34260  1.0000
  H   H127      1.0  0.55364  0.14631  0.34632  1.0000
  H   H128      1.0  0.59149  0.14631  0.34515  1.0000
  H   H129      1.0  0.61798  0.11525  0.46653  1.0000
  H   H130      1.0  0.65729  0.14573  0.46435  1.0000
  H   H131      1.0  0.61475  0.08022  0.32188  1.0000
  H   H132      1.0  0.59288  0.03659  0.32509  1.0000
  H   H133      1.0  0.46574  0.97078  0.34527  1.0000
  H   H134      1.0  0.50359  0.97078  0.34658  1.0000
  H   H135      1.0  0.54910  0.99485  0.48117  1.0000
  H   H136      1.0  0.55792  0.96444  0.48583  1.0000
  H   H137      1.0  0.53810  0.92260  0.44025  1.0000
  H   H138      1.0  0.54432  0.89072  0.44397  1.0000
  H   H139      1.0  0.43932  0.00152  0.46646  1.0000
  H   H140      1.0  0.40013  0.97075  0.46426  1.0000
  H   H141      1.0  0.32255  0.92683  0.38604  1.0000
  H   H142      1.0  0.36056  0.95960  0.38269  1.0000
  H   H143      1.0  0.69651  0.15633  0.38306  1.0000
  H   H144      1.0  0.73479  0.18864  0.38632  1.0000
  C   C229      1.0  0.31093  0.51295  0.35213  1.0000
  C   C230      1.0  0.26663  0.50867  0.35335  1.0000
  C   C231      1.0  0.27856  0.51180  0.43554  1.0000
  C   C232      1.0  0.30061  0.51385  0.43332  1.0000
  H   H145      1.0  0.30928  0.51587  0.49226  1.0000
  C   C233      1.0  0.24539  0.50845  0.34549  1.0000
  C   C234      1.0  0.20543  0.51259  0.33563  1.0000
  C   C235      1.0  0.22592  0.52941  0.37708  1.0000
  N   N19       1.0  0.24462  0.52672  0.38066  1.0000
  H   H146      1.0  0.22695  0.54369  0.40605  1.0000
  C   C236      1.0  0.26947  0.51225  0.51785  1.0000
  O   O13       1.0  0.27571  0.53119  0.55076  1.0000
  O   O14       1.0  0.25060  0.49566  0.53883  1.0000
  H   H147      1.0  0.24274  0.49523  0.58705  1.0000
  C   C237      1.0  0.57578  0.88482  0.35477  1.0000
  C   C238      1.0  0.58005  0.84479  0.35596  1.0000
  C   C239      1.0  0.57692  0.85347  0.43815  1.0000
  C   C240      1.0  0.57487  0.87347  0.43595  1.0000
  H   H148      1.0  0.57286  0.88003  0.49489  1.0000
  C   C241      1.0  0.58027  0.82379  0.34809  1.0000
  C   C242      1.0  0.57614  0.77971  0.33821  1.0000
  C   C243      1.0  0.55931  0.78331  0.37966  1.0000
  N   N20       1.0  0.56200  0.80469  0.38325  1.0000
  H   H149      1.0  0.54503  0.77001  0.40864  1.0000
  C   C244      1.0  0.57647  0.84380  0.52046  1.0000
  O   O15       1.0  0.55753  0.83104  0.55336  1.0000
  O   O16       1.0  0.59306  0.84148  0.54142  1.0000
  H   H150      1.0  0.59350  0.83398  0.58964  1.0000
  C   C245      1.0  0.20391  0.77778  0.35089  1.0000
  C   C246      1.0  0.24391  0.82208  0.35281  1.0000
  C   C247      1.0  0.23512  0.81011  0.43486  1.0000
  C   C248      1.0  0.21514  0.78807  0.43229  1.0000
  H   H151      1.0  0.20849  0.77936  0.49111  1.0000
  C   C249      1.0  0.26493  0.84332  0.34535  1.0000
  C   C250      1.0  0.30902  0.88329  0.33648  1.0000
  C   C251      1.0  0.30536  0.86277  0.37786  1.0000
  N   N21       1.0  0.28397  0.84407  0.38097  1.0000
  H   H152      1.0  0.31861  0.86172  0.40715  1.0000
  C   C252      1.0  0.24468  0.81917  0.51735  1.0000
  O   O17       1.0  0.25739  0.81291  0.55059  1.0000
  O   O18       1.0  0.24697  0.83803  0.53828  1.0000
  H   H153      1.0  0.25440  0.84587  0.58663  1.0000
  C   C253      1.0  0.75200  0.60532  0.35211  1.0000
  C   C254      1.0  0.79594  0.60877  0.35340  1.0000
  C   C255      1.0  0.78418  0.60585  0.43559  1.0000
  C   C256      1.0  0.76231  0.60421  0.43335  1.0000
  H   H154      1.0  0.75377  0.60233  0.49229  1.0000
  C   C257      1.0  0.81696  0.60860  0.34573  1.0000
  C   C258      1.0  0.85636  0.60355  0.33553  1.0000
  C   C259      1.0  0.83572  0.58685  0.37637  1.0000
  N   N22       1.0  0.81729  0.58997  0.38003  1.0000
  H   H155      1.0  0.83437  0.57233  0.40473  1.0000
  C   C260      1.0  0.79328  0.60517  0.51792  1.0000
  O   O19       1.0  0.78684  0.58615  0.55080  1.0000
  O   O20       1.0  0.81229  0.62157  0.53880  1.0000
  H   H156      1.0  0.82015  0.62184  0.58701  1.0000
  C   C261      1.0  0.48342  0.23353  0.35468  1.0000
  C   C262      1.0  0.47996  0.27401  0.35599  1.0000
  C   C263      1.0  0.48291  0.26506  0.43819  1.0000
  C   C264      1.0  0.48454  0.24483  0.43593  1.0000
  H   H157      1.0  0.48643  0.23807  0.49486  1.0000
  C   C265      1.0  0.48013  0.29522  0.34834  1.0000
  C   C266      1.0  0.48518  0.33968  0.33811  1.0000
  C   C267      1.0  0.50188  0.33568  0.37893  1.0000
  N   N23       1.0  0.49877  0.31413  0.38260  1.0000
  H   H158      1.0  0.51641  0.34881  0.40726  1.0000
  C   C268      1.0  0.48359  0.27470  0.52051  1.0000
  O   O21       1.0  0.50262  0.28724  0.55335  1.0000
  O   O22       1.0  0.46719  0.27729  0.54143  1.0000
  H   H159      1.0  0.46693  0.28480  0.58965  1.0000
  C   C269      1.0  0.85521  0.33675  0.35084  1.0000
  C   C270      1.0  0.81474  0.29280  0.35287  1.0000
  C   C271      1.0  0.82380  0.30460  0.43491  1.0000
  C   C272      1.0  0.84402  0.32647  0.43230  1.0000
  H   H160      1.0  0.85086  0.33505  0.49112  1.0000
  C   C273      1.0  0.79352  0.27177  0.34561  1.0000
  C   C274      1.0  0.74904  0.23236  0.33639  1.0000
  C   C275      1.0  0.75311  0.25303  0.37718  1.0000
  N   N24       1.0  0.77467  0.27147  0.38036  1.0000
  H   H161      1.0  0.74002  0.25440  0.40584  1.0000
  C   C276      1.0  0.81428  0.29555  0.51742  1.0000
  O   O23       1.0  0.80179  0.30201  0.55062  1.0000
  O   O24       1.0  0.81172  0.27654  0.53829  1.0000
  H   H162      1.0  0.80427  0.26871  0.58665  1.0000
