data_image0
_chemical_formula_structural       C3NC3NC5NC5NC36H26C4H4C3NC3NC5NC5NC36H26C4H4C3NC3NC5NC5NC36H26C4H4NC2H3N2C2H3N2C2H3N2C2H3N2C2H3N2C2H3NC16H16C16H16C16H16CNC2O2C2H3NCNC2O2C2H3NCNC2O2C2H3NCNC2O2C2H3NCNC2O2C2H3NCNC2O2C2H3N
_chemical_formula_sum              "C258 N36 H174 O12"
_cell_length_a       67.4523
_cell_length_b       67.4524
_cell_length_c       14.8194
_cell_angle_alpha    89.7164
_cell_angle_beta     90.2836
_cell_angle_gamma    120

_space_group_name_H-M_alt    "P 1"
_space_group_IT_number       1

loop_
  _space_group_symop_operation_xyz
  'x, y, z'

loop_
  _atom_site_type_symbol
  _atom_site_label
  _atom_site_symmetry_multiplicity
  _atom_site_fract_x
  _atom_site_fract_y
  _atom_site_fract_z
  _atom_site_occupancy
  C   C1        1.0  0.05258  0.63595  0.33394  1.0000
  C   C2        1.0  0.02891  0.62406  0.33317  1.0000
  C   C3        1.0  0.02145  0.60065  0.33435  1.0000
  N   N1        1.0  0.04085  0.59927  0.33580  1.0000
  C   C4        1.0  0.06018  0.62011  0.33518  1.0000
  C   C5        1.0  0.08356  0.62576  0.33533  1.0000
  C   C6        1.0  0.09107  0.60946  0.33503  1.0000
  N   N2        1.0  0.07821  0.58634  0.33553  1.0000
  C   C7        1.0  0.09119  0.57622  0.33402  1.0000
  C   C8        1.0  0.11390  0.59406  0.33252  1.0000
  C   C9        1.0  0.11383  0.61448  0.33315  1.0000
  C   C10       1.0  0.08383  0.55243  0.33349  1.0000
  C   C11       1.0  0.06050  0.53462  0.33427  1.0000
  N   N3        1.0  0.04110  0.53600  0.33556  1.0000
  C   C12       1.0  0.02177  0.51516  0.33529  1.0000
  C   C13       1.0  0.02937  0.49932  0.33433  1.0000
  C   C14       1.0  0.05304  0.51121  0.33354  1.0000
  C   C15       1.0  0.99840  0.50951  0.33564  1.0000
  C   C16       1.0  0.99088  0.52581  0.33548  1.0000
  N   N4        1.0  0.00374  0.54893  0.33570  1.0000
  C   C17       1.0  0.99076  0.55905  0.33442  1.0000
  C   C18       1.0  0.96804  0.54120  0.33347  1.0000
  C   C19       1.0  0.96812  0.52078  0.33406  1.0000
  C   C20       1.0  0.99811  0.58284  0.33364  1.0000
  C   C21       1.0  0.98068  0.58900  0.32937  1.0000
  C   C22       1.0  0.97119  0.58988  0.24533  1.0000
  C   C23       1.0  0.95207  0.59300  0.24108  1.0000
  C   C24       1.0  0.94172  0.59529  0.32039  1.0000
  C   C25       1.0  0.92112  0.59657  0.31571  1.0000
  C   C26       1.0  0.87966  0.59874  0.30365  1.0000
  C   C27       1.0  0.88272  0.58294  0.25165  1.0000
  C   C28       1.0  0.90297  0.58185  0.25772  1.0000
  C   C29       1.0  0.98110  0.48586  0.33367  1.0000
  C   C30       1.0  0.97307  0.47441  0.25052  1.0000
  C   C31       1.0  0.95473  0.45170  0.24777  1.0000
  C   C32       1.0  0.94368  0.43965  0.32769  1.0000
  C   C33       1.0  0.92444  0.41678  0.32387  1.0000
  C   C34       1.0  0.92407  0.40041  0.26334  1.0000
  C   C35       1.0  0.90471  0.37842  0.25527  1.0000
  C   C36       1.0  0.88493  0.37176  0.30801  1.0000
  C   C37       1.0  0.10123  0.54625  0.32939  1.0000
  C   C38       1.0  0.13983  0.53942  0.31974  1.0000
  C   C39       1.0  0.12886  0.54110  0.24059  1.0000
  C   C40       1.0  0.10992  0.54450  0.24517  1.0000
  C   C41       1.0  0.16020  0.53777  0.31445  1.0000
  C   C42       1.0  0.17785  0.55163  0.25318  1.0000
  C   C43       1.0  0.19789  0.55019  0.24670  1.0000
  C   C44       1.0  0.20124  0.53487  0.30153  1.0000
  C   C45       1.0  0.10086  0.64941  0.33331  1.0000
  C   C46       1.0  0.10886  0.66094  0.25014  1.0000
  C   C47       1.0  0.12732  0.68359  0.24733  1.0000
  C   C48       1.0  0.13856  0.69549  0.32723  1.0000
  C   C49       1.0  0.15797  0.71825  0.32334  1.0000
  C   C50       1.0  0.19781  0.76305  0.30741  1.0000
  C   C51       1.0  0.17800  0.75669  0.25460  1.0000
  C   C52       1.0  0.15848  0.73481  0.26272  1.0000
  H   H1        1.0  0.17767  0.76789  0.20852  1.0000
  H   H2        1.0  0.14458  0.73104  0.22308  1.0000
  H   H3        1.0  0.13305  0.69102  0.18545  1.0000
  H   H4        1.0  0.10167  0.65271  0.19079  1.0000
  H   H5        1.0  0.06243  0.65340  0.33301  1.0000
  H   H6        1.0  0.01896  0.63156  0.33181  1.0000
  H   H7        1.0  0.04090  0.58506  0.33668  1.0000
  H   H8        1.0  0.04105  0.55022  0.33609  1.0000
  H   H9        1.0  0.12822  0.63029  0.33183  1.0000
  H   H10       1.0  0.12835  0.59276  0.33089  1.0000
  H   H11       1.0  0.10293  0.54637  0.18648  1.0000
  H   H12       1.0  0.13478  0.54018  0.17820  1.0000
  H   H13       1.0  0.06298  0.50372  0.33256  1.0000
  H   H14       1.0  0.01952  0.48187  0.33390  1.0000
  H   H15       1.0  0.95358  0.54250  0.33224  1.0000
  H   H16       1.0  0.95373  0.50497  0.33308  1.0000
  H   H17       1.0  0.98014  0.48273  0.19117  1.0000
  H   H18       1.0  0.94897  0.44432  0.18590  1.0000
  H   H19       1.0  0.90514  0.36734  0.20928  1.0000
  H   H20       1.0  0.93797  0.40438  0.22377  1.0000
  H   H21       1.0  0.90418  0.56987  0.21969  1.0000
  H   H22       1.0  0.87013  0.57193  0.20850  1.0000
  H   H23       1.0  0.94553  0.59323  0.17887  1.0000
  H   H24       1.0  0.97768  0.58750  0.18667  1.0000
  H   H25       1.0  0.17645  0.56326  0.21302  1.0000
  H   H26       1.0  0.21013  0.56060  0.20122  1.0000
  C   C53       1.0  0.85968  0.59979  0.29289  1.0000
  C   C54       1.0  0.86539  0.35063  0.29302  1.0000
  C   C55       1.0  0.22106  0.53354  0.29087  1.0000
  C   C56       1.0  0.21748  0.78409  0.29241  1.0000
  H   H27       1.0  0.85190  0.59540  0.23307  1.0000
  H   H28       1.0  0.22021  0.79057  0.23023  1.0000
  H   H29       1.0  0.22872  0.53780  0.23095  1.0000
  H   H30       1.0  0.86256  0.34433  0.23070  1.0000
  C   C57       1.0  0.47138  0.50839  0.33726  1.0000
  C   C58       1.0  0.48327  0.49662  0.33659  1.0000
  C   C59       1.0  0.50668  0.51256  0.33783  1.0000
  N   N5        1.0  0.50806  0.53334  0.33925  1.0000
  C   C60       1.0  0.48722  0.53183  0.33854  1.0000
  C   C61       1.0  0.48157  0.54956  0.33866  1.0000
  C   C62       1.0  0.49787  0.57338  0.33845  1.0000
  N   N6        1.0  0.52099  0.58363  0.33891  1.0000
  C   C63       1.0  0.53111  0.60674  0.33746  1.0000
  C   C64       1.0  0.51326  0.61161  0.33610  1.0000
  C   C65       1.0  0.49285  0.59111  0.33662  1.0000
  C   C66       1.0  0.55489  0.62316  0.33686  1.0000
  C   C67       1.0  0.57270  0.61764  0.33757  1.0000
  N   N7        1.0  0.57133  0.59686  0.33894  1.0000
  C   C68       1.0  0.59216  0.59837  0.33850  1.0000
  C   C69       1.0  0.60801  0.62181  0.33738  1.0000
  C   C70       1.0  0.59611  0.63359  0.33665  1.0000
  C   C71       1.0  0.59782  0.58065  0.33886  1.0000
  C   C72       1.0  0.58152  0.55683  0.33878  1.0000
  N   N8        1.0  0.55840  0.54658  0.33911  1.0000
  C   C73       1.0  0.54828  0.52347  0.33789  1.0000
  C   C74       1.0  0.56613  0.51861  0.33690  1.0000
  C   C75       1.0  0.58655  0.53910  0.33736  1.0000
  C   C76       1.0  0.52449  0.50704  0.33718  1.0000
  C   C77       1.0  0.51833  0.48346  0.33298  1.0000
  C   C78       1.0  0.51741  0.47325  0.24893  1.0000
  C   C79       1.0  0.51431  0.45103  0.24470  1.0000
  C   C80       1.0  0.51204  0.43822  0.32402  1.0000
  C   C81       1.0  0.51080  0.41638  0.31935  1.0000
  C   C82       1.0  0.50866  0.37279  0.30728  1.0000
  C   C83       1.0  0.52444  0.39176  0.25521  1.0000
  C   C84       1.0  0.52551  0.41308  0.26128  1.0000
  C   C85       1.0  0.62147  0.58701  0.33659  1.0000
  C   C86       1.0  0.63287  0.59066  0.25329  1.0000
  C   C87       1.0  0.65558  0.59503  0.25021  1.0000
  C   C88       1.0  0.66768  0.59581  0.32993  1.0000
  C   C89       1.0  0.69054  0.59946  0.32576  1.0000
  C   C90       1.0  0.70689  0.61566  0.26534  1.0000
  C   C91       1.0  0.72888  0.61834  0.25691  1.0000
  C   C92       1.0  0.73557  0.60505  0.30922  1.0000
  C   C93       1.0  0.56107  0.64675  0.33279  1.0000
  C   C94       1.0  0.56792  0.69222  0.32360  1.0000
  C   C95       1.0  0.56591  0.67965  0.24432  1.0000
  C   C96       1.0  0.56253  0.65731  0.24865  1.0000
  C   C97       1.0  0.56958  0.71426  0.31866  1.0000
  C   C98       1.0  0.55542  0.71811  0.25872  1.0000
  C   C99       1.0  0.55691  0.73963  0.25244  1.0000
  C   C100      1.0  0.57256  0.75825  0.30618  1.0000
  C   C101      1.0  0.45792  0.54322  0.33641  1.0000
  C   C102      1.0  0.44642  0.53981  0.25312  1.0000
  C   C103      1.0  0.42378  0.53563  0.25004  1.0000
  C   C104      1.0  0.41184  0.53483  0.32977  1.0000
  C   C105      1.0  0.38907  0.53147  0.32558  1.0000
  C   C106      1.0  0.34427  0.52651  0.30893  1.0000
  C   C107      1.0  0.35067  0.51314  0.25654  1.0000
  C   C108      1.0  0.37255  0.51551  0.26501  1.0000
  H   H31       1.0  0.33948  0.50166  0.21053  1.0000
  H   H32       1.0  0.37633  0.50542  0.22567  1.0000
  H   H33       1.0  0.41636  0.53400  0.18807  1.0000
  H   H34       1.0  0.45468  0.54094  0.19388  1.0000
  H   H35       1.0  0.45393  0.50080  0.33630  1.0000
  H   H36       1.0  0.47578  0.47918  0.33524  1.0000
  H   H37       1.0  0.52227  0.54760  0.34019  1.0000
  H   H38       1.0  0.55711  0.58259  0.33968  1.0000
  H   H39       1.0  0.47704  0.58969  0.33535  1.0000
  H   H40       1.0  0.51457  0.62737  0.33451  1.0000
  H   H41       1.0  0.56042  0.64853  0.18993  1.0000
  H   H42       1.0  0.56660  0.68658  0.18202  1.0000
  H   H43       1.0  0.60361  0.65103  0.33554  1.0000
  H   H44       1.0  0.62546  0.62941  0.33682  1.0000
  H   H45       1.0  0.56483  0.50285  0.33570  1.0000
  H   H46       1.0  0.60236  0.54052  0.33634  1.0000
  H   H47       1.0  0.62452  0.58959  0.19406  1.0000
  H   H48       1.0  0.66294  0.59686  0.18825  1.0000
  H   H49       1.0  0.73993  0.62999  0.21103  1.0000
  H   H50       1.0  0.70289  0.62571  0.22609  1.0000
  H   H51       1.0  0.53746  0.42635  0.22318  1.0000
  H   H52       1.0  0.53544  0.39027  0.21200  1.0000
  H   H53       1.0  0.51406  0.44438  0.18250  1.0000
  H   H54       1.0  0.51981  0.48225  0.19028  1.0000
  H   H55       1.0  0.54358  0.70511  0.21934  1.0000
  H   H56       1.0  0.54631  0.74153  0.20787  1.0000
  C   C109      1.0  0.50766  0.35179  0.29657  1.0000
  C   C110      1.0  0.75672  0.60674  0.29394  1.0000
  C   C111      1.0  0.57401  0.77946  0.29540  1.0000
  C   C112      1.0  0.32324  0.52517  0.29355  1.0000
  H   H57       1.0  0.51222  0.34859  0.23698  1.0000
  H   H58       1.0  0.31680  0.52149  0.23132  1.0000
  H   H59       1.0  0.57012  0.78313  0.23502  1.0000
  H   H60       1.0  0.76308  0.61058  0.23175  1.0000
  C   C113      1.0  0.59895  0.05474  0.33919  1.0000
  C   C114      1.0  0.61072  0.07841  0.33831  1.0000
  C   C115      1.0  0.59477  0.08588  0.33972  1.0000
  N   N9        1.0  0.57400  0.06647  0.34143  1.0000
  C   C116      1.0  0.57550  0.04714  0.34073  1.0000
  C   C117      1.0  0.55778  0.02376  0.34108  1.0000
  C   C118      1.0  0.53396  0.01625  0.34083  1.0000
  N   N10       1.0  0.52371  0.02911  0.34120  1.0000
  C   C119      1.0  0.50060  0.01613  0.33956  1.0000
  C   C120      1.0  0.49573  0.99342  0.33813  1.0000
  C   C121      1.0  0.51623  0.99349  0.33892  1.0000
  C   C122      1.0  0.48418  0.02350  0.33879  1.0000
  C   C123      1.0  0.48970  0.04682  0.33969  1.0000
  N   N11       1.0  0.51048  0.06622  0.34132  1.0000
  C   C124      1.0  0.50897  0.08555  0.34097  1.0000
  C   C125      1.0  0.48552  0.07795  0.33973  1.0000
  C   C126      1.0  0.47375  0.05428  0.33871  1.0000
  C   C127      1.0  0.52669  0.10893  0.34143  1.0000
  C   C128      1.0  0.55050  0.11644  0.34124  1.0000
  N   N12       1.0  0.56076  0.10358  0.34137  1.0000
  C   C129      1.0  0.58386  0.11657  0.33997  1.0000
  C   C130      1.0  0.58873  0.13928  0.33911  1.0000
  C   C131      1.0  0.56824  0.13920  0.33985  1.0000
  C   C132      1.0  0.60029  0.10921  0.33901  1.0000
  C   C133      1.0  0.62387  0.12664  0.33427  1.0000
  C   C134      1.0  0.63393  0.13606  0.24998  1.0000
  C   C135      1.0  0.65615  0.15520  0.24522  1.0000
  C   C136      1.0  0.66909  0.16560  0.32423  1.0000
  C   C137      1.0  0.69092  0.18621  0.31904  1.0000
  C   C138      1.0  0.73448  0.22769  0.30582  1.0000
  C   C139      1.0  0.71541  0.22458  0.25440  1.0000
  C   C140      1.0  0.69410  0.20432  0.26103  1.0000
  C   C141      1.0  0.52033  0.12622  0.33939  1.0000
  C   C142      1.0  0.51666  0.13419  0.25621  1.0000
  C   C143      1.0  0.51226  0.15251  0.25334  1.0000
  C   C144      1.0  0.51150  0.16363  0.33318  1.0000
  C   C145      1.0  0.50785  0.18285  0.32921  1.0000
  C   C146      1.0  0.49163  0.18314  0.26889  1.0000
  C   C147      1.0  0.48896  0.20248  0.26060  1.0000
  C   C148      1.0  0.50226  0.22233  0.31296  1.0000
  C   C149      1.0  0.46059  0.00609  0.33413  1.0000
  C   C150      1.0  0.41516  0.96748  0.32366  1.0000
  C   C151      1.0  0.42783  0.97834  0.24473  1.0000
  C   C152      1.0  0.45017  0.99729  0.24971  1.0000
  C   C153      1.0  0.39314  0.94710  0.31804  1.0000
  C   C154      1.0  0.38940  0.92935  0.25760  1.0000
  C   C155      1.0  0.36792  0.90930  0.25073  1.0000
  C   C156      1.0  0.34921  0.90606  0.30430  1.0000
  C   C157      1.0  0.56412  0.00646  0.33889  1.0000
  C   C158      1.0  0.56760  0.99858  0.25564  1.0000
  C   C159      1.0  0.57179  0.98013  0.25263  1.0000
  C   C160      1.0  0.57251  0.96878  0.33237  1.0000
  C   C161      1.0  0.57587  0.94938  0.32823  1.0000
  C   C162      1.0  0.58091  0.90961  0.31183  1.0000
  C   C163      1.0  0.59433  0.92953  0.25963  1.0000
  C   C164      1.0  0.59192  0.94900  0.26797  1.0000
  H   H61       1.0  0.60588  0.92997  0.21389  1.0000
  H   H62       1.0  0.60204  0.96298  0.22879  1.0000
  H   H63       1.0  0.57343  0.97448  0.19068  1.0000
  H   H64       1.0  0.56649  0.00584  0.19638  1.0000
  H   H65       1.0  0.60654  0.04489  0.33821  1.0000
  H   H66       1.0  0.62816  0.08836  0.33678  1.0000
  H   H67       1.0  0.55973  0.06642  0.34263  1.0000
  H   H68       1.0  0.52474  0.06627  0.34211  1.0000
  H   H69       1.0  0.51764  0.97911  0.33749  1.0000
  H   H70       1.0  0.47997  0.97897  0.33634  1.0000
  H   H71       1.0  0.45903  0.00420  0.19122  1.0000
  H   H72       1.0  0.42100  0.97234  0.18223  1.0000
  H   H73       1.0  0.45631  0.04434  0.33740  1.0000
  H   H74       1.0  0.47793  0.08780  0.33906  1.0000
  H   H75       1.0  0.60448  0.15374  0.33787  1.0000
  H   H76       1.0  0.56681  0.15359  0.33894  1.0000
  H   H77       1.0  0.51773  0.12706  0.19689  1.0000
  H   H78       1.0  0.51045  0.15822  0.19144  1.0000
  H   H79       1.0  0.47732  0.20200  0.21473  1.0000
  H   H80       1.0  0.48158  0.16920  0.22958  1.0000
  H   H81       1.0  0.68076  0.20307  0.22338  1.0000
  H   H82       1.0  0.71681  0.23713  0.21125  1.0000
  H   H83       1.0  0.66268  0.16170  0.18287  1.0000
  H   H84       1.0  0.62483  0.12956  0.19155  1.0000
  H   H85       1.0  0.40246  0.93068  0.21839  1.0000
  H   H86       1.0  0.36611  0.89699  0.20588  1.0000
  C   C165      1.0  0.75546  0.24769  0.29451  1.0000
  C   C166      1.0  0.50062  0.24185  0.29768  1.0000
  C   C167      1.0  0.32805  0.88627  0.29306  1.0000
  C   C168      1.0  0.58236  0.89001  0.29669  1.0000
  H   H87       1.0  0.75854  0.25554  0.23488  1.0000
  H   H88       1.0  0.58637  0.88752  0.23482  1.0000
  H   H89       1.0  0.32461  0.87868  0.23301  1.0000
  H   H90       1.0  0.49690  0.24458  0.23538  1.0000
  N   N13       1.0  0.26344  0.53379  0.28091  1.0000
  C   C169      1.0  0.28362  0.53406  0.27523  1.0000
  C   C170      1.0  0.29169  0.52755  0.35128  1.0000
  H   H91       1.0  0.29286  0.53952  0.21697  1.0000
  H   H92       1.0  0.22863  0.51643  0.00280  1.0000
  H   H93       1.0  0.20075  0.52960  0.01585  1.0000
  N   N14       1.0  0.31167  0.52802  0.35594  1.0000
  N   N15       1.0  0.57420  0.82177  0.28436  1.0000
  C   C171      1.0  0.57401  0.84172  0.27801  1.0000
  C   C172      1.0  0.57976  0.85585  0.35468  1.0000
  H   H94       1.0  0.56908  0.84581  0.21883  1.0000
  H   H95       1.0  0.59018  0.80290  0.00780  1.0000
  H   H96       1.0  0.57916  0.76237  0.01735  1.0000
  N   N16       1.0  0.57922  0.87532  0.35892  1.0000
  N   N17       1.0  0.28586  0.84398  0.28171  1.0000
  C   C173      1.0  0.26594  0.82383  0.27534  1.0000
  C   C174      1.0  0.25144  0.81562  0.35108  1.0000
  H   H97       1.0  0.26212  0.81469  0.21683  1.0000
  H   H98       1.0  0.30329  0.87816  0.00384  1.0000
  H   H99       1.0  0.34420  0.90653  0.01634  1.0000
  N   N18       1.0  0.23193  0.79563  0.35516  1.0000
  N   N19       1.0  0.81721  0.59930  0.28208  1.0000
  C   C175      1.0  0.79689  0.59875  0.27598  1.0000
  C   C176      1.0  0.78863  0.60480  0.35204  1.0000
  H   H100      1.0  0.78770  0.59341  0.21740  1.0000
  H   H101      1.0  0.85254  0.61685  0.00340  1.0000
  H   H102      1.0  0.88192  0.60560  0.01324  1.0000
  N   N20       1.0  0.76850  0.60400  0.35643  1.0000
  N   N21       1.0  0.50829  0.30989  0.28604  1.0000
  C   C177      1.0  0.50883  0.29012  0.28009  1.0000
  C   C178      1.0  0.50244  0.27550  0.35579  1.0000
  H   H103      1.0  0.51445  0.28652  0.22197  1.0000
  H   H104      1.0  0.49083  0.32719  0.00640  1.0000
  H   H105      1.0  0.50250  0.36792  0.01724  1.0000
  N   N22       1.0  0.50323  0.25615  0.36029  1.0000
  N   N23       1.0  0.79735  0.29025  0.28296  1.0000
  C   C179      1.0  0.81709  0.31057  0.27657  1.0000
  C   C180      1.0  0.83186  0.31867  0.35187  1.0000
  H   H106      1.0  0.82059  0.31990  0.21842  1.0000
  H   H107      1.0  0.78071  0.25568  0.00353  1.0000
  H   H108      1.0  0.73994  0.22676  0.01540  1.0000
  N   N24       1.0  0.85121  0.33879  0.35596  1.0000
  C   C181      1.0  0.95181  0.59510  0.40426  1.0000
  C   C182      1.0  0.97087  0.59182  0.40881  1.0000
  C   C183      1.0  0.91795  0.61223  0.36847  1.0000
  C   C184      1.0  0.89767  0.61342  0.36217  1.0000
  C   C185      1.0  0.95199  0.45130  0.41080  1.0000
  C   C186      1.0  0.97038  0.47401  0.41387  1.0000
  C   C187      1.0  0.88532  0.38787  0.36986  1.0000
  C   C188      1.0  0.90472  0.40991  0.37768  1.0000
  C   C189      1.0  0.11168  0.54407  0.40879  1.0000
  C   C190      1.0  0.13057  0.54055  0.40393  1.0000
  C   C191      1.0  0.18373  0.52104  0.36330  1.0000
  C   C192      1.0  0.16367  0.52258  0.36997  1.0000
  C   C193      1.0  0.11175  0.66112  0.41349  1.0000
  C   C194      1.0  0.13027  0.68377  0.41036  1.0000
  C   C195      1.0  0.17773  0.72483  0.37718  1.0000
  C   C196      1.0  0.19727  0.74677  0.36939  1.0000
  H   H109      1.0  0.21144  0.75044  0.40724  1.0000
  H   H110      1.0  0.17847  0.71332  0.42027  1.0000
  H   H111      1.0  0.13768  0.69165  0.46994  1.0000
  H   H112      1.0  0.10654  0.65306  0.47467  1.0000
  H   H113      1.0  0.10606  0.54579  0.47073  1.0000
  H   H114      1.0  0.13825  0.54000  0.46288  1.0000
  H   H115      1.0  0.97565  0.48199  0.47504  1.0000
  H   H116      1.0  0.94472  0.44329  0.47039  1.0000
  H   H117      1.0  0.90386  0.42129  0.42064  1.0000
  H   H118      1.0  0.87116  0.38398  0.40768  1.0000
  H   H119      1.0  0.97705  0.59071  0.47072  1.0000
  H   H120      1.0  0.94459  0.59610  0.46340  1.0000
  H   H121      1.0  0.89634  0.62539  0.39969  1.0000
  H   H122      1.0  0.93071  0.62343  0.41041  1.0000
  H   H123      1.0  0.15126  0.51198  0.41437  1.0000
  H   H124      1.0  0.18526  0.50944  0.40311  1.0000
  C   C197      1.0  0.51229  0.44835  0.40790  1.0000
  C   C198      1.0  0.51552  0.47066  0.41244  1.0000
  C   C199      1.0  0.49517  0.39743  0.37220  1.0000
  C   C200      1.0  0.49401  0.37599  0.36593  1.0000
  C   C201      1.0  0.65608  0.59225  0.41318  1.0000
  C   C202      1.0  0.63337  0.58793  0.41660  1.0000
  C   C203      1.0  0.71948  0.58913  0.37096  1.0000
  C   C204      1.0  0.69743  0.58643  0.37906  1.0000
  C   C205      1.0  0.56358  0.65929  0.41229  1.0000
  C   C206      1.0  0.56709  0.68171  0.40765  1.0000
  C   C207      1.0  0.58668  0.75450  0.36660  1.0000
  C   C208      1.0  0.58510  0.73287  0.37307  1.0000
  C   C209      1.0  0.44617  0.54226  0.41643  1.0000
  C   C210      1.0  0.42353  0.53814  0.41302  1.0000
  C   C211      1.0  0.38246  0.54457  0.37903  1.0000
  C   C212      1.0  0.36052  0.54218  0.37086  1.0000
  H   H125      1.0  0.35683  0.55262  0.40844  1.0000
  H   H126      1.0  0.39395  0.55677  0.42206  1.0000
  H   H127      1.0  0.41561  0.53757  0.47249  1.0000
  H   H128      1.0  0.45421  0.54503  0.47768  1.0000
  H   H129      1.0  0.56206  0.65186  0.47420  1.0000
  H   H130      1.0  0.56788  0.68987  0.46671  1.0000
  H   H131      1.0  0.62542  0.58503  0.47784  1.0000
  H   H132      1.0  0.66411  0.59282  0.47264  1.0000
  H   H133      1.0  0.68609  0.57409  0.42207  1.0000
  H   H134      1.0  0.72341  0.57877  0.40854  1.0000
  H   H135      1.0  0.51669  0.47784  0.47434  1.0000
  H   H136      1.0  0.51129  0.44000  0.46703  1.0000
  H   H137      1.0  0.48206  0.36260  0.40355  1.0000
  H   H138      1.0  0.48399  0.39890  0.41425  1.0000
  H   H139      1.0  0.59592  0.73100  0.41640  1.0000
  H   H140      1.0  0.59858  0.76764  0.40531  1.0000
  C   C213      1.0  0.65910  0.15558  0.40835  1.0000
  C   C214      1.0  0.63680  0.13649  0.41342  1.0000
  C   C215      1.0  0.70997  0.18945  0.37130  1.0000
  C   C216      1.0  0.73140  0.20973  0.36440  1.0000
  C   C217      1.0  0.51509  0.15538  0.41632  1.0000
  C   C218      1.0  0.51942  0.13700  0.41951  1.0000
  C   C219      1.0  0.51818  0.22201  0.37469  1.0000
  C   C220      1.0  0.52087  0.20263  0.38266  1.0000
  C   C221      1.0  0.44795  0.99576  0.41329  1.0000
  C   C222      1.0  0.42554  0.97685  0.40801  1.0000
  C   C223      1.0  0.35285  0.92368  0.36520  1.0000
  C   C224      1.0  0.37446  0.94374  0.37228  1.0000
  C   C225      1.0  0.56501  0.99546  0.41892  1.0000
  C   C226      1.0  0.56914  0.97695  0.41557  1.0000
  C   C227      1.0  0.56274  0.92954  0.38151  1.0000
  C   C228      1.0  0.56514  0.91002  0.37339  1.0000
  H   H141      1.0  0.55470  0.89580  0.41092  1.0000
  H   H142      1.0  0.55048  0.92871  0.42431  1.0000
  H   H143      1.0  0.56966  0.96945  0.47505  1.0000
  H   H144      1.0  0.56220  0.00057  0.48012  1.0000
  H   H145      1.0  0.45528  0.00144  0.47539  1.0000
  H   H146      1.0  0.41730  0.96925  0.46683  1.0000
  H   H147      1.0  0.52233  0.13178  0.48069  1.0000
  H   H148      1.0  0.51453  0.16270  0.47585  1.0000
  H   H149      1.0  0.53324  0.20354  0.42548  1.0000
  H   H150      1.0  0.52858  0.23622  0.41216  1.0000
  H   H151      1.0  0.62973  0.13036  0.47548  1.0000
  H   H152      1.0  0.66756  0.16281  0.46728  1.0000
  H   H153      1.0  0.74486  0.21111  0.40156  1.0000
  H   H154      1.0  0.70858  0.17672  0.41319  1.0000
  H   H155      1.0  0.37624  0.95623  0.41601  1.0000
  H   H156      1.0  0.33967  0.92223  0.40397  1.0000
  C   C229      1.0  0.24990  0.52730  0.35570  1.0000
  N   N25       1.0  0.27833  0.52133  0.42609  1.0000
  C   C230      1.0  0.25769  0.52046  0.43286  1.0000
  C   C231      1.0  0.24643  0.51349  0.51540  1.0000
  O   O1        1.0  0.24810  0.49842  0.55524  1.0000
  O   O2        1.0  0.22644  0.51274  0.52843  1.0000
  C   C232      1.0  0.22578  0.52398  0.60998  1.0000
  C   C233      1.0  0.20197  0.52161  0.61940  1.0000
  H   H157      1.0  0.23867  0.54221  0.60803  1.0000
  H   H158      1.0  0.19881  0.53024  0.56337  1.0000
  H   H159      1.0  0.18874  0.50357  0.61953  1.0000
  N   N26       1.0  0.23056  0.52828  0.35519  1.0000
  C   C234      1.0  0.57995  0.81427  0.36035  1.0000
  N   N27       1.0  0.58523  0.84826  0.43059  1.0000
  C   C235      1.0  0.58606  0.82846  0.43820  1.0000
  C   C236      1.0  0.59217  0.82371  0.52222  1.0000
  O   O3        1.0  0.60553  0.84021  0.56765  1.0000
  O   O4        1.0  0.59407  0.80500  0.53348  1.0000
  C   C237      1.0  0.58312  0.79214  0.61407  1.0000
  C   C238      1.0  0.58678  0.77141  0.62126  1.0000
  H   H160      1.0  0.56470  0.78593  0.61210  1.0000
  H   H161      1.0  0.57849  0.75983  0.56471  1.0000
  H   H162      1.0  0.60504  0.77710  0.62065  1.0000
  N   N28       1.0  0.57890  0.79391  0.36009  1.0000
  C   C239      1.0  0.29299  0.85739  0.35689  1.0000
  N   N29       1.0  0.25865  0.82884  0.42626  1.0000
  C   C240      1.0  0.27843  0.84946  0.43374  1.0000
  C   C241      1.0  0.28272  0.86049  0.51668  1.0000
  O   O5        1.0  0.26614  0.85859  0.55777  1.0000
  O   O6        1.0  0.30186  0.88065  0.52973  1.0000
  C   C242      1.0  0.31420  0.88133  0.61052  1.0000
  C   C243      1.0  0.33543  0.90530  0.62029  1.0000
  H   H163      1.0  0.31982  0.86868  0.60726  1.0000
  H   H164      1.0  0.34707  0.90876  0.56387  1.0000
  H   H165      1.0  0.33033  0.91831  0.62147  1.0000
  N   N30       1.0  0.31333  0.87672  0.35701  1.0000
  C   C244      1.0  0.83072  0.60566  0.35728  1.0000
  N   N31       1.0  0.80196  0.61090  0.42721  1.0000
  C   C245      1.0  0.82274  0.61206  0.43448  1.0000
  C   C246      1.0  0.83388  0.61881  0.51765  1.0000
  O   O7        1.0  0.83103  0.63262  0.56082  1.0000
  O   O8        1.0  0.85444  0.62061  0.52915  1.0000
  C   C247      1.0  0.85610  0.60943  0.60971  1.0000
  C   C248      1.0  0.88044  0.61300  0.61736  1.0000
  H   H166      1.0  0.84386  0.59103  0.60735  1.0000
  H   H167      1.0  0.88386  0.60492  0.56059  1.0000
  H   H168      1.0  0.89305  0.63124  0.61753  1.0000
  N   N32       1.0  0.85020  0.60493  0.35699  1.0000
  C   C249      1.0  0.50162  0.31674  0.36075  1.0000
  N   N33       1.0  0.49604  0.28244  0.43053  1.0000
  C   C250      1.0  0.49488  0.30205  0.43754  1.0000
  C   C251      1.0  0.48781  0.30610  0.52010  1.0000
  O   O9        1.0  0.47328  0.28936  0.56134  1.0000
  O   O10       1.0  0.48631  0.32497  0.53250  1.0000
  C   C252      1.0  0.49799  0.33758  0.61252  1.0000
  C   C253      1.0  0.49468  0.35846  0.62178  1.0000
  H   H169      1.0  0.51635  0.34360  0.60844  1.0000
  H   H170      1.0  0.50249  0.37006  0.56470  1.0000
  H   H171      1.0  0.47647  0.35296  0.62384  1.0000
  N   N34       1.0  0.50233  0.33695  0.36047  1.0000
  C   C254      1.0  0.79063  0.27659  0.35774  1.0000
  N   N35       1.0  0.82506  0.30519  0.42668  1.0000
  C   C255      1.0  0.80547  0.28442  0.43412  1.0000
  C   C256      1.0  0.80158  0.27313  0.51666  1.0000
  O   O11       1.0  0.81838  0.27517  0.55709  1.0000
  O   O12       1.0  0.78268  0.25278  0.52961  1.0000
  C   C257      1.0  0.77024  0.25184  0.60991  1.0000
  C   C258      1.0  0.74929  0.22768  0.61975  1.0000
  H   H172      1.0  0.76428  0.26424  0.60588  1.0000
  H   H173      1.0  0.73762  0.22401  0.56291  1.0000
  H   H174      1.0  0.75472  0.21492  0.62183  1.0000
  N   N36       1.0  0.77043  0.25710  0.35797  1.0000
