data_image0
_chemical_formula_structural       H2C3N2C3HC3HN2C3HCHCH2C4HC2NC4HC2HN3C5HC2NCNH3N3CNC2NCH2CH2N2C2HCHC2HCHCNC4NH3N4CNC2NCH2C2H2N2C2HCHNC4NCNH3NC3NCHCNC2NCHC2HCH2N3C2HCHC2HCHC4NC4NH4N2C3NCHCNC2NCHC2HC2H3N3C2HCHN
_chemical_formula_sum              "H56 C104 N48"
_cell_length_a       31.1964
_cell_length_b       31.1964
_cell_length_c       14.8885
_cell_angle_alpha    90
_cell_angle_beta     90
_cell_angle_gamma    90

_space_group_name_H-M_alt    "P 1"
_space_group_IT_number       1

loop_
  _space_group_symop_operation_xyz
  'x, y, z'

loop_
  _atom_site_type_symbol
  _atom_site_label
  _atom_site_symmetry_multiplicity
  _atom_site_fract_x
  _atom_site_fract_y
  _atom_site_fract_z
  _atom_site_occupancy
  H   H1        1.0  0.07279  0.03012  0.32832  1.0000
  H   H2        1.0  0.02509  0.07767  0.33275  1.0000
  C   C1        1.0  0.48483  0.02267  0.33162  1.0000
  C   C2        1.0  0.44008  0.01319  0.33124  1.0000
  C   C3        1.0  0.40749  0.04472  0.33464  1.0000
  N   N1        1.0  0.36517  0.03449  0.33311  1.0000
  N   N2        1.0  0.27696  0.03967  0.33361  1.0000
  C   C4        1.0  0.23389  0.04588  0.33374  1.0000
  C   C5        1.0  0.20661  0.00997  0.32758  1.0000
  C   C6        1.0  0.16170  0.01359  0.32788  1.0000
  H   H3        1.0  0.14760  0.04310  0.33242  1.0000
  C   C7        1.0  0.98483  0.02267  0.33162  1.0000
  C   C8        1.0  0.94008  0.01319  0.33124  1.0000
  C   C9        1.0  0.90749  0.04472  0.33464  1.0000
  H   H4        1.0  0.57279  0.03012  0.32832  1.0000
  N   N3        1.0  0.86517  0.03449  0.33311  1.0000
  N   N4        1.0  0.77696  0.03967  0.33361  1.0000
  C   C10       1.0  0.73389  0.04588  0.33374  1.0000
  C   C11       1.0  0.70661  0.00997  0.32758  1.0000
  C   C12       1.0  0.66170  0.01359  0.32788  1.0000
  H   H5        1.0  0.64760  0.04310  0.33242  1.0000
  C   C13       1.0  0.49430  0.06741  0.33335  1.0000
  H   H6        1.0  0.22202  0.07632  0.33863  1.0000
  C   C14       1.0  0.99430  0.06741  0.33335  1.0000
  H   H7        1.0  0.52510  0.07767  0.33275  1.0000
  H   H8        1.0  0.72202  0.07632  0.33863  1.0000
  C   C15       1.0  0.01766  0.48984  0.32938  1.0000
  C   C16       1.0  0.00695  0.21125  0.33171  1.0000
  C   C17       1.0  0.04311  0.23872  0.32539  1.0000
  C   C18       1.0  0.00910  0.16610  0.33211  1.0000
  H   H9        1.0  0.03813  0.15110  0.32790  1.0000
  C   C19       1.0  0.00816  0.44507  0.32958  1.0000
  C   C20       1.0  0.03970  0.41253  0.32598  1.0000
  N   N5        1.0  0.02953  0.37023  0.32704  1.0000
  C   C21       1.0  0.01766  0.98984  0.32938  1.0000
  C   C22       1.0  0.00695  0.71125  0.33171  1.0000
  C   C23       1.0  0.04311  0.73872  0.32539  1.0000
  C   C24       1.0  0.00910  0.66610  0.33211  1.0000
  H   H10       1.0  0.03813  0.65110  0.32790  1.0000
  C   C25       1.0  0.00816  0.94507  0.32958  1.0000
  C   C26       1.0  0.03970  0.91253  0.32598  1.0000
  H   H11       1.0  0.02509  0.57767  0.33275  1.0000
  N   N6        1.0  0.02953  0.87023  0.32704  1.0000
  N   N7        1.0  0.03666  0.28179  0.32557  1.0000
  N   N8        1.0  0.03666  0.78179  0.32557  1.0000
  C   C27       1.0  0.08375  0.42369  0.32221  1.0000
  C   C28       1.0  0.06242  0.49934  0.32763  1.0000
  C   C29       1.0  0.08256  0.22563  0.31833  1.0000
  C   C30       1.0  0.08375  0.92369  0.32221  1.0000
  C   C31       1.0  0.06242  0.99934  0.32763  1.0000
  H   H12       1.0  0.07279  0.53012  0.32832  1.0000
  C   C32       1.0  0.08256  0.72563  0.31833  1.0000
  C   C33       1.0  0.09494  0.46776  0.32439  1.0000
  N   N9        1.0  0.11472  0.39269  0.31763  1.0000
  C   C34       1.0  0.41867  0.08877  0.33848  1.0000
  N   N10       1.0  0.38767  0.11974  0.34304  1.0000
  H   H13       1.0  0.35733  0.11278  0.34513  1.0000
  H   H14       1.0  0.14505  0.39961  0.31448  1.0000
  H   H15       1.0  0.42984  0.48243  0.32782  1.0000
  N   N11       1.0  0.13725  0.47792  0.32446  1.0000
  N   N12       1.0  0.53665  0.28179  0.32557  1.0000
  N   N13       1.0  0.11735  0.21399  0.31181  1.0000
  C   C35       1.0  0.29623  0.00054  0.32764  1.0000
  N   N14       1.0  0.22569  0.47083  0.32144  1.0000
  C   C36       1.0  0.26876  0.96439  0.32107  1.0000
  C   C37       1.0  0.28186  0.92494  0.31384  1.0000
  N   N15       1.0  0.29350  0.89017  0.30714  1.0000
  C   C38       1.0  0.34138  0.99838  0.32824  1.0000
  H   H16       1.0  0.35638  0.96936  0.32402  1.0000
  H   H17       1.0  0.47741  0.43471  0.33293  1.0000
  C   C39       1.0  0.46274  0.09998  0.33635  1.0000
  H   H18       1.0  0.39461  0.15006  0.34633  1.0000
  H   H19       1.0  0.10778  0.36234  0.31561  1.0000
  N   N16       1.0  0.47297  0.14231  0.33586  1.0000
  N   N17       1.0  0.96780  0.23052  0.33745  1.0000
  C   C40       1.0  0.46160  0.27359  0.33757  1.0000
  C   C41       1.0  0.49751  0.30087  0.33147  1.0000
  H   H20       1.0  0.43115  0.28546  0.34222  1.0000
  C   C42       1.0  0.49387  0.34578  0.33140  1.0000
  H   H21       1.0  0.46437  0.35989  0.33572  1.0000
  C   C43       1.0  0.23389  0.54587  0.33374  1.0000
  C   C44       1.0  0.20661  0.50997  0.32758  1.0000
  H   H22       1.0  0.22202  0.57632  0.33863  1.0000
  C   C45       1.0  0.16170  0.51360  0.32788  1.0000
  H   H23       1.0  0.14760  0.54309  0.33242  1.0000
  C   C46       1.0  0.09494  0.96776  0.32439  1.0000
  N   N18       1.0  0.11472  0.89269  0.31763  1.0000
  C   C47       1.0  0.48483  0.52267  0.33162  1.0000
  C   C48       1.0  0.44008  0.51319  0.33124  1.0000
  C   C49       1.0  0.40749  0.54472  0.33464  1.0000
  C   C50       1.0  0.41867  0.58877  0.33848  1.0000
  N   N19       1.0  0.38767  0.61974  0.34304  1.0000
  H   H24       1.0  0.35733  0.61278  0.34513  1.0000
  H   H25       1.0  0.14505  0.89961  0.31448  1.0000
  H   H26       1.0  0.42984  0.98243  0.32782  1.0000
  N   N20       1.0  0.36517  0.53449  0.33311  1.0000
  N   N21       1.0  0.13725  0.97792  0.32446  1.0000
  N   N22       1.0  0.53665  0.78179  0.32557  1.0000
  N   N23       1.0  0.11735  0.71399  0.31181  1.0000
  C   C51       1.0  0.29623  0.50054  0.32764  1.0000
  N   N24       1.0  0.22569  0.97083  0.32144  1.0000
  C   C52       1.0  0.26876  0.46439  0.32107  1.0000
  C   C53       1.0  0.28186  0.42494  0.31384  1.0000
  N   N25       1.0  0.29350  0.39017  0.30714  1.0000
  C   C54       1.0  0.34138  0.49838  0.32824  1.0000
  H   H27       1.0  0.35638  0.46936  0.32402  1.0000
  H   H28       1.0  0.47741  0.93471  0.33293  1.0000
  C   C55       1.0  0.46274  0.59998  0.33635  1.0000
  C   C56       1.0  0.49430  0.56741  0.33335  1.0000
  H   H29       1.0  0.39461  0.65006  0.34633  1.0000
  H   H30       1.0  0.10778  0.86234  0.31561  1.0000
  N   N26       1.0  0.47297  0.64231  0.33586  1.0000
  N   N27       1.0  0.96780  0.73052  0.33745  1.0000
  C   C57       1.0  0.46160  0.77359  0.33757  1.0000
  C   C58       1.0  0.49751  0.80087  0.33147  1.0000
  H   H31       1.0  0.43115  0.78546  0.34222  1.0000
  C   C59       1.0  0.49387  0.84578  0.33140  1.0000
  H   H32       1.0  0.46437  0.85989  0.33572  1.0000
  N   N28       1.0  0.27696  0.53968  0.33361  1.0000
  C   C60       1.0  0.51766  0.48984  0.32938  1.0000
  C   C61       1.0  0.58375  0.42369  0.32221  1.0000
  C   C62       1.0  0.59494  0.46776  0.32439  1.0000
  C   C63       1.0  0.56242  0.49934  0.32763  1.0000
  N   N29       1.0  0.61472  0.39269  0.31763  1.0000
  C   C64       1.0  0.91867  0.08877  0.33848  1.0000
  N   N30       1.0  0.88767  0.11974  0.34304  1.0000
  H   H33       1.0  0.85733  0.11278  0.34513  1.0000
  H   H34       1.0  0.64505  0.39961  0.31448  1.0000
  H   H35       1.0  0.92983  0.48243  0.32782  1.0000
  N   N31       1.0  0.63725  0.47792  0.32446  1.0000
  C   C65       1.0  0.50695  0.21125  0.33171  1.0000
  C   C66       1.0  0.54311  0.23872  0.32539  1.0000
  C   C67       1.0  0.58256  0.22563  0.31833  1.0000
  N   N32       1.0  0.61735  0.21399  0.31181  1.0000
  C   C68       1.0  0.50910  0.16610  0.33211  1.0000
  H   H36       1.0  0.53813  0.15110  0.32790  1.0000
  C   C69       1.0  0.79623  0.00054  0.32764  1.0000
  N   N33       1.0  0.72569  0.47083  0.32144  1.0000
  C   C70       1.0  0.76876  0.96439  0.32107  1.0000
  C   C71       1.0  0.78186  0.92494  0.31384  1.0000
  N   N34       1.0  0.79350  0.89017  0.30714  1.0000
  C   C72       1.0  0.84138  0.99838  0.32824  1.0000
  H   H37       1.0  0.85638  0.96936  0.32402  1.0000
  C   C73       1.0  0.50816  0.44507  0.32958  1.0000
  C   C74       1.0  0.53970  0.41253  0.32598  1.0000
  H   H38       1.0  0.97741  0.43471  0.33293  1.0000
  C   C75       1.0  0.96274  0.09998  0.33635  1.0000
  H   H39       1.0  0.89461  0.15006  0.34633  1.0000
  H   H40       1.0  0.60778  0.36234  0.31561  1.0000
  N   N35       1.0  0.97297  0.14231  0.33586  1.0000
  N   N36       1.0  0.52953  0.37023  0.32704  1.0000
  N   N37       1.0  0.46780  0.23052  0.33745  1.0000
  C   C76       1.0  0.96160  0.27359  0.33757  1.0000
  C   C77       1.0  0.99751  0.30087  0.33147  1.0000
  H   H41       1.0  0.93114  0.28546  0.34222  1.0000
  C   C78       1.0  0.99387  0.34578  0.33140  1.0000
  H   H42       1.0  0.96437  0.35989  0.33572  1.0000
  C   C79       1.0  0.73389  0.54587  0.33374  1.0000
  C   C80       1.0  0.70661  0.50997  0.32758  1.0000
  H   H43       1.0  0.72202  0.57632  0.33863  1.0000
  C   C81       1.0  0.66170  0.51360  0.32788  1.0000
  H   H44       1.0  0.64760  0.54309  0.33242  1.0000
  C   C82       1.0  0.51766  0.98984  0.32938  1.0000
  C   C83       1.0  0.58375  0.92369  0.32221  1.0000
  C   C84       1.0  0.59494  0.96776  0.32439  1.0000
  C   C85       1.0  0.56242  0.99934  0.32763  1.0000
  N   N38       1.0  0.61472  0.89269  0.31763  1.0000
  C   C86       1.0  0.98483  0.52267  0.33162  1.0000
  C   C87       1.0  0.94008  0.51319  0.33124  1.0000
  C   C88       1.0  0.90749  0.54472  0.33464  1.0000
  C   C89       1.0  0.91867  0.58877  0.33848  1.0000
  N   N39       1.0  0.88767  0.61974  0.34304  1.0000
  H   H45       1.0  0.85733  0.61278  0.34513  1.0000
  H   H46       1.0  0.64505  0.89961  0.31448  1.0000
  H   H47       1.0  0.57279  0.53012  0.32832  1.0000
  H   H48       1.0  0.92983  0.98243  0.32782  1.0000
  N   N40       1.0  0.86517  0.53449  0.33311  1.0000
  N   N41       1.0  0.63725  0.97792  0.32446  1.0000
  C   C90       1.0  0.50695  0.71125  0.33171  1.0000
  C   C91       1.0  0.54311  0.73872  0.32539  1.0000
  C   C92       1.0  0.58256  0.72563  0.31833  1.0000
  N   N42       1.0  0.61735  0.71399  0.31181  1.0000
  C   C93       1.0  0.50910  0.66610  0.33211  1.0000
  H   H49       1.0  0.53813  0.65110  0.32790  1.0000
  C   C94       1.0  0.79623  0.50054  0.32764  1.0000
  N   N43       1.0  0.72569  0.97083  0.32144  1.0000
  C   C95       1.0  0.76876  0.46439  0.32107  1.0000
  C   C96       1.0  0.78186  0.42494  0.31384  1.0000
  N   N44       1.0  0.79350  0.39017  0.30714  1.0000
  C   C97       1.0  0.84138  0.49838  0.32824  1.0000
  H   H50       1.0  0.85638  0.46936  0.32402  1.0000
  C   C98       1.0  0.50816  0.94507  0.32958  1.0000
  C   C99       1.0  0.53970  0.91253  0.32598  1.0000
  H   H51       1.0  0.97741  0.93471  0.33293  1.0000
  C   C100      1.0  0.96274  0.59998  0.33635  1.0000
  C   C101      1.0  0.99430  0.56741  0.33335  1.0000
  H   H52       1.0  0.52510  0.57767  0.33275  1.0000
  H   H53       1.0  0.89461  0.65006  0.34633  1.0000
  H   H54       1.0  0.60778  0.86234  0.31561  1.0000
  N   N45       1.0  0.97297  0.64231  0.33586  1.0000
  N   N46       1.0  0.52953  0.87023  0.32704  1.0000
  N   N47       1.0  0.46780  0.73052  0.33745  1.0000
  C   C102      1.0  0.96160  0.77359  0.33757  1.0000
  C   C103      1.0  0.99751  0.80087  0.33147  1.0000
  H   H55       1.0  0.93114  0.78546  0.34222  1.0000
  C   C104      1.0  0.99387  0.84578  0.33140  1.0000
  H   H56       1.0  0.96437  0.85989  0.33572  1.0000
  N   N48       1.0  0.77696  0.53968  0.33361  1.0000
