data_image0
_chemical_formula_structural       C2NC2ONH2C2NC2ONH2NCHNCHNCHNCHC2NC2ONH2C2NC2ONH2C2NC2ONH2C2NC2ONH2NCHNCHNCHNCHC2NC2ONH2C2NC2ONH2C2NC2ONH2C2NC2ONH2C6H3C6H3C6H3C6H3C6H3C6H3C6H3C6H3C6H3C6H3C6H3C6H3NCHNCHC2NC2ONH2C2NC2ONH2C2NC2ONH2C2NC2ONH2NCHNCHNCHNCHC2NC2ONH2C2NC2ONH2C2NC2ONH2C2NC2ONH2NCHNCHNCHNCH
_chemical_formula_sum              "C162 N54 O18 H90"
_cell_length_a       34.2263
_cell_length_b       34.0681
_cell_length_c       14.9033
_cell_angle_alpha    90
_cell_angle_beta     90
_cell_angle_gamma    90.2699

_space_group_name_H-M_alt    "P 1"
_space_group_IT_number       1

loop_
  _space_group_symop_operation_xyz
  'x, y, z'

loop_
  _atom_site_type_symbol
  _atom_site_label
  _atom_site_symmetry_multiplicity
  _atom_site_fract_x
  _atom_site_fract_y
  _atom_site_fract_z
  _atom_site_occupancy
  C   C1        1.0  0.03073  0.47149  0.32623  1.0000
  C   C2        1.0  0.97090  0.52823  0.33653  1.0000
  N   N1        1.0  0.00330  0.53326  0.28488  1.0000
  C   C3        1.0  0.03303  0.50707  0.27604  1.0000
  C   C4        1.0  0.06217  0.51709  0.21241  1.0000
  O   O1        1.0  0.07179  0.55541  0.20195  1.0000
  N   N2        1.0  0.07714  0.49125  0.15286  1.0000
  H   H1        1.0  0.06798  0.46423  0.15011  1.0000
  H   H2        1.0  0.09516  0.50020  0.10669  1.0000
  C   C5        1.0  0.53019  0.02950  0.32754  1.0000
  C   C6        1.0  0.47242  0.97026  0.33894  1.0000
  N   N3        1.0  0.46832  0.00237  0.28569  1.0000
  C   C7        1.0  0.49506  0.03185  0.27636  1.0000
  C   C8        1.0  0.48604  0.06072  0.21118  1.0000
  O   O2        1.0  0.44816  0.07071  0.19922  1.0000
  N   N4        1.0  0.51245  0.07522  0.15223  1.0000
  H   H3        1.0  0.53925  0.06593  0.15094  1.0000
  H   H4        1.0  0.50422  0.09324  0.10538  1.0000
  N   N5        1.0  0.07561  0.26407  0.29389  1.0000
  C   C9        1.0  0.08644  0.30217  0.28463  1.0000
  H   H5        1.0  0.10792  0.30932  0.23982  1.0000
  N   N6        1.0  0.92611  0.73561  0.29350  1.0000
  C   C10       1.0  0.91507  0.69753  0.28504  1.0000
  H   H6        1.0  0.89314  0.69042  0.24137  1.0000
  N   N7        1.0  0.73728  0.07484  0.29705  1.0000
  C   C11       1.0  0.69950  0.08601  0.28829  1.0000
  H   H7        1.0  0.69276  0.10805  0.24456  1.0000
  N   N8        1.0  0.26550  0.92518  0.29468  1.0000
  C   C12       1.0  0.30334  0.91409  0.28650  1.0000
  H   H8        1.0  0.31027  0.89209  0.24283  1.0000
  C   C13       1.0  0.45359  0.75074  0.32888  1.0000
  C   C14       1.0  0.43299  0.83046  0.34184  1.0000
  N   N9        1.0  0.46155  0.81779  0.28569  1.0000
  C   C15       1.0  0.47281  0.77978  0.27574  1.0000
  C   C16       1.0  0.50029  0.77270  0.20673  1.0000
  O   O3        1.0  0.52894  0.79951  0.19261  1.0000
  N   N10       1.0  0.49559  0.74413  0.14463  1.0000
  H   H9        1.0  0.47270  0.72713  0.14468  1.0000
  H   H10       1.0  0.51350  0.74233  0.09418  1.0000
  C   C17       1.0  0.54823  0.24900  0.32674  1.0000
  C   C18       1.0  0.56929  0.16938  0.34014  1.0000
  N   N11       1.0  0.54063  0.18188  0.28404  1.0000
  C   C19       1.0  0.52908  0.21980  0.27398  1.0000
  C   C20       1.0  0.50155  0.22656  0.20488  1.0000
  O   O4        1.0  0.47310  0.19949  0.19110  1.0000
  N   N12       1.0  0.50597  0.25513  0.14270  1.0000
  H   H11       1.0  0.52862  0.27244  0.14273  1.0000
  H   H12       1.0  0.48792  0.25684  0.09248  1.0000
  C   C21       1.0  0.75164  0.54759  0.32803  1.0000
  C   C22       1.0  0.83150  0.56706  0.34141  1.0000
  N   N13       1.0  0.81822  0.53883  0.28454  1.0000
  C   C23       1.0  0.78009  0.52808  0.27447  1.0000
  C   C24       1.0  0.77236  0.50083  0.20495  1.0000
  O   O5        1.0  0.79844  0.47181  0.19003  1.0000
  N   N14       1.0  0.74380  0.50594  0.14345  1.0000
  H   H13       1.0  0.72729  0.52908  0.14409  1.0000
  H   H14       1.0  0.74152  0.48811  0.09277  1.0000
  C   C25       1.0  0.25002  0.45226  0.32624  1.0000
  C   C26       1.0  0.17018  0.43275  0.34001  1.0000
  N   N15       1.0  0.18343  0.46100  0.28314  1.0000
  C   C27       1.0  0.22151  0.47184  0.27300  1.0000
  C   C28       1.0  0.22910  0.49910  0.20337  1.0000
  O   O6        1.0  0.20289  0.52801  0.18857  1.0000
  N   N16       1.0  0.25772  0.49414  0.14193  1.0000
  H   H15       1.0  0.27446  0.47117  0.14268  1.0000
  H   H16       1.0  0.26001  0.51208  0.09145  1.0000
  N   N17       1.0  0.14341  0.07250  0.30491  1.0000
  C   C29       1.0  0.12241  0.10625  0.29951  1.0000
  H   H17       1.0  0.12403  0.12294  0.24266  1.0000
  N   N18       1.0  0.85888  0.92746  0.30554  1.0000
  C   C30       1.0  0.87987  0.89375  0.29914  1.0000
  H   H18       1.0  0.87807  0.87719  0.24212  1.0000
  N   N19       1.0  0.92932  0.14157  0.30677  1.0000
  C   C31       1.0  0.89527  0.12093  0.30115  1.0000
  H   H19       1.0  0.87880  0.12272  0.24414  1.0000
  N   N20       1.0  0.07297  0.85840  0.30268  1.0000
  C   C32       1.0  0.10701  0.87906  0.29696  1.0000
  H   H20       1.0  0.12348  0.87731  0.23992  1.0000
  C   C33       1.0  0.36191  0.54510  0.30395  1.0000
  C   C34       1.0  0.40816  0.61286  0.31423  1.0000
  N   N21       1.0  0.41082  0.58730  0.24472  1.0000
  C   C35       1.0  0.38855  0.55463  0.23374  1.0000
  C   C36       1.0  0.39615  0.53183  0.15593  1.0000
  O   O7        1.0  0.43198  0.53414  0.11767  1.0000
  N   N22       1.0  0.36877  0.51018  0.11287  1.0000
  H   H21       1.0  0.34159  0.51063  0.13121  1.0000
  H   H22       1.0  0.37522  0.49680  0.05722  1.0000
  C   C37       1.0  0.63975  0.45480  0.30470  1.0000
  C   C38       1.0  0.59347  0.38697  0.31291  1.0000
  N   N23       1.0  0.59083  0.41294  0.24419  1.0000
  C   C39       1.0  0.61313  0.44565  0.23415  1.0000
  C   C40       1.0  0.60543  0.46891  0.15708  1.0000
  O   O8        1.0  0.56952  0.46693  0.11917  1.0000
  N   N24       1.0  0.63278  0.49076  0.11446  1.0000
  H   H23       1.0  0.65997  0.49033  0.13274  1.0000
  H   H24       1.0  0.62622  0.50465  0.05954  1.0000
  C   C41       1.0  0.54742  0.64037  0.30576  1.0000
  C   C42       1.0  0.61509  0.59474  0.31510  1.0000
  N   N25       1.0  0.58985  0.59233  0.24509  1.0000
  C   C43       1.0  0.55726  0.61433  0.23456  1.0000
  C   C44       1.0  0.53470  0.60681  0.15637  1.0000
  O   O9        1.0  0.53733  0.57112  0.11688  1.0000
  N   N26       1.0  0.51287  0.63417  0.11427  1.0000
  H   H25       1.0  0.51307  0.66135  0.13359  1.0000
  H   H26       1.0  0.49964  0.62782  0.05837  1.0000
  C   C45       1.0  0.45421  0.35936  0.30324  1.0000
  C   C46       1.0  0.38651  0.40500  0.31246  1.0000
  N   N27       1.0  0.41180  0.40744  0.24253  1.0000
  C   C47       1.0  0.44437  0.38538  0.23198  1.0000
  C   C48       1.0  0.46695  0.39293  0.15382  1.0000
  O   O10       1.0  0.46448  0.42870  0.11463  1.0000
  N   N28       1.0  0.48861  0.36550  0.11150  1.0000
  H   H27       1.0  0.48847  0.33832  0.13081  1.0000
  H   H28       1.0  0.50202  0.37191  0.05584  1.0000
  C   C49       1.0  0.07821  0.37144  0.33533  1.0000
  C   C50       1.0  0.11804  0.38253  0.33845  1.0000
  C   C51       1.0  0.12982  0.42235  0.33961  1.0000
  C   C52       1.0  0.10050  0.45144  0.33563  1.0000
  C   C53       1.0  0.06020  0.44175  0.33107  1.0000
  C   C54       1.0  0.04973  0.40142  0.33370  1.0000
  H   H29       1.0  0.10875  0.48033  0.33814  1.0000
  H   H30       1.0  0.02082  0.39363  0.33013  1.0000
  H   H31       1.0  0.13893  0.36112  0.34000  1.0000
  C   C55       1.0  0.92354  0.62824  0.33623  1.0000
  C   C56       1.0  0.88370  0.61715  0.33934  1.0000
  C   C57       1.0  0.87189  0.57734  0.34155  1.0000
  C   C58       1.0  0.90119  0.54816  0.33983  1.0000
  C   C59       1.0  0.94150  0.55791  0.33855  1.0000
  C   C60       1.0  0.95200  0.59821  0.33686  1.0000
  H   H32       1.0  0.89289  0.51924  0.33931  1.0000
  H   H33       1.0  0.98096  0.60593  0.33557  1.0000
  H   H34       1.0  0.86279  0.63855  0.33965  1.0000
  C   C61       1.0  0.63024  0.07730  0.33757  1.0000
  C   C62       1.0  0.61937  0.11731  0.34016  1.0000
  C   C63       1.0  0.57978  0.12897  0.34053  1.0000
  C   C64       1.0  0.55071  0.09939  0.33663  1.0000
  C   C65       1.0  0.56014  0.05898  0.33247  1.0000
  C   C66       1.0  0.60019  0.04858  0.33574  1.0000
  H   H35       1.0  0.52197  0.10753  0.33884  1.0000
  H   H36       1.0  0.60772  0.01954  0.33246  1.0000
  H   H37       1.0  0.64075  0.13842  0.34181  1.0000
  C   C67       1.0  0.37238  0.92267  0.33800  1.0000
  C   C68       1.0  0.38317  0.88264  0.34067  1.0000
  C   C69       1.0  0.42274  0.87091  0.34265  1.0000
  C   C70       1.0  0.45195  0.90042  0.34151  1.0000
  C   C71       1.0  0.44252  0.94087  0.34073  1.0000
  C   C72       1.0  0.40248  0.95134  0.33894  1.0000
  H   H38       1.0  0.48069  0.89219  0.34095  1.0000
  H   H39       1.0  0.39506  0.98043  0.33783  1.0000
  H   H40       1.0  0.36176  0.86155  0.34068  1.0000
  C   C73       1.0  0.06386  0.14174  0.35770  1.0000
  C   C74       1.0  0.02489  0.12830  0.36372  1.0000
  C   C75       1.0  0.99300  0.15439  0.36427  1.0000
  C   C76       1.0  0.00061  0.19499  0.35556  1.0000
  C   C77       1.0  0.03944  0.20979  0.35185  1.0000
  C   C78       1.0  0.07074  0.18254  0.35088  1.0000
  H   H41       1.0  0.97754  0.21399  0.35538  1.0000
  H   H42       1.0  0.09902  0.19251  0.35052  1.0000
  H   H43       1.0  0.01959  0.09871  0.36867  1.0000
  C   C79       1.0  0.93847  0.85797  0.35604  1.0000
  C   C80       1.0  0.97745  0.87145  0.36113  1.0000
  C   C81       1.0  0.00937  0.84538  0.36092  1.0000
  C   C82       1.0  0.00174  0.80478  0.35233  1.0000
  C   C83       1.0  0.96291  0.78992  0.34954  1.0000
  C   C84       1.0  0.93159  0.81717  0.34940  1.0000
  H   H44       1.0  0.02483  0.78580  0.35151  1.0000
  H   H45       1.0  0.90331  0.80719  0.34980  1.0000
  H   H46       1.0  0.98274  0.90104  0.36607  1.0000
  C   C85       1.0  0.85888  0.06240  0.35877  1.0000
  C   C86       1.0  0.87201  0.02328  0.36330  1.0000
  C   C87       1.0  0.84584  0.99117  0.36394  1.0000
  C   C88       1.0  0.80544  0.99875  0.35591  1.0000
  C   C89       1.0  0.79092  0.03775  0.35307  1.0000
  C   C90       1.0  0.81831  0.06925  0.35269  1.0000
  H   H47       1.0  0.78639  0.97552  0.35537  1.0000
  H   H48       1.0  0.80863  0.09766  0.35319  1.0000
  H   H49       1.0  0.90145  0.01803  0.36757  1.0000
  C   C91       1.0  0.14365  0.93735  0.35523  1.0000
  C   C92       1.0  0.13048  0.97645  0.36035  1.0000
  C   C93       1.0  0.15662  0.00858  0.36166  1.0000
  C   C94       1.0  0.19704  0.00105  0.35374  1.0000
  C   C95       1.0  0.21160  0.96208  0.35031  1.0000
  C   C96       1.0  0.18424  0.93056  0.34933  1.0000
  H   H50       1.0  0.21606  0.02431  0.35381  1.0000
  H   H51       1.0  0.19395  0.90216  0.34942  1.0000
  H   H52       1.0  0.10104  0.98166  0.36474  1.0000
  C   C97       1.0  0.43829  0.64121  0.32374  1.0000
  C   C98       1.0  0.47737  0.62844  0.31877  1.0000
  C   C99       1.0  0.50903  0.65511  0.31848  1.0000
  C   C100      1.0  0.50103  0.69558  0.32666  1.0000
  C   C101      1.0  0.46205  0.70967  0.32945  1.0000
  C   C102      1.0  0.43099  0.68187  0.33003  1.0000
  H   H53       1.0  0.52393  0.71500  0.32705  1.0000
  H   H54       1.0  0.40262  0.69132  0.32939  1.0000
  H   H55       1.0  0.48293  0.59894  0.31404  1.0000
  C   C103      1.0  0.56334  0.35857  0.32150  1.0000
  C   C104      1.0  0.52424  0.37128  0.31620  1.0000
  C   C105      1.0  0.49262  0.34458  0.31564  1.0000
  C   C106      1.0  0.50067  0.30411  0.32394  1.0000
  C   C107      1.0  0.53966  0.29006  0.32699  1.0000
  C   C108      1.0  0.57067  0.31793  0.32785  1.0000
  H   H56       1.0  0.47778  0.28467  0.32417  1.0000
  H   H57       1.0  0.59905  0.30853  0.32758  1.0000
  H   H58       1.0  0.51865  0.40078  0.31164  1.0000
  C   C109      1.0  0.64287  0.56432  0.32450  1.0000
  C   C110      1.0  0.62937  0.52520  0.31953  1.0000
  C   C111      1.0  0.65527  0.49313  0.31793  1.0000
  C   C112      1.0  0.69573  0.50069  0.32567  1.0000
  C   C113      1.0  0.71057  0.53967  0.32872  1.0000
  C   C114      1.0  0.68352  0.57119  0.32999  1.0000
  H   H59       1.0  0.71458  0.47746  0.32529  1.0000
  H   H60       1.0  0.69350  0.59959  0.32943  1.0000
  H   H61       1.0  0.59988  0.51994  0.31530  1.0000
  C   C115      1.0  0.35878  0.43549  0.32183  1.0000
  C   C116      1.0  0.37229  0.47461  0.31721  1.0000
  C   C117      1.0  0.34640  0.50670  0.31634  1.0000
  C   C118      1.0  0.30594  0.49914  0.32405  1.0000
  C   C119      1.0  0.29110  0.46016  0.32670  1.0000
  C   C120      1.0  0.31814  0.42863  0.32746  1.0000
  H   H62       1.0  0.28710  0.52237  0.32416  1.0000
  H   H63       1.0  0.30815  0.40024  0.32684  1.0000
  H   H64       1.0  0.40178  0.47987  0.31298  1.0000
  N   N29       1.0  0.99816  0.46637  0.37765  1.0000
  C   C121      1.0  0.96840  0.49243  0.38385  1.0000
  H   H65       1.0  0.94542  0.48623  0.42528  1.0000
  N   N30       1.0  0.53441  0.99718  0.38046  1.0000
  C   C122      1.0  0.50779  0.96768  0.38724  1.0000
  H   H66       1.0  0.51332  0.94479  0.42956  1.0000
  C   C123      1.0  0.04744  0.25104  0.35134  1.0000
  C   C124      1.0  0.06733  0.33105  0.33607  1.0000
  N   N31       1.0  0.03934  0.31817  0.39377  1.0000
  C   C125      1.0  0.02840  0.27996  0.40469  1.0000
  C   C126      1.0  0.00152  0.27258  0.47493  1.0000
  O   O11       1.0  0.97291  0.29905  0.49016  1.0000
  N   N32       1.0  0.00667  0.24404  0.53679  1.0000
  H   H67       1.0  0.02957  0.22727  0.53593  1.0000
  H   H68       1.0  0.98913  0.24204  0.58791  1.0000
  C   C127      1.0  0.95488  0.74866  0.34938  1.0000
  C   C128      1.0  0.93453  0.66864  0.33580  1.0000
  N   N33       1.0  0.96312  0.68157  0.39186  1.0000
  C   C129      1.0  0.97437  0.71972  0.40180  1.0000
  C   C130      1.0  0.00187  0.72702  0.47080  1.0000
  O   O12       1.0  0.03075  0.70064  0.48406  1.0000
  N   N34       1.0  0.99718  0.75542  0.53319  1.0000
  H   H69       1.0  0.97429  0.77221  0.53344  1.0000
  H   H70       1.0  0.01529  0.75750  0.58324  1.0000
  C   C131      1.0  0.74989  0.04584  0.35281  1.0000
  C   C132      1.0  0.67041  0.06641  0.33847  1.0000
  N   N35       1.0  0.68288  0.03755  0.39439  1.0000
  C   C133      1.0  0.72076  0.02626  0.40483  1.0000
  C   C134      1.0  0.72764  0.99840  0.47341  1.0000
  O   O13       1.0  0.70091  0.96955  0.48653  1.0000
  N   N36       1.0  0.75600  0.00273  0.53583  1.0000
  H   H71       1.0  0.77297  0.02569  0.53656  1.0000
  H   H72       1.0  0.75769  0.98447  0.58580  1.0000
  C   C135      1.0  0.25265  0.95406  0.35047  1.0000
  C   C136      1.0  0.33222  0.93363  0.33748  1.0000
  N   N37       1.0  0.31949  0.96234  0.39345  1.0000
  C   C137      1.0  0.28158  0.97362  0.40312  1.0000
  C   C138      1.0  0.27446  0.00118  0.47219  1.0000
  O   O14       1.0  0.30093  0.03023  0.48568  1.0000
  N   N38       1.0  0.24613  0.99633  0.53447  1.0000
  H   H73       1.0  0.22925  0.97331  0.53454  1.0000
  H   H74       1.0  0.24415  0.01448  0.58460  1.0000
  N   N39       1.0  0.42480  0.76350  0.38475  1.0000
  C   C139      1.0  0.41356  0.80145  0.39276  1.0000
  H   H75       1.0  0.39178  0.80841  0.43676  1.0000
  N   N40       1.0  0.57715  0.23644  0.38252  1.0000
  C   C140      1.0  0.58860  0.19856  0.39078  1.0000
  H   H76       1.0  0.61049  0.19179  0.43464  1.0000
  N   N41       1.0  0.76503  0.57602  0.38466  1.0000
  C   C141      1.0  0.80307  0.58669  0.39294  1.0000
  H   H77       1.0  0.81050  0.60832  0.43735  1.0000
  N   N42       1.0  0.23671  0.42378  0.38284  1.0000
  C   C142      1.0  0.19867  0.41311  0.39134  1.0000
  H   H78       1.0  0.19131  0.39141  0.43562  1.0000
  C   C143      1.0  0.14127  0.04687  0.37503  1.0000
  C   C144      1.0  0.09427  0.11386  0.36627  1.0000
  N   N43       1.0  0.09222  0.08817  0.43568  1.0000
  C   C145      1.0  0.11485  0.05590  0.44589  1.0000
  C   C146      1.0  0.10771  0.03281  0.52361  1.0000
  O   O15       1.0  0.07203  0.03446  0.56267  1.0000
  N   N44       1.0  0.13537  0.01141  0.56569  1.0000
  H   H79       1.0  0.16247  0.01232  0.54674  1.0000
  H   H80       1.0  0.12923  0.99778  0.62128  1.0000
  C   C147      1.0  0.86119  0.95280  0.37617  1.0000
  C   C148      1.0  0.90806  0.88578  0.36555  1.0000
  N   N45       1.0  0.91030  0.91118  0.43549  1.0000
  C   C149      1.0  0.88770  0.94342  0.44665  1.0000
  C   C150      1.0  0.89505  0.96620  0.52475  1.0000
  O   O16       1.0  0.93086  0.96444  0.56316  1.0000
  N   N46       1.0  0.86750  0.98742  0.56765  1.0000
  H   H81       1.0  0.84036  0.98679  0.54888  1.0000
  H   H82       1.0  0.87385  0.00103  0.62316  1.0000
  C   C151      1.0  0.95470  0.13900  0.37702  1.0000
  C   C152      1.0  0.88695  0.09286  0.36801  1.0000
  N   N47       1.0  0.91241  0.09040  0.43757  1.0000
  C   C153      1.0  0.94506  0.11265  0.44794  1.0000
  C   C154      1.0  0.96775  0.10528  0.52589  1.0000
  O   O17       1.0  0.96526  0.06949  0.56510  1.0000
  N   N48       1.0  0.98945  0.13289  0.56823  1.0000
  H   H83       1.0  0.98912  0.16012  0.54919  1.0000
  H   H84       1.0  0.00274  0.12662  0.62403  1.0000
  C   C155      1.0  0.04769  0.86080  0.37317  1.0000
  C   C156      1.0  0.11563  0.90683  0.36427  1.0000
  N   N49       1.0  0.09022  0.90916  0.43396  1.0000
  C   C157      1.0  0.05753  0.88696  0.44432  1.0000
  C   C158      1.0  0.03497  0.89431  0.52249  1.0000
  O   O18       1.0  0.03746  0.93012  0.56160  1.0000
  N   N50       1.0  0.01336  0.86669  0.56496  1.0000
  H   H85       1.0  0.01350  0.83949  0.54572  1.0000
  H   H86       1.0  0.99997  0.87299  0.62062  1.0000
  N   N51       1.0  0.35909  0.57060  0.37413  1.0000
  C   C159      1.0  0.37980  0.60469  0.38026  1.0000
  H   H87       1.0  0.37774  0.62131  0.43711  1.0000
  N   N52       1.0  0.64257  0.42888  0.37404  1.0000
  C   C160      1.0  0.62181  0.39480  0.37921  1.0000
  H   H88       1.0  0.62396  0.37774  0.43536  1.0000
  N   N53       1.0  0.57253  0.64282  0.37659  1.0000
  C   C161      1.0  0.60655  0.62245  0.38242  1.0000
  H   H89       1.0  0.62277  0.62409  0.43985  1.0000
  N   N54       1.0  0.42906  0.35689  0.37398  1.0000
  C   C162      1.0  0.39510  0.37734  0.37983  1.0000
  H   H90       1.0  0.37874  0.37561  0.43706  1.0000
