data_image0
_chemical_formula_structural       C6SiC10H11C3H2C4HNO4C8H5C5H3NO2C6H2C6H4N2O2C6SiC10H11C3H2C4HNO4C8H5C5H3NO2C6H2C6H4N2O2C6SiC10H11C3H2C4HNO4C8H5C5H3NO2C6H2C6H4N2O2C6SiC10H11C3H2C4HNO4C8H5C5H3NO2C6H2C6H4N2O2
_chemical_formula_sum              "C192 Si4 H112 N16 O32"
_cell_length_a       32.7832
_cell_length_b       32.7838
_cell_length_c       15.011
_cell_angle_alpha    90
_cell_angle_beta     90
_cell_angle_gamma    89.9486

_space_group_name_H-M_alt    "P 1"
_space_group_IT_number       1

loop_
  _space_group_symop_operation_xyz
  'x, y, z'

loop_
  _atom_site_type_symbol
  _atom_site_label
  _atom_site_symmetry_multiplicity
  _atom_site_fract_x
  _atom_site_fract_y
  _atom_site_fract_z
  _atom_site_occupancy
  C   C1        1.0  0.99730  0.39774  0.30638  1.0000
  C   C2        1.0  0.03449  0.41078  0.26758  1.0000
  C   C3        1.0  0.03565  0.44357  0.20722  1.0000
  C   C4        1.0  0.99934  0.46322  0.17978  1.0000
  C   C5        1.0  0.46297  0.45325  0.22586  1.0000
  C   C6        1.0  0.46195  0.42102  0.28756  1.0000
  Si  Si1       1.0  0.99901  0.00021  0.10374  1.0000
  C   C7        1.0  0.00199  0.04132  0.16830  1.0000
  C   C8        1.0  0.46676  0.06031  0.20382  1.0000
  C   C9        1.0  0.47001  0.09496  0.25860  1.0000
  C   C10       1.0  0.00861  0.11095  0.28183  1.0000
  C   C11       1.0  0.04382  0.08997  0.25255  1.0000
  C   C12       1.0  0.04054  0.05530  0.19802  1.0000
  C   C13       1.0  0.03604  0.00005  0.02779  1.0000
  C   C14       1.0  0.45793  0.49701  0.03916  1.0000
  C   C15       1.0  0.43917  0.03214  0.00257  1.0000
  C   C16       1.0  0.44378  0.45837  0.01036  1.0000
  H   H1        1.0  0.44954  0.06077  0.01739  1.0000
  H   H2        1.0  0.45753  0.43195  0.03104  1.0000
  H   H3        1.0  0.04729  0.43600  0.02522  1.0000
  H   H4        1.0  0.06701  0.04143  0.17798  1.0000
  H   H5        1.0  0.07228  0.10048  0.26864  1.0000
  H   H6        1.0  0.44381  0.10957  0.27762  1.0000
  H   H7        1.0  0.43815  0.05005  0.18835  1.0000
  H   H8        1.0  0.43609  0.46793  0.21224  1.0000
  H   H9        1.0  0.06332  0.45153  0.18103  1.0000
  H   H10       1.0  0.06092  0.39487  0.27792  1.0000
  H   H11       1.0  0.43450  0.41344  0.31544  1.0000
  C   C17       1.0  0.49930  0.27455  0.39408  1.0000
  C   C18       1.0  0.46481  0.29036  0.34958  1.0000
  C   C19       1.0  0.46262  0.33198  0.32808  1.0000
  H   H12       1.0  0.44378  0.27107  0.32176  1.0000
  H   H13       1.0  0.43978  0.34085  0.28582  1.0000
  C   C20       1.0  0.50832  0.23259  0.38125  1.0000
  C   C21       1.0  0.01180  0.15005  0.32241  1.0000
  C   C22       1.0  0.53482  0.18066  0.27952  1.0000
  C   C23       1.0  0.03297  0.22179  0.30696  1.0000
  H   H14       1.0  0.05064  0.17386  0.22257  1.0000
  N   N1        1.0  0.05310  0.25245  0.25672  1.0000
  O   O1        1.0  0.09098  0.24677  0.25431  1.0000
  O   O2        1.0  0.03973  0.25449  0.17834  1.0000
  O   O3        1.0  0.24478  0.45931  0.02935  1.0000
  O   O4        1.0  0.30368  0.52634  0.30354  1.0000
  C   C24       1.0  0.40452  0.02876  0.61447  1.0000
  C   C25       1.0  0.38835  0.49012  0.59216  1.0000
  C   C26       1.0  0.40917  0.45498  0.62238  1.0000
  C   C27       1.0  0.05538  0.46371  0.66611  1.0000
  C   C28       1.0  0.08825  0.46493  0.60596  1.0000
  C   C29       1.0  0.10151  0.00219  0.56784  1.0000
  C   C30       1.0  0.07842  0.03759  0.58725  1.0000
  C   C31       1.0  0.04625  0.03655  0.64910  1.0000
  H   H15       1.0  0.39006  0.05494  0.59479  1.0000
  H   H16       1.0  0.39855  0.42648  0.60693  1.0000
  H   H17       1.0  0.10400  0.43844  0.59512  1.0000
  H   H18       1.0  0.08619  0.06512  0.55998  1.0000
  H   H19       1.0  0.03171  0.06345  0.66320  1.0000
  C   C32       1.0  0.49462  0.35914  0.35073  1.0000
  C   C33       1.0  0.02703  0.34367  0.40340  1.0000
  C   C34       1.0  0.02960  0.30187  0.42420  1.0000
  C   C35       1.0  0.48608  0.20202  0.42725  1.0000
  C   C36       1.0  0.48824  0.16108  0.39743  1.0000
  H   H20       1.0  0.47097  0.13941  0.42885  1.0000
  H   H21       1.0  0.05109  0.36198  0.42018  1.0000
  H   H22       1.0  0.05588  0.29090  0.45224  1.0000
  N   N2        1.0  0.46115  0.21325  0.50033  1.0000
  O   O5        1.0  0.47232  0.19552  0.57045  1.0000
  O   O6        1.0  0.42431  0.20489  0.48625  1.0000
  C   C37       1.0  0.14018  0.50478  0.52367  1.0000
  C   C38       1.0  0.16747  0.03660  0.54680  1.0000
  C   C39       1.0  0.20905  0.03438  0.52511  1.0000
  C   C40       1.0  0.22474  0.49988  0.48040  1.0000
  C   C41       1.0  0.19733  0.46974  0.44997  1.0000
  C   C42       1.0  0.15549  0.47247  0.47048  1.0000
  H   H23       1.0  0.20818  0.44345  0.42177  1.0000
  H   H24       1.0  0.13713  0.44847  0.45362  1.0000
  C   C43       1.0  0.26665  0.49064  0.49310  1.0000
  C   C44       1.0  0.27744  0.46594  0.56730  1.0000
  C   C45       1.0  0.31858  0.46400  0.59464  1.0000
  C   C46       1.0  0.34923  0.48692  0.55163  1.0000
  C   C47       1.0  0.33822  0.51040  0.47647  1.0000
  C   C48       1.0  0.29726  0.01270  0.44681  1.0000
  H   H25       1.0  0.32536  0.44820  0.65162  1.0000
  H   H26       1.0  0.35991  0.02758  0.44489  1.0000
  H   H27       1.0  0.15863  0.05948  0.58897  1.0000
  H   H28       1.0  0.22844  0.05530  0.55295  1.0000
  N   N3        1.0  0.28606  0.03763  0.37369  1.0000
  N   N4        1.0  0.24673  0.44593  0.61763  1.0000
  O   O7        1.0  0.29459  0.07444  0.38762  1.0000
  O   O8        1.0  0.25229  0.40803  0.62003  1.0000
  C   C49       1.0  0.99731  0.89774  0.30638  1.0000
  C   C50       1.0  0.03449  0.91078  0.26758  1.0000
  C   C51       1.0  0.03565  0.94357  0.20722  1.0000
  C   C52       1.0  0.99934  0.96322  0.17978  1.0000
  C   C53       1.0  0.46297  0.95325  0.22586  1.0000
  C   C54       1.0  0.46195  0.92102  0.28756  1.0000
  Si  Si2       1.0  0.99901  0.50021  0.10374  1.0000
  C   C55       1.0  0.00199  0.54132  0.16830  1.0000
  C   C56       1.0  0.46676  0.56031  0.20382  1.0000
  C   C57       1.0  0.47001  0.59496  0.25860  1.0000
  C   C58       1.0  0.00861  0.61095  0.28183  1.0000
  C   C59       1.0  0.04382  0.58996  0.25255  1.0000
  C   C60       1.0  0.04054  0.55530  0.19802  1.0000
  C   C61       1.0  0.03604  0.50005  0.02779  1.0000
  C   C62       1.0  0.45793  0.99701  0.03916  1.0000
  C   C63       1.0  0.43917  0.53214  0.00257  1.0000
  C   C64       1.0  0.44378  0.95837  0.01036  1.0000
  H   H29       1.0  0.44954  0.56077  0.01739  1.0000
  H   H30       1.0  0.45753  0.93195  0.03104  1.0000
  H   H31       1.0  0.04729  0.93600  0.02522  1.0000
  H   H32       1.0  0.06701  0.54143  0.17798  1.0000
  H   H33       1.0  0.07228  0.60048  0.26864  1.0000
  H   H34       1.0  0.44381  0.60957  0.27762  1.0000
  H   H35       1.0  0.43815  0.55005  0.18835  1.0000
  H   H36       1.0  0.43609  0.96793  0.21224  1.0000
  H   H37       1.0  0.06332  0.95153  0.18103  1.0000
  H   H38       1.0  0.06092  0.89487  0.27792  1.0000
  H   H39       1.0  0.43450  0.91344  0.31544  1.0000
  C   C65       1.0  0.49930  0.77455  0.39408  1.0000
  C   C66       1.0  0.46481  0.79036  0.34958  1.0000
  C   C67       1.0  0.46262  0.83198  0.32808  1.0000
  H   H40       1.0  0.44378  0.77107  0.32176  1.0000
  H   H41       1.0  0.43978  0.84084  0.28582  1.0000
  C   C68       1.0  0.50832  0.73259  0.38125  1.0000
  C   C69       1.0  0.01180  0.65005  0.32241  1.0000
  C   C70       1.0  0.53482  0.68066  0.27952  1.0000
  C   C71       1.0  0.03297  0.72178  0.30696  1.0000
  H   H42       1.0  0.05064  0.67386  0.22257  1.0000
  N   N5        1.0  0.05310  0.75245  0.25672  1.0000
  O   O9        1.0  0.09098  0.74677  0.25431  1.0000
  O   O10       1.0  0.03973  0.75449  0.17834  1.0000
  O   O11       1.0  0.24478  0.95931  0.02935  1.0000
  O   O12       1.0  0.30368  0.02634  0.30354  1.0000
  C   C72       1.0  0.40453  0.52876  0.61447  1.0000
  C   C73       1.0  0.38835  0.99012  0.59216  1.0000
  C   C74       1.0  0.40916  0.95498  0.62238  1.0000
  C   C75       1.0  0.05538  0.96371  0.66611  1.0000
  C   C76       1.0  0.08825  0.96493  0.60596  1.0000
  C   C77       1.0  0.10151  0.50219  0.56784  1.0000
  C   C78       1.0  0.07842  0.53759  0.58725  1.0000
  C   C79       1.0  0.04625  0.53655  0.64910  1.0000
  H   H43       1.0  0.39006  0.55494  0.59479  1.0000
  H   H44       1.0  0.39855  0.92648  0.60693  1.0000
  H   H45       1.0  0.10400  0.93844  0.59512  1.0000
  H   H46       1.0  0.08619  0.56512  0.55998  1.0000
  H   H47       1.0  0.03171  0.56345  0.66320  1.0000
  C   C80       1.0  0.49462  0.85914  0.35073  1.0000
  C   C81       1.0  0.02703  0.84367  0.40340  1.0000
  C   C82       1.0  0.02960  0.80187  0.42420  1.0000
  C   C83       1.0  0.48608  0.70202  0.42725  1.0000
  C   C84       1.0  0.48824  0.66108  0.39743  1.0000
  H   H48       1.0  0.47097  0.63941  0.42885  1.0000
  H   H49       1.0  0.05109  0.86198  0.42018  1.0000
  H   H50       1.0  0.05588  0.79090  0.45224  1.0000
  N   N6        1.0  0.46115  0.71325  0.50033  1.0000
  O   O13       1.0  0.47232  0.69552  0.57045  1.0000
  O   O14       1.0  0.42431  0.70489  0.48625  1.0000
  C   C85       1.0  0.14018  0.00478  0.52367  1.0000
  C   C86       1.0  0.16747  0.53660  0.54680  1.0000
  C   C87       1.0  0.20905  0.53437  0.52511  1.0000
  C   C88       1.0  0.22473  0.99989  0.48040  1.0000
  C   C89       1.0  0.19733  0.96974  0.44997  1.0000
  C   C90       1.0  0.15549  0.97247  0.47048  1.0000
  H   H51       1.0  0.20818  0.94345  0.42177  1.0000
  H   H52       1.0  0.13713  0.94847  0.45362  1.0000
  C   C91       1.0  0.26665  0.99064  0.49310  1.0000
  C   C92       1.0  0.27744  0.96594  0.56730  1.0000
  C   C93       1.0  0.31858  0.96400  0.59464  1.0000
  C   C94       1.0  0.34923  0.98692  0.55163  1.0000
  C   C95       1.0  0.33822  0.01040  0.47647  1.0000
  C   C96       1.0  0.29726  0.51270  0.44681  1.0000
  H   H53       1.0  0.32536  0.94820  0.65162  1.0000
  H   H54       1.0  0.35991  0.52758  0.44489  1.0000
  H   H55       1.0  0.15863  0.55948  0.58897  1.0000
  H   H56       1.0  0.22844  0.55530  0.55295  1.0000
  N   N7        1.0  0.28606  0.53763  0.37369  1.0000
  N   N8        1.0  0.24673  0.94593  0.61763  1.0000
  O   O15       1.0  0.29459  0.57444  0.38762  1.0000
  O   O16       1.0  0.25229  0.90802  0.62003  1.0000
  C   C97       1.0  0.49730  0.39774  0.30638  1.0000
  C   C98       1.0  0.53449  0.41078  0.26758  1.0000
  C   C99       1.0  0.53565  0.44357  0.20722  1.0000
  C   C100      1.0  0.49934  0.46322  0.17978  1.0000
  C   C101      1.0  0.96297  0.45325  0.22586  1.0000
  C   C102      1.0  0.96195  0.42102  0.28756  1.0000
  Si  Si3       1.0  0.49901  0.00021  0.10374  1.0000
  C   C103      1.0  0.50199  0.04132  0.16830  1.0000
  C   C104      1.0  0.96676  0.06031  0.20382  1.0000
  C   C105      1.0  0.97001  0.09496  0.25860  1.0000
  C   C106      1.0  0.50862  0.11095  0.28183  1.0000
  C   C107      1.0  0.54382  0.08997  0.25255  1.0000
  C   C108      1.0  0.54055  0.05530  0.19802  1.0000
  C   C109      1.0  0.53604  0.00005  0.02779  1.0000
  C   C110      1.0  0.95793  0.49701  0.03916  1.0000
  C   C111      1.0  0.93917  0.03214  0.00257  1.0000
  C   C112      1.0  0.94378  0.45837  0.01036  1.0000
  H   H57       1.0  0.94954  0.06077  0.01739  1.0000
  H   H58       1.0  0.95753  0.43195  0.03104  1.0000
  H   H59       1.0  0.54729  0.43600  0.02522  1.0000
  H   H60       1.0  0.56701  0.04143  0.17798  1.0000
  H   H61       1.0  0.57228  0.10048  0.26864  1.0000
  H   H62       1.0  0.94381  0.10957  0.27762  1.0000
  H   H63       1.0  0.93815  0.05005  0.18835  1.0000
  H   H64       1.0  0.93609  0.46793  0.21224  1.0000
  H   H65       1.0  0.56332  0.45153  0.18103  1.0000
  H   H66       1.0  0.56092  0.39487  0.27792  1.0000
  H   H67       1.0  0.93449  0.41344  0.31544  1.0000
  C   C113      1.0  0.99931  0.27455  0.39408  1.0000
  C   C114      1.0  0.96481  0.29036  0.34958  1.0000
  C   C115      1.0  0.96262  0.33198  0.32808  1.0000
  H   H68       1.0  0.94378  0.27107  0.32176  1.0000
  H   H69       1.0  0.93978  0.34085  0.28582  1.0000
  C   C116      1.0  0.00832  0.23259  0.38125  1.0000
  C   C117      1.0  0.51180  0.15005  0.32241  1.0000
  C   C118      1.0  0.03482  0.18066  0.27952  1.0000
  C   C119      1.0  0.53297  0.22179  0.30696  1.0000
  H   H70       1.0  0.55064  0.17386  0.22257  1.0000
  N   N9        1.0  0.55310  0.25245  0.25672  1.0000
  O   O17       1.0  0.59098  0.24677  0.25431  1.0000
  O   O18       1.0  0.53973  0.25449  0.17834  1.0000
  O   O19       1.0  0.74478  0.45931  0.02935  1.0000
  O   O20       1.0  0.80368  0.52634  0.30354  1.0000
  C   C120      1.0  0.90452  0.02876  0.61447  1.0000
  C   C121      1.0  0.88835  0.49012  0.59216  1.0000
  C   C122      1.0  0.90917  0.45498  0.62238  1.0000
  C   C123      1.0  0.55538  0.46371  0.66611  1.0000
  C   C124      1.0  0.58825  0.46493  0.60596  1.0000
  C   C125      1.0  0.60151  0.00219  0.56784  1.0000
  C   C126      1.0  0.57842  0.03759  0.58725  1.0000
  C   C127      1.0  0.54625  0.03655  0.64910  1.0000
  H   H71       1.0  0.89006  0.05494  0.59479  1.0000
  H   H72       1.0  0.89855  0.42648  0.60693  1.0000
  H   H73       1.0  0.60400  0.43844  0.59512  1.0000
  H   H74       1.0  0.58619  0.06512  0.55998  1.0000
  H   H75       1.0  0.53171  0.06345  0.66320  1.0000
  C   C128      1.0  0.99462  0.35914  0.35073  1.0000
  C   C129      1.0  0.52703  0.34367  0.40340  1.0000
  C   C130      1.0  0.52960  0.30187  0.42420  1.0000
  C   C131      1.0  0.98608  0.20202  0.42725  1.0000
  C   C132      1.0  0.98824  0.16108  0.39743  1.0000
  H   H76       1.0  0.97097  0.13941  0.42885  1.0000
  H   H77       1.0  0.55109  0.36198  0.42018  1.0000
  H   H78       1.0  0.55588  0.29090  0.45224  1.0000
  N   N10       1.0  0.96115  0.21325  0.50033  1.0000
  O   O21       1.0  0.97232  0.19552  0.57045  1.0000
  O   O22       1.0  0.92431  0.20489  0.48625  1.0000
  C   C133      1.0  0.64018  0.50478  0.52367  1.0000
  C   C134      1.0  0.66747  0.03660  0.54680  1.0000
  C   C135      1.0  0.70905  0.03438  0.52511  1.0000
  C   C136      1.0  0.72473  0.49988  0.48040  1.0000
  C   C137      1.0  0.69733  0.46974  0.44997  1.0000
  C   C138      1.0  0.65549  0.47247  0.47048  1.0000
  H   H79       1.0  0.70818  0.44345  0.42177  1.0000
  H   H80       1.0  0.63713  0.44847  0.45362  1.0000
  C   C139      1.0  0.76665  0.49064  0.49310  1.0000
  C   C140      1.0  0.77744  0.46594  0.56730  1.0000
  C   C141      1.0  0.81858  0.46400  0.59464  1.0000
  C   C142      1.0  0.84923  0.48692  0.55163  1.0000
  C   C143      1.0  0.83822  0.51040  0.47647  1.0000
  C   C144      1.0  0.79726  0.01270  0.44681  1.0000
  H   H81       1.0  0.82536  0.44820  0.65162  1.0000
  H   H82       1.0  0.85991  0.02758  0.44489  1.0000
  H   H83       1.0  0.65863  0.05948  0.58897  1.0000
  H   H84       1.0  0.72844  0.05530  0.55295  1.0000
  N   N11       1.0  0.78606  0.03763  0.37369  1.0000
  N   N12       1.0  0.74673  0.44593  0.61763  1.0000
  O   O23       1.0  0.79459  0.07444  0.38762  1.0000
  O   O24       1.0  0.75229  0.40803  0.62003  1.0000
  C   C145      1.0  0.49731  0.89774  0.30638  1.0000
  C   C146      1.0  0.53449  0.91078  0.26758  1.0000
  C   C147      1.0  0.53565  0.94357  0.20722  1.0000
  C   C148      1.0  0.49934  0.96322  0.17978  1.0000
  C   C149      1.0  0.96297  0.95325  0.22586  1.0000
  C   C150      1.0  0.96195  0.92102  0.28756  1.0000
  Si  Si4       1.0  0.49901  0.50021  0.10374  1.0000
  C   C151      1.0  0.50199  0.54132  0.16830  1.0000
  C   C152      1.0  0.96676  0.56031  0.20382  1.0000
  C   C153      1.0  0.97001  0.59496  0.25860  1.0000
  C   C154      1.0  0.50862  0.61095  0.28183  1.0000
  C   C155      1.0  0.54382  0.58996  0.25255  1.0000
  C   C156      1.0  0.54054  0.55530  0.19802  1.0000
  C   C157      1.0  0.53604  0.50005  0.02779  1.0000
  C   C158      1.0  0.95793  0.99701  0.03916  1.0000
  C   C159      1.0  0.93917  0.53214  0.00257  1.0000
  C   C160      1.0  0.94378  0.95837  0.01036  1.0000
  H   H85       1.0  0.94954  0.56077  0.01739  1.0000
  H   H86       1.0  0.95753  0.93195  0.03104  1.0000
  H   H87       1.0  0.54729  0.93600  0.02522  1.0000
  H   H88       1.0  0.56701  0.54143  0.17798  1.0000
  H   H89       1.0  0.57228  0.60048  0.26864  1.0000
  H   H90       1.0  0.94381  0.60957  0.27762  1.0000
  H   H91       1.0  0.93815  0.55005  0.18835  1.0000
  H   H92       1.0  0.93609  0.96793  0.21224  1.0000
  H   H93       1.0  0.56332  0.95153  0.18103  1.0000
  H   H94       1.0  0.56092  0.89487  0.27792  1.0000
  H   H95       1.0  0.93449  0.91344  0.31544  1.0000
  C   C161      1.0  0.99931  0.77455  0.39408  1.0000
  C   C162      1.0  0.96481  0.79036  0.34958  1.0000
  C   C163      1.0  0.96262  0.83198  0.32808  1.0000
  H   H96       1.0  0.94378  0.77107  0.32176  1.0000
  H   H97       1.0  0.93978  0.84084  0.28582  1.0000
  C   C164      1.0  0.00832  0.73259  0.38125  1.0000
  C   C165      1.0  0.51180  0.65005  0.32241  1.0000
  C   C166      1.0  0.03482  0.68066  0.27952  1.0000
  C   C167      1.0  0.53297  0.72178  0.30696  1.0000
  H   H98       1.0  0.55064  0.67386  0.22257  1.0000
  N   N13       1.0  0.55310  0.75245  0.25672  1.0000
  O   O25       1.0  0.59098  0.74677  0.25431  1.0000
  O   O26       1.0  0.53973  0.75449  0.17834  1.0000
  O   O27       1.0  0.74478  0.95931  0.02935  1.0000
  O   O28       1.0  0.80368  0.02634  0.30354  1.0000
  C   C168      1.0  0.90453  0.52876  0.61447  1.0000
  C   C169      1.0  0.88835  0.99012  0.59216  1.0000
  C   C170      1.0  0.90917  0.95498  0.62238  1.0000
  C   C171      1.0  0.55538  0.96371  0.66611  1.0000
  C   C172      1.0  0.58825  0.96493  0.60596  1.0000
  C   C173      1.0  0.60151  0.50219  0.56784  1.0000
  C   C174      1.0  0.57842  0.53759  0.58725  1.0000
  C   C175      1.0  0.54625  0.53655  0.64910  1.0000
  H   H99       1.0  0.89006  0.55494  0.59479  1.0000
  H   H100      1.0  0.89855  0.92648  0.60693  1.0000
  H   H101      1.0  0.60400  0.93844  0.59512  1.0000
  H   H102      1.0  0.58619  0.56512  0.55998  1.0000
  H   H103      1.0  0.53171  0.56345  0.66320  1.0000
  C   C176      1.0  0.99462  0.85914  0.35073  1.0000
  C   C177      1.0  0.52703  0.84367  0.40340  1.0000
  C   C178      1.0  0.52960  0.80187  0.42420  1.0000
  C   C179      1.0  0.98608  0.70202  0.42725  1.0000
  C   C180      1.0  0.98824  0.66108  0.39743  1.0000
  H   H104      1.0  0.97097  0.63941  0.42885  1.0000
  H   H105      1.0  0.55109  0.86198  0.42018  1.0000
  H   H106      1.0  0.55588  0.79090  0.45224  1.0000
  N   N14       1.0  0.96115  0.71325  0.50033  1.0000
  O   O29       1.0  0.97232  0.69552  0.57045  1.0000
  O   O30       1.0  0.92431  0.70489  0.48625  1.0000
  C   C181      1.0  0.64018  0.00478  0.52367  1.0000
  C   C182      1.0  0.66747  0.53660  0.54680  1.0000
  C   C183      1.0  0.70905  0.53437  0.52511  1.0000
  C   C184      1.0  0.72473  0.99989  0.48040  1.0000
  C   C185      1.0  0.69733  0.96974  0.44997  1.0000
  C   C186      1.0  0.65549  0.97247  0.47048  1.0000
  H   H107      1.0  0.70818  0.94345  0.42177  1.0000
  H   H108      1.0  0.63713  0.94847  0.45362  1.0000
  C   C187      1.0  0.76665  0.99064  0.49310  1.0000
  C   C188      1.0  0.77744  0.96594  0.56730  1.0000
  C   C189      1.0  0.81858  0.96400  0.59464  1.0000
  C   C190      1.0  0.84923  0.98692  0.55163  1.0000
  C   C191      1.0  0.83822  0.01040  0.47647  1.0000
  C   C192      1.0  0.79726  0.51270  0.44681  1.0000
  H   H109      1.0  0.82536  0.94820  0.65162  1.0000
  H   H110      1.0  0.85991  0.52758  0.44489  1.0000
  H   H111      1.0  0.65863  0.55948  0.58897  1.0000
  H   H112      1.0  0.72844  0.55530  0.55295  1.0000
  N   N15       1.0  0.78606  0.53763  0.37369  1.0000
  N   N16       1.0  0.74673  0.94593  0.61763  1.0000
  O   O31       1.0  0.79459  0.57444  0.38762  1.0000
  O   O32       1.0  0.75230  0.90802  0.62003  1.0000
