data_image0
_chemical_formula_structural       CNCHNHCNCHNHCNCHNHCNCNCNC18H12C3O3CNCNCNC18H12C3O3C2NOCH3NHC2NOCH3NHC2NOCH3NH
_chemical_formula_sum              "C63 N18 H42 O9"
_cell_length_a       36.601
_cell_length_b       36.6005
_cell_length_c       15.0752
_cell_angle_alpha    90
_cell_angle_beta     90
_cell_angle_gamma    120

_space_group_name_H-M_alt    "P 1"
_space_group_IT_number       1

loop_
  _space_group_symop_operation_xyz
  'x, y, z'

loop_
  _atom_site_type_symbol
  _atom_site_label
  _atom_site_symmetry_multiplicity
  _atom_site_fract_x
  _atom_site_fract_y
  _atom_site_fract_z
  _atom_site_occupancy
  C   C1        1.0  0.51802  0.49447  0.26553  1.0000
  N   N1        1.0  0.49196  0.51004  0.25037  1.0000
  C   C2        1.0  0.46427  0.50842  0.31238  1.0000
  H   H1        1.0  0.53661  0.49489  0.21462  1.0000
  N   N2        1.0  0.44057  0.52667  0.29427  1.0000
  H   H2        1.0  0.44918  0.54526  0.24269  1.0000
  C   C3        1.0  0.49930  0.02231  0.26553  1.0000
  N   N3        1.0  0.48374  0.98068  0.25035  1.0000
  C   C4        1.0  0.48535  0.95461  0.31236  1.0000
  H   H3        1.0  0.49888  0.04048  0.21463  1.0000
  N   N4        1.0  0.46712  0.91265  0.29423  1.0000
  H   H4        1.0  0.44855  0.90268  0.24260  1.0000
  C   C5        1.0  0.97146  0.47575  0.26548  1.0000
  N   N5        1.0  0.01310  0.50181  0.25033  1.0000
  C   C6        1.0  0.03916  0.52949  0.31235  1.0000
  H   H5        1.0  0.95330  0.45716  0.21456  1.0000
  N   N6        1.0  0.08111  0.55319  0.29426  1.0000
  H   H6        1.0  0.09109  0.54459  0.24266  1.0000
  C   C7        1.0  0.28690  0.64958  0.31574  1.0000
  N   N7        1.0  0.30226  0.62261  0.31603  1.0000
  C   C8        1.0  0.34418  0.63607  0.31577  1.0000
  N   N8        1.0  0.37115  0.67839  0.31603  1.0000
  C   C9        1.0  0.35770  0.70687  0.31573  1.0000
  N   N9        1.0  0.31537  0.69151  0.31601  1.0000
  C   C10       1.0  0.35933  0.60715  0.31866  1.0000
  C   C11       1.0  0.33190  0.56365  0.33549  1.0000
  C   C12       1.0  0.34747  0.53559  0.34262  1.0000
  C   C13       1.0  0.39089  0.54997  0.33121  1.0000
  C   C14       1.0  0.41829  0.59327  0.31367  1.0000
  C   C15       1.0  0.40280  0.62134  0.30756  1.0000
  C   C16       1.0  0.24283  0.63443  0.31862  1.0000
  C   C17       1.0  0.21355  0.59096  0.30748  1.0000
  C   C18       1.0  0.16999  0.57547  0.31355  1.0000
  C   C19       1.0  0.15410  0.60287  0.33117  1.0000
  C   C20       1.0  0.18313  0.64628  0.34263  1.0000
  C   C21       1.0  0.22677  0.66187  0.33549  1.0000
  C   C22       1.0  0.38662  0.75094  0.31862  1.0000
  C   C23       1.0  0.37244  0.78022  0.30746  1.0000
  C   C24       1.0  0.40050  0.82377  0.31351  1.0000
  C   C25       1.0  0.44379  0.83967  0.33115  1.0000
  C   C26       1.0  0.45817  0.81063  0.34263  1.0000
  C   C27       1.0  0.43011  0.76699  0.33546  1.0000
  H   H7        1.0  0.15015  0.54360  0.30817  1.0000
  H   H8        1.0  0.22348  0.56977  0.29582  1.0000
  H   H9        1.0  0.17278  0.66702  0.35605  1.0000
  H   H10       1.0  0.24667  0.69347  0.34504  1.0000
  H   H11       1.0  0.34131  0.77029  0.29574  1.0000
  H   H12       1.0  0.38849  0.84363  0.30805  1.0000
  H   H13       1.0  0.44181  0.74709  0.34508  1.0000
  H   H14       1.0  0.48925  0.82098  0.35605  1.0000
  H   H15       1.0  0.42400  0.65247  0.29590  1.0000
  H   H16       1.0  0.45016  0.60529  0.30823  1.0000
  H   H17       1.0  0.32674  0.50450  0.35598  1.0000
  H   H18       1.0  0.30029  0.55195  0.34499  1.0000
  C   C28       1.0  0.11017  0.58651  0.34272  1.0000
  C   C29       1.0  0.47137  0.88359  0.34267  1.0000
  C   C30       1.0  0.40725  0.52240  0.34272  1.0000
  O   O1        1.0  0.38950  0.49242  0.40643  1.0000
  O   O2        1.0  0.50129  0.89582  0.40651  1.0000
  O   O3        1.0  0.09793  0.60424  0.40645  1.0000
  C   C31       1.0  0.70585  0.34663  0.33033  1.0000
  N   N10       1.0  0.68930  0.37259  0.33040  1.0000
  C   C32       1.0  0.64714  0.35797  0.33036  1.0000
  N   N11       1.0  0.62118  0.31546  0.33044  1.0000
  C   C33       1.0  0.63580  0.28792  0.33038  1.0000
  N   N12       1.0  0.67831  0.30447  0.33040  1.0000
  C   C34       1.0  0.63076  0.38592  0.33067  1.0000
  C   C35       1.0  0.65736  0.43003  0.34141  1.0000
  C   C36       1.0  0.64077  0.45738  0.34215  1.0000
  C   C37       1.0  0.59695  0.44147  0.33310  1.0000
  C   C38       1.0  0.57047  0.39756  0.32064  1.0000
  C   C39       1.0  0.58702  0.37031  0.31982  1.0000
  C   C40       1.0  0.75017  0.36300  0.33058  1.0000
  C   C41       1.0  0.77831  0.40675  0.31966  1.0000
  C   C42       1.0  0.82211  0.42330  0.32041  1.0000
  C   C43       1.0  0.83954  0.39682  0.33295  1.0000
  C   C44       1.0  0.81162  0.35300  0.34207  1.0000
  C   C45       1.0  0.76768  0.33641  0.34135  1.0000
  C   C46       1.0  0.60784  0.24359  0.33069  1.0000
  C   C47       1.0  0.62346  0.21546  0.31984  1.0000
  C   C48       1.0  0.59620  0.17165  0.32062  1.0000
  C   C49       1.0  0.55229  0.15422  0.33312  1.0000
  C   C50       1.0  0.53639  0.18215  0.34217  1.0000
  C   C51       1.0  0.56374  0.22609  0.34144  1.0000
  H   H19       1.0  0.84107  0.45498  0.30974  1.0000
  H   H20       1.0  0.76736  0.42727  0.30997  1.0000
  H   H21       1.0  0.82299  0.33275  0.35077  1.0000
  H   H22       1.0  0.74867  0.30456  0.34941  1.0000
  H   H23       1.0  0.65492  0.22640  0.31010  1.0000
  H   H24       1.0  0.60892  0.15269  0.30991  1.0000
  H   H25       1.0  0.55090  0.24510  0.34943  1.0000
  H   H26       1.0  0.50477  0.17079  0.35083  1.0000
  H   H27       1.0  0.56650  0.33884  0.31010  1.0000
  H   H28       1.0  0.53879  0.38484  0.30989  1.0000
  H   H29       1.0  0.66102  0.48899  0.35079  1.0000
  H   H30       1.0  0.68922  0.44288  0.34941  1.0000
  C   C52       1.0  0.88395  0.41390  0.33180  1.0000
  C   C53       1.0  0.52496  0.10981  0.33191  1.0000
  C   C54       1.0  0.57986  0.46880  0.33189  1.0000
  O   O4        1.0  0.60418  0.50836  0.29966  1.0000
  O   O5        1.0  0.48540  0.09457  0.29967  1.0000
  O   O6        1.0  0.89920  0.38959  0.29961  1.0000
  C   C55       1.0  0.48889  0.47506  0.41245  1.0000
  C   C56       1.0  0.51781  0.47633  0.34848  1.0000
  N   N13       1.0  0.46346  0.49097  0.39245  1.0000
  O   O7        1.0  0.48490  0.45704  0.49401  1.0000
  C   C57       1.0  0.50658  0.48747  0.56302  1.0000
  H   H31       1.0  0.54038  0.50613  0.54972  1.0000
  H   H32       1.0  0.50220  0.47042  0.62505  1.0000
  H   H33       1.0  0.49366  0.50850  0.57157  1.0000
  N   N14       1.0  0.54047  0.45648  0.36330  1.0000
  H   H34       1.0  0.52655  0.43074  0.39867  1.0000
  C   C58       1.0  0.51870  0.01258  0.41245  1.0000
  C   C59       1.0  0.51743  0.04023  0.34849  1.0000
  N   N15       1.0  0.50279  0.97123  0.39244  1.0000
  O   O8        1.0  0.53671  0.02660  0.49402  1.0000
  C   C60       1.0  0.50628  0.01785  0.56302  1.0000
  H   H35       1.0  0.48762  0.03299  0.54972  1.0000
  H   H36       1.0  0.52333  0.03051  0.62506  1.0000
  H   H37       1.0  0.48526  0.98390  0.57157  1.0000
  N   N16       1.0  0.53728  0.08274  0.36332  1.0000
  H   H38       1.0  0.56302  0.09457  0.39869  1.0000
  C   C61       1.0  0.98117  0.50487  0.41240  1.0000
  C   C62       1.0  0.95353  0.47596  0.34842  1.0000
  N   N17       1.0  0.02252  0.53030  0.39242  1.0000
  O   O9        1.0  0.96713  0.50886  0.49395  1.0000
  C   C63       1.0  0.97588  0.48718  0.56296  1.0000
  H   H39       1.0  0.96074  0.45338  0.54967  1.0000
  H   H40       1.0  0.96320  0.49155  0.62500  1.0000
  H   H41       1.0  0.00982  0.50010  0.57154  1.0000
  N   N18       1.0  0.91101  0.45329  0.36322  1.0000
  H   H42       1.0  0.89918  0.46721  0.39856  1.0000
