data_image0
_chemical_formula_structural       HCH3CH2C6H4NC6H4NC2H2C2H2C2H2C2H2C6H4NC6H4NC2H2C2H2C2H2C2H2C4H4C4H4C6H3C6H3C4H4C6H3C6H3C4H4C6H3C6H3C4H4C6H2C6H3C3H2C6H2C6H3C3H2C4H2C2H2NC4H2C2H2NC8H4N2C8H4N2C4H2C2H2NC4H2C2H2NC8H4N2C8H4N2C4H2C4H2N2C4H2C4H2N2
_chemical_formula_sum              "H130 C200 N20"
_cell_length_a       40.8761
_cell_length_b       51.8645
_cell_length_c       15.0018
_cell_angle_alpha    88.8794
_cell_angle_beta     90.8896
_cell_angle_gamma    90.2474

_space_group_name_H-M_alt    "P 1"
_space_group_IT_number       1

loop_
  _space_group_symop_operation_xyz
  'x, y, z'

loop_
  _atom_site_type_symbol
  _atom_site_label
  _atom_site_symmetry_multiplicity
  _atom_site_fract_x
  _atom_site_fract_y
  _atom_site_fract_z
  _atom_site_occupancy
  H   H1        1.0  0.77231  0.35796  0.32935  1.0000
  C   C1        1.0  0.83246  0.33837  0.33511  1.0000
  H   H2        1.0  0.83135  0.35352  0.29349  1.0000
  H   H3        1.0  0.62137  0.31782  0.30137  1.0000
  H   H4        1.0  0.17294  0.67478  0.32765  1.0000
  C   C2        1.0  0.11271  0.69429  0.33221  1.0000
  H   H5        1.0  0.11398  0.67943  0.29169  1.0000
  H   H6        1.0  0.32341  0.71539  0.30223  1.0000
  C   C3        1.0  0.10713  0.10051  0.23632  1.0000
  C   C4        1.0  0.12213  0.12495  0.23428  1.0000
  C   C5        1.0  0.13909  0.16461  0.31126  1.0000
  C   C6        1.0  0.12472  0.18305  0.25212  1.0000
  C   C7        1.0  0.13362  0.20921  0.25603  1.0000
  C   C8        1.0  0.15740  0.21753  0.31821  1.0000
  H   H7        1.0  0.10632  0.17789  0.20889  1.0000
  H   H8        1.0  0.12185  0.22226  0.21483  1.0000
  H   H9        1.0  0.10311  0.09122  0.17764  1.0000
  H   H10       1.0  0.12868  0.13278  0.17395  1.0000
  N   N1        1.0  0.16214  0.24271  0.32352  1.0000
  C   C9        1.0  0.83744  0.93301  0.23686  1.0000
  C   C10       1.0  0.82243  0.90859  0.23492  1.0000
  C   C11       1.0  0.80624  0.86813  0.31212  1.0000
  C   C12       1.0  0.82006  0.85030  0.25338  1.0000
  C   C13       1.0  0.81114  0.82412  0.25725  1.0000
  C   C14       1.0  0.78797  0.81515  0.31922  1.0000
  H   H11       1.0  0.83799  0.85593  0.21018  1.0000
  H   H12       1.0  0.82250  0.81150  0.21624  1.0000
  H   H13       1.0  0.84091  0.94291  0.17813  1.0000
  H   H14       1.0  0.81532  0.90138  0.17458  1.0000
  N   N2        1.0  0.78321  0.78991  0.32448  1.0000
  C   C15       1.0  0.83105  0.13513  0.29587  1.0000
  C   C16       1.0  0.84684  0.11132  0.28711  1.0000
  H   H15       1.0  0.82883  0.14687  0.24052  1.0000
  H   H16       1.0  0.85518  0.10628  0.22587  1.0000
  C   C17       1.0  0.77448  0.20469  0.32753  1.0000
  C   C18       1.0  0.78434  0.17879  0.32459  1.0000
  H   H17       1.0  0.75979  0.21204  0.27738  1.0000
  H   H18       1.0  0.77607  0.16788  0.27272  1.0000
  C   C19       1.0  0.11578  0.89799  0.29679  1.0000
  C   C20       1.0  0.09987  0.92188  0.28756  1.0000
  H   H19       1.0  0.11780  0.88694  0.24138  1.0000
  H   H20       1.0  0.09123  0.92767  0.22596  1.0000
  C   C21       1.0  0.17242  0.82796  0.33103  1.0000
  C   C22       1.0  0.16261  0.85391  0.32779  1.0000
  H   H21       1.0  0.18704  0.82124  0.28184  1.0000
  H   H22       1.0  0.17085  0.86548  0.27680  1.0000
  C   C23       1.0  0.26116  0.46252  0.23446  1.0000
  C   C24       1.0  0.25975  0.48945  0.24343  1.0000
  C   C25       1.0  0.27037  0.52848  0.33157  1.0000
  C   C26       1.0  0.27989  0.54583  0.26274  1.0000
  C   C27       1.0  0.27896  0.57262  0.27509  1.0000
  C   C28       1.0  0.26837  0.58276  0.35621  1.0000
  H   H23       1.0  0.28847  0.53912  0.20384  1.0000
  H   H24       1.0  0.28643  0.58470  0.22446  1.0000
  H   H25       1.0  0.25110  0.45444  0.17878  1.0000
  H   H26       1.0  0.24849  0.50020  0.19404  1.0000
  N   N3        1.0  0.26845  0.60822  0.36249  1.0000
  C   C29       1.0  0.68319  0.57126  0.23467  1.0000
  C   C30       1.0  0.68476  0.54423  0.24368  1.0000
  C   C31       1.0  0.67513  0.50419  0.33177  1.0000
  C   C32       1.0  0.66489  0.48762  0.26287  1.0000
  C   C33       1.0  0.66595  0.46069  0.27523  1.0000
  C   C34       1.0  0.67735  0.44963  0.35647  1.0000
  H   H27       1.0  0.65574  0.49499  0.20386  1.0000
  H   H28       1.0  0.65796  0.44919  0.22455  1.0000
  H   H29       1.0  0.69267  0.57998  0.17906  1.0000
  H   H30       1.0  0.69556  0.53405  0.19441  1.0000
  N   N4        1.0  0.67727  0.42411  0.36281  1.0000
  C   C35       1.0  0.94020  0.34067  0.30859  1.0000
  C   C36       1.0  0.90569  0.34094  0.30794  1.0000
  H   H31       1.0  0.95192  0.33983  0.24894  1.0000
  H   H32       1.0  0.89335  0.34048  0.24815  1.0000
  C   C37       1.0  0.04775  0.34925  0.33549  1.0000
  C   C38       1.0  0.01352  0.35268  0.33562  1.0000
  H   H33       1.0  0.06151  0.36028  0.29295  1.0000
  H   H34       1.0  0.00347  0.36660  0.29451  1.0000
  C   C39       1.0  0.00478  0.69212  0.30735  1.0000
  C   C40       1.0  0.03928  0.69184  0.30632  1.0000
  H   H35       1.0  0.99230  0.69363  0.24782  1.0000
  H   H36       1.0  0.05084  0.69296  0.24639  1.0000
  C   C41       1.0  0.89758  0.68317  0.33517  1.0000
  C   C42       1.0  0.93181  0.67975  0.33501  1.0000
  H   H37       1.0  0.88330  0.67264  0.29264  1.0000
  H   H38       1.0  0.94136  0.66634  0.29372  1.0000
  C   C43       1.0  0.54918  0.32060  0.30698  1.0000
  C   C44       1.0  0.51482  0.31825  0.30167  1.0000
  C   C45       1.0  0.44446  0.33677  0.27961  1.0000
  C   C46       1.0  0.41028  0.33960  0.27272  1.0000
  H   H39       1.0  0.45828  0.34249  0.22639  1.0000
  H   H40       1.0  0.40032  0.34691  0.21453  1.0000
  H   H41       1.0  0.56284  0.31432  0.25526  1.0000
  H   H42       1.0  0.50459  0.30981  0.24676  1.0000
  C   C47       1.0  0.39571  0.71235  0.30721  1.0000
  C   C48       1.0  0.43001  0.71473  0.30183  1.0000
  C   C49       1.0  0.50010  0.69635  0.28000  1.0000
  C   C50       1.0  0.53421  0.69361  0.27306  1.0000
  H   H43       1.0  0.48567  0.69124  0.22681  1.0000
  H   H44       1.0  0.54350  0.68689  0.21493  1.0000
  H   H45       1.0  0.38146  0.71914  0.25535  1.0000
  H   H46       1.0  0.43962  0.72367  0.24670  1.0000
  C   C51       1.0  0.95561  0.01678  0.33550  1.0000
  C   C52       1.0  0.93647  0.99648  0.30062  1.0000
  C   C53       1.0  0.90199  0.99759  0.30008  1.0000
  C   C54       1.0  0.88642  0.01944  0.33420  1.0000
  C   C55       1.0  0.90501  0.04010  0.36867  1.0000
  C   C56       1.0  0.93950  0.03851  0.36949  1.0000
  H   H47       1.0  0.94780  0.98066  0.27538  1.0000
  H   H48       1.0  0.95309  0.05336  0.39517  1.0000
  H   H49       1.0  0.86135  0.02027  0.33417  1.0000
  C   C57       1.0  0.99036  0.01543  0.33522  1.0000
  C   C58       1.0  0.00693  0.99333  0.36896  1.0000
  C   C59       1.0  0.04141  0.99177  0.36780  1.0000
  C   C60       1.0  0.05954  0.01285  0.33321  1.0000
  C   C61       1.0  0.04350  0.03506  0.29922  1.0000
  C   C62       1.0  0.00903  0.03615  0.30015  1.0000
  H   H50       1.0  0.99369  0.97819  0.39483  1.0000
  H   H51       1.0  0.08461  0.01206  0.33307  1.0000
  H   H52       1.0  0.99736  0.05226  0.27512  1.0000
  C   C63       1.0  0.06097  0.05615  0.26945  1.0000
  C   C64       1.0  0.88991  0.06179  0.39988  1.0000
  C   C65       1.0  0.88409  0.97690  0.27008  1.0000
  C   C66       1.0  0.05692  0.96976  0.39912  1.0000
  H   H53       1.0  0.05544  0.06406  0.21022  1.0000
  H   H54       1.0  0.89769  0.06939  0.45685  1.0000
  H   H55       1.0  0.88931  0.96934  0.21160  1.0000
  H   H56       1.0  0.04961  0.96140  0.45572  1.0000
  C   C67       1.0  0.21159  0.32518  0.34718  1.0000
  C   C68       1.0  0.21187  0.29787  0.34671  1.0000
  C   C69       1.0  0.18310  0.28306  0.35659  1.0000
  C   C70       1.0  0.15296  0.29593  0.36508  1.0000
  C   C71       1.0  0.15100  0.32316  0.36435  1.0000
  C   C72       1.0  0.18067  0.33727  0.35696  1.0000
  H   H57       1.0  0.23333  0.28836  0.33623  1.0000
  H   H58       1.0  0.17954  0.35694  0.35922  1.0000
  H   H59       1.0  0.13200  0.28517  0.37101  1.0000
  C   C73       1.0  0.24153  0.33962  0.33458  1.0000
  C   C74       1.0  0.27253  0.33023  0.36503  1.0000
  C   C75       1.0  0.30209  0.34390  0.34996  1.0000
  C   C76       1.0  0.30012  0.36847  0.30784  1.0000
  C   C77       1.0  0.26985  0.37870  0.27831  1.0000
  C   C78       1.0  0.24114  0.36392  0.28968  1.0000
  H   H60       1.0  0.27380  0.31308  0.39974  1.0000
  H   H61       1.0  0.32089  0.37941  0.30044  1.0000
  H   H62       1.0  0.21951  0.37140  0.26585  1.0000
  C   C79       1.0  0.26755  0.40390  0.24818  1.0000
  C   C80       1.0  0.12080  0.33579  0.36591  1.0000
  C   C81       1.0  0.18494  0.25642  0.35879  1.0000
  C   C82       1.0  0.33214  0.33405  0.37931  1.0000
  H   H63       1.0  0.25560  0.40814  0.19165  1.0000
  H   H64       1.0  0.11955  0.35425  0.34696  1.0000
  H   H65       1.0  0.20428  0.24800  0.38774  1.0000
  H   H66       1.0  0.33320  0.32306  0.43428  1.0000
  C   C83       1.0  0.73387  0.70723  0.34761  1.0000
  C   C84       1.0  0.73364  0.73454  0.34737  1.0000
  C   C85       1.0  0.76255  0.74921  0.35734  1.0000
  C   C86       1.0  0.79277  0.73621  0.36568  1.0000
  C   C87       1.0  0.79467  0.70899  0.36473  1.0000
  C   C88       1.0  0.76490  0.69499  0.35727  1.0000
  H   H67       1.0  0.71208  0.74419  0.33697  1.0000
  H   H68       1.0  0.76603  0.67529  0.35935  1.0000
  H   H69       1.0  0.81380  0.74688  0.37168  1.0000
  C   C89       1.0  0.70376  0.69297  0.33487  1.0000
  C   C90       1.0  0.67310  0.70203  0.36523  1.0000
  C   C91       1.0  0.64335  0.68856  0.35004  1.0000
  C   C92       1.0  0.64482  0.66448  0.30786  1.0000
  C   C93       1.0  0.67476  0.65457  0.27836  1.0000
  C   C94       1.0  0.70362  0.66919  0.28988  1.0000
  H   H70       1.0  0.67223  0.71878  0.39999  1.0000
  H   H71       1.0  0.62396  0.65364  0.30033  1.0000
  H   H72       1.0  0.72497  0.66197  0.26607  1.0000
  C   C95       1.0  0.67671  0.62972  0.24819  1.0000
  C   C96       1.0  0.82488  0.69631  0.36610  1.0000
  C   C97       1.0  0.76078  0.77582  0.35969  1.0000
  C   C98       1.0  0.61362  0.69810  0.37934  1.0000
  H   H73       1.0  0.68795  0.62613  0.19155  1.0000
  H   H74       1.0  0.82588  0.67806  0.34724  1.0000
  H   H75       1.0  0.74179  0.78393  0.38868  1.0000
  H   H76       1.0  0.61319  0.70852  0.43419  1.0000
  C   C99       1.0  0.74318  0.32758  0.38291  1.0000
  C   C100      1.0  0.74483  0.30178  0.41540  1.0000
  C   C101      1.0  0.77466  0.28823  0.41844  1.0000
  C   C102      1.0  0.80363  0.30072  0.39104  1.0000
  C   C103      1.0  0.80326  0.32657  0.35985  1.0000
  C   C104      1.0  0.77278  0.33944  0.35422  1.0000
  H   H77       1.0  0.72420  0.29274  0.43838  1.0000
  H   H78       1.0  0.82534  0.29083  0.39395  1.0000
  C   C105      1.0  0.71280  0.34146  0.38349  1.0000
  C   C106      1.0  0.68215  0.32972  0.36280  1.0000
  C   C107      1.0  0.65226  0.34343  0.36619  1.0000
  C   C108      1.0  0.65357  0.36988  0.38740  1.0000
  C   C109      1.0  0.68351  0.38208  0.40819  1.0000
  C   C110      1.0  0.71264  0.36770  0.40780  1.0000
  H   H79       1.0  0.68153  0.31081  0.34446  1.0000
  H   H80       1.0  0.63248  0.38052  0.38748  1.0000
  H   H81       1.0  0.73412  0.37666  0.42535  1.0000
  C   C111      1.0  0.68478  0.40797  0.42568  1.0000
  C   C112      1.0  0.77597  0.26294  0.44694  1.0000
  C   C113      1.0  0.62237  0.33161  0.34642  1.0000
  H   H82       1.0  0.69348  0.41367  0.48428  1.0000
  H   H83       1.0  0.77635  0.25874  0.51189  1.0000
  C   C114      1.0  0.20247  0.70441  0.38281  1.0000
  C   C115      1.0  0.20107  0.72973  0.41627  1.0000
  C   C116      1.0  0.17123  0.74316  0.41948  1.0000
  C   C117      1.0  0.14203  0.73107  0.39096  1.0000
  C   C118      1.0  0.14214  0.70566  0.35883  1.0000
  C   C119      1.0  0.17262  0.69292  0.35327  1.0000
  H   H84       1.0  0.22190  0.73846  0.43990  1.0000
  H   H85       1.0  0.12035  0.74092  0.39373  1.0000
  C   C120      1.0  0.23289  0.69058  0.38332  1.0000
  C   C121      1.0  0.26330  0.70264  0.36310  1.0000
  C   C122      1.0  0.29328  0.68894  0.36655  1.0000
  C   C123      1.0  0.29225  0.66223  0.38751  1.0000
  C   C124      1.0  0.26255  0.64973  0.40789  1.0000
  C   C125      1.0  0.23336  0.66405  0.40732  1.0000
  H   H86       1.0  0.26367  0.72177  0.34504  1.0000
  H   H87       1.0  0.31337  0.65162  0.38769  1.0000
  H   H88       1.0  0.21208  0.65484  0.42453  1.0000
  C   C126      1.0  0.26153  0.62363  0.42530  1.0000
  C   C127      1.0  0.17014  0.76800  0.44908  1.0000
  C   C128      1.0  0.32293  0.70103  0.34705  1.0000
  H   H89       1.0  0.25348  0.61726  0.48387  1.0000
  H   H90       1.0  0.16842  0.77114  0.51398  1.0000
  C   C129      1.0  0.09677  0.08942  0.31798  1.0000
  C   C130      1.0  0.12729  0.13878  0.31368  1.0000
  C   C131      1.0  0.11796  0.12710  0.39551  1.0000
  C   C132      1.0  0.10304  0.10265  0.39762  1.0000
  H   H91       1.0  0.12042  0.13679  0.45402  1.0000
  H   H92       1.0  0.09530  0.09518  0.45742  1.0000
  C   C133      1.0  0.17232  0.19913  0.37634  1.0000
  C   C134      1.0  0.16326  0.17300  0.37281  1.0000
  H   H93       1.0  0.18888  0.20468  0.42404  1.0000
  H   H94       1.0  0.17397  0.16023  0.41710  1.0000
  N   N5        1.0  0.07991  0.06767  0.32499  1.0000
  C   C135      1.0  0.84857  0.94327  0.31855  1.0000
  C   C136      1.0  0.81804  0.89394  0.31442  1.0000
  C   C137      1.0  0.82817  0.90478  0.39624  1.0000
  C   C138      1.0  0.84308  0.92921  0.39827  1.0000
  H   H95       1.0  0.82626  0.89449  0.45486  1.0000
  H   H96       1.0  0.85139  0.93607  0.45809  1.0000
  C   C139      1.0  0.77359  0.83293  0.37699  1.0000
  C   C140      1.0  0.78266  0.85909  0.37343  1.0000
  H   H97       1.0  0.75749  0.82688  0.42455  1.0000
  H   H98       1.0  0.77237  0.87140  0.41746  1.0000
  N   N6        1.0  0.86551  0.96495  0.32545  1.0000
  C   C141      1.0  0.85263  0.09524  0.36235  1.0000
  C   C142      1.0  0.84102  0.10281  0.44606  1.0000
  C   C143      1.0  0.82497  0.12655  0.45456  1.0000
  C   C144      1.0  0.82003  0.14327  0.37983  1.0000
  C   C145      1.0  0.80646  0.16835  0.38920  1.0000
  C   C146      1.0  0.81726  0.18443  0.45910  1.0000
  C   C147      1.0  0.80719  0.21026  0.46258  1.0000
  C   C148      1.0  0.78581  0.22064  0.39645  1.0000
  H   H99       1.0  0.83431  0.17803  0.50497  1.0000
  H   H100      1.0  0.81716  0.22181  0.51048  1.0000
  H   H101      1.0  0.84444  0.09123  0.50135  1.0000
  H   H102      1.0  0.81710  0.13158  0.51624  1.0000
  N   N7        1.0  0.78024  0.24568  0.38824  1.0000
  N   N8        1.0  0.86879  0.07359  0.34990  1.0000
  C   C149      1.0  0.09431  0.93699  0.36275  1.0000
  C   C150      1.0  0.10631  0.92839  0.44695  1.0000
  C   C151      1.0  0.12246  0.90458  0.45596  1.0000
  C   C152      1.0  0.12712  0.88880  0.38123  1.0000
  C   C153      1.0  0.14065  0.86358  0.39104  1.0000
  C   C154      1.0  0.12990  0.84663  0.45984  1.0000
  C   C155      1.0  0.13986  0.82073  0.46350  1.0000
  C   C156      1.0  0.16109  0.81112  0.39869  1.0000
  H   H103      1.0  0.11289  0.85246  0.50449  1.0000
  H   H104      1.0  0.12984  0.80860  0.51034  1.0000
  H   H105      1.0  0.10305  0.93925  0.50227  1.0000
  H   H106      1.0  0.13055  0.89875  0.51800  1.0000
  N   N9        1.0  0.16673  0.78619  0.39054  1.0000
  N   N10       1.0  0.07788  0.95871  0.34986  1.0000
  C   C157      1.0  0.27560  0.44694  0.30250  1.0000
  C   C158      1.0  0.27244  0.50137  0.32077  1.0000
  C   C159      1.0  0.28715  0.48561  0.38809  1.0000
  C   C160      1.0  0.28870  0.45876  0.37900  1.0000
  H   H107      1.0  0.29702  0.49355  0.44442  1.0000
  H   H108      1.0  0.29913  0.44786  0.42945  1.0000
  C   C161      1.0  0.25826  0.56552  0.42463  1.0000
  C   C162      1.0  0.25933  0.53875  0.41243  1.0000
  H   H109      1.0  0.25017  0.57217  0.48398  1.0000
  H   H110      1.0  0.25173  0.52681  0.46321  1.0000
  N   N11       1.0  0.27658  0.42149  0.30230  1.0000
  C   C163      1.0  0.66938  0.58605  0.30254  1.0000
  C   C164      1.0  0.67291  0.53143  0.32096  1.0000
  C   C165      1.0  0.65887  0.54641  0.38816  1.0000
  C   C166      1.0  0.65714  0.57336  0.37901  1.0000
  H   H111      1.0  0.64961  0.53783  0.44444  1.0000
  H   H112      1.0  0.64721  0.58368  0.42939  1.0000
  C   C167      1.0  0.68816  0.46611  0.42496  1.0000
  C   C168      1.0  0.68699  0.49301  0.41273  1.0000
  H   H113      1.0  0.69683  0.45878  0.48442  1.0000
  H   H114      1.0  0.69511  0.50438  0.46359  1.0000
  N   N12       1.0  0.66838  0.61151  0.30237  1.0000
  C   C169      1.0  0.88827  0.34074  0.38870  1.0000
  C   C170      1.0  0.90629  0.34064  0.46964  1.0000
  C   C171      1.0  0.94072  0.34016  0.47024  1.0000
  C   C172      1.0  0.95839  0.33987  0.38980  1.0000
  C   C173      1.0  0.99326  0.33726  0.39107  1.0000
  C   C174      1.0  0.00857  0.31822  0.44617  1.0000
  C   C175      1.0  0.04265  0.31453  0.44512  1.0000
  C   C176      1.0  0.06275  0.33010  0.39048  1.0000
  H   H115      1.0  0.99485  0.30610  0.48534  1.0000
  H   H116      1.0  0.05267  0.30005  0.48388  1.0000
  H   H117      1.0  0.89441  0.34017  0.52925  1.0000
  H   H118      1.0  0.95282  0.33972  0.53048  1.0000
  N   N13       1.0  0.09427  0.32391  0.38746  1.0000
  N   N14       1.0  0.85587  0.33884  0.39438  1.0000
  C   C177      1.0  0.05775  0.69106  0.38686  1.0000
  C   C178      1.0  0.04075  0.69028  0.46799  1.0000
  C   C179      1.0  0.00633  0.69076  0.46897  1.0000
  C   C180      1.0  0.98763  0.69196  0.38874  1.0000
  C   C181      1.0  0.95276  0.69453  0.39038  1.0000
  C   C182      1.0  0.93812  0.71291  0.44572  1.0000
  C   C183      1.0  0.90402  0.71661  0.44492  1.0000
  C   C184      1.0  0.88325  0.70166  0.39039  1.0000
  H   H119      1.0  0.95231  0.72461  0.48473  1.0000
  H   H120      1.0  0.89448  0.73066  0.48374  1.0000
  H   H121      1.0  0.05340  0.69003  0.52747  1.0000
  H   H122      1.0  0.99500  0.69051  0.52934  1.0000
  N   N15       1.0  0.85170  0.70792  0.38750  1.0000
  N   N16       1.0  0.09024  0.69284  0.39220  1.0000
  C   C185      1.0  0.56440  0.33290  0.38003  1.0000
  C   C186      1.0  0.49461  0.32794  0.36921  1.0000
  C   C187      1.0  0.51019  0.33965  0.44314  1.0000
  C   C188      1.0  0.54446  0.34223  0.44808  1.0000
  H   H123      1.0  0.49662  0.34774  0.49199  1.0000
  H   H124      1.0  0.55471  0.35187  0.50058  1.0000
  C   C189      1.0  0.45967  0.32809  0.36013  1.0000
  C   C190      1.0  0.39003  0.33351  0.34551  1.0000
  C   C191      1.0  0.40488  0.32428  0.42559  1.0000
  C   C192      1.0  0.43916  0.32170  0.43271  1.0000
  H   H125      1.0  0.39102  0.32029  0.48032  1.0000
  H   H126      1.0  0.44911  0.31547  0.49229  1.0000
  N   N17       1.0  0.35839  0.33900  0.33578  1.0000
  N   N18       1.0  0.59607  0.33878  0.38483  1.0000
  C   C193      1.0  0.38129  0.69940  0.38056  1.0000
  C   C194      1.0  0.45099  0.70436  0.36951  1.0000
  C   C195      1.0  0.43623  0.69192  0.44363  1.0000
  C   C196      1.0  0.40201  0.68933  0.44867  1.0000
  H   H127      1.0  0.45034  0.68333  0.49262  1.0000
  H   H128      1.0  0.39235  0.67918  0.50133  1.0000
  C   C197      1.0  0.48583  0.70425  0.36038  1.0000
  C   C198      1.0  0.55530  0.69894  0.34575  1.0000
  C   C199      1.0  0.54138  0.70739  0.42570  1.0000
  C   C200      1.0  0.50718  0.70990  0.43284  1.0000
  H   H129      1.0  0.55587  0.71081  0.48038  1.0000
  H   H130      1.0  0.49792  0.71554  0.49234  1.0000
  N   N19       1.0  0.58684  0.69358  0.33600  1.0000
  N   N20       1.0  0.34968  0.69341  0.38533  1.0000
