data_image0
_chemical_formula_structural       C2NCOCH3C2NCOCH3C2NCOCH3NCHNCHNCHNC18H12NC18H12NC18H12NC18H12NCHNCHNCHC2NCOCH3C2NCOCH3C2NCOCH3
_chemical_formula_sum              "C102 N16 O6 H72"
_cell_length_a       38.7273
_cell_length_b       38.7272
_cell_length_c       14.7813
_cell_angle_alpha    90
_cell_angle_beta     90
_cell_angle_gamma    120

_space_group_name_H-M_alt    "P 1"
_space_group_IT_number       1

loop_
  _space_group_symop_operation_xyz
  'x, y, z'

loop_
  _atom_site_type_symbol
  _atom_site_label
  _atom_site_symmetry_multiplicity
  _atom_site_fract_x
  _atom_site_fract_y
  _atom_site_fract_z
  _atom_site_occupancy
  C   C1        1.0  0.17490  0.09193  0.34623  1.0000
  C   C2        1.0  0.25987  0.13456  0.35749  1.0000
  N   N1        1.0  0.23947  0.11649  0.28045  1.0000
  C   C3        1.0  0.19909  0.09635  0.26997  1.0000
  O   O1        1.0  0.18353  0.07720  0.18962  1.0000
  C   C4        1.0  0.19469  0.10312  0.11211  1.0000
  H   H1        1.0  0.22665  0.11727  0.09877  1.0000
  H   H2        1.0  0.18641  0.12608  0.12073  1.0000
  H   H3        1.0  0.17887  0.08515  0.05336  1.0000
  C   C5        1.0  0.91882  0.08916  0.34415  1.0000
  C   C6        1.0  0.87442  0.12965  0.35525  1.0000
  N   N2        1.0  0.89388  0.12892  0.27905  1.0000
  C   C7        1.0  0.91493  0.10958  0.26861  1.0000
  O   O2        1.0  0.93548  0.11463  0.18968  1.0000
  C   C8        1.0  0.91102  0.10136  0.10969  1.0000
  H   H4        1.0  0.93008  0.10457  0.05229  1.0000
  H   H5        1.0  0.89716  0.11945  0.09661  1.0000
  H   H6        1.0  0.88792  0.07000  0.11485  1.0000
  C   C9        1.0  0.91811  0.83030  0.35454  1.0000
  C   C10       1.0  0.87836  0.74588  0.36005  1.0000
  N   N3        1.0  0.86731  0.76631  0.30297  1.0000
  C   C11       1.0  0.88536  0.80672  0.29698  1.0000
  O   O3        1.0  0.87134  0.82276  0.23454  1.0000
  C   C12       1.0  0.88929  0.82749  0.14686  1.0000
  H   H7        1.0  0.87657  0.84042  0.10161  1.0000
  H   H8        1.0  0.88301  0.79882  0.11874  1.0000
  H   H9        1.0  0.92153  0.84766  0.14946  1.0000
  N   N4        1.0  0.57541  0.18892  0.27800  1.0000
  C   C13       1.0  0.61024  0.18911  0.26608  1.0000
  H   H10       1.0  0.62389  0.19804  0.20472  1.0000
  N   N5        1.0  0.81713  0.38828  0.27999  1.0000
  C   C14       1.0  0.81684  0.42291  0.26889  1.0000
  H   H11       1.0  0.80739  0.42759  0.20816  1.0000
  N   N6        1.0  0.61792  0.43124  0.28157  1.0000
  C   C15       1.0  0.58332  0.39642  0.26939  1.0000
  H   H12       1.0  0.57879  0.38270  0.20817  1.0000
  N   N7        1.0  0.00350  0.00259  0.35752  1.0000
  C   C16       1.0  0.04607  0.02577  0.35492  1.0000
  C   C17       1.0  0.98208  0.95933  0.35700  1.0000
  C   C18       1.0  0.98366  0.02531  0.35286  1.0000
  C   C19       1.0  0.98081  0.04531  0.42977  1.0000
  C   C20       1.0  0.95984  0.06637  0.42615  1.0000
  C   C21       1.0  0.94101  0.06846  0.34557  1.0000
  C   C22       1.0  0.94389  0.04792  0.26906  1.0000
  C   C23       1.0  0.96501  0.02702  0.27233  1.0000
  C   C24       1.0  0.06632  0.04481  0.27460  1.0000
  C   C25       1.0  0.10832  0.06680  0.27165  1.0000
  C   C26       1.0  0.13194  0.07010  0.34811  1.0000
  C   C27       1.0  0.11109  0.05138  0.42888  1.0000
  C   C28       1.0  0.06906  0.02974  0.43238  1.0000
  C   C29       1.0  0.00209  0.93701  0.35719  1.0000
  C   C30       1.0  0.98124  0.89495  0.35765  1.0000
  C   C31       1.0  0.93912  0.87292  0.35539  1.0000
  C   C32       1.0  0.91881  0.89477  0.35575  1.0000
  C   C33       1.0  0.93978  0.93678  0.35740  1.0000
  H   H13       1.0  0.12131  0.08116  0.21272  1.0000
  H   H14       1.0  0.05042  0.04278  0.21758  1.0000
  H   H15       1.0  0.05515  0.01621  0.49156  1.0000
  H   H16       1.0  0.12641  0.05266  0.48642  1.0000
  H   H17       1.0  0.99368  0.04419  0.48935  1.0000
  H   H18       1.0  0.95866  0.08047  0.48368  1.0000
  H   H19       1.0  0.03253  0.95122  0.35692  1.0000
  H   H20       1.0  0.99729  0.88047  0.35719  1.0000
  H   H21       1.0  0.88830  0.88019  0.35708  1.0000
  H   H22       1.0  0.92336  0.95079  0.35909  1.0000
  H   H23       1.0  0.96592  0.01208  0.21608  1.0000
  H   H24       1.0  0.92934  0.04657  0.21041  1.0000
  N   N8        1.0  0.43148  0.21836  0.35083  1.0000
  C   C34       1.0  0.45432  0.26064  0.34515  1.0000
  C   C35       1.0  0.38912  0.19739  0.35340  1.0000
  C   C36       1.0  0.45420  0.19880  0.35736  1.0000
  C   C37       1.0  0.47480  0.20154  0.43821  1.0000
  C   C38       1.0  0.50659  0.19370  0.43909  1.0000
  C   C39       1.0  0.51864  0.18215  0.35950  1.0000
  C   C40       1.0  0.49649  0.17774  0.27957  1.0000
  C   C41       1.0  0.46508  0.18617  0.27829  1.0000
  C   C42       1.0  0.46740  0.28386  0.42456  1.0000
  C   C43       1.0  0.49949  0.32330  0.42215  1.0000
  C   C44       1.0  0.52015  0.34118  0.34057  1.0000
  C   C45       1.0  0.50487  0.31821  0.26041  1.0000
  C   C46       1.0  0.47288  0.27868  0.26270  1.0000
  C   C47       1.0  0.36837  0.19872  0.43045  1.0000
  C   C48       1.0  0.32633  0.17829  0.43235  1.0000
  C   C49       1.0  0.30300  0.15548  0.35755  1.0000
  C   C50       1.0  0.32454  0.15455  0.28053  1.0000
  C   C51       1.0  0.36658  0.17499  0.27838  1.0000
  H   H25       1.0  0.50918  0.33787  0.48267  1.0000
  H   H26       1.0  0.45580  0.27110  0.48592  1.0000
  H   H27       1.0  0.46497  0.26210  0.20456  1.0000
  H   H28       1.0  0.51790  0.32906  0.19905  1.0000
  H   H29       1.0  0.46900  0.21262  0.49545  1.0000
  H   H30       1.0  0.52289  0.20002  0.49725  1.0000
  H   H31       1.0  0.38387  0.21469  0.48602  1.0000
  H   H32       1.0  0.31320  0.18092  0.48979  1.0000
  H   H33       1.0  0.30981  0.13882  0.22401  1.0000
  H   H34       1.0  0.38074  0.17372  0.22113  1.0000
  H   H35       1.0  0.45222  0.18598  0.21771  1.0000
  H   H36       1.0  0.50433  0.17022  0.21968  1.0000
  N   N9        1.0  0.78816  0.21504  0.34917  1.0000
  C   C52       1.0  0.74588  0.19560  0.34299  1.0000
  C   C53       1.0  0.80936  0.19387  0.35124  1.0000
  C   C54       1.0  0.80768  0.25730  0.35634  1.0000
  C   C55       1.0  0.80504  0.27489  0.43771  1.0000
  C   C56       1.0  0.81286  0.31450  0.43928  1.0000
  C   C57       1.0  0.82441  0.33833  0.36005  1.0000
  C   C58       1.0  0.82876  0.32083  0.27963  1.0000
  C   C59       1.0  0.82026  0.28099  0.27755  1.0000
  C   C60       1.0  0.72254  0.18540  0.42221  1.0000
  C   C61       1.0  0.68316  0.17823  0.41949  1.0000
  C   C62       1.0  0.66550  0.18131  0.33784  1.0000
  C   C63       1.0  0.68861  0.18907  0.25788  1.0000
  C   C64       1.0  0.72807  0.19640  0.26043  1.0000
  C   C65       1.0  0.80794  0.17143  0.42768  1.0000
  C   C66       1.0  0.82903  0.15047  0.42951  1.0000
  C   C67       1.0  0.85264  0.15101  0.35528  1.0000
  C   C68       1.0  0.85357  0.17375  0.27881  1.0000
  C   C69       1.0  0.83247  0.19468  0.27671  1.0000
  H   H37       1.0  0.66849  0.17327  0.47988  1.0000
  H   H38       1.0  0.73516  0.18637  0.48364  1.0000
  H   H39       1.0  0.74477  0.20517  0.20247  1.0000
  H   H40       1.0  0.67794  0.19150  0.19650  1.0000
  H   H41       1.0  0.79402  0.25784  0.49474  1.0000
  H   H42       1.0  0.80676  0.32441  0.49786  1.0000
  H   H43       1.0  0.79153  0.17033  0.48295  1.0000
  H   H44       1.0  0.82642  0.13453  0.48662  1.0000
  H   H45       1.0  0.86986  0.17551  0.22271  1.0000
  H   H46       1.0  0.83390  0.21046  0.21995  1.0000
  H   H47       1.0  0.82038  0.26847  0.21669  1.0000
  H   H48       1.0  0.83622  0.33635  0.21997  1.0000
  N   N10       1.0  0.79117  0.57469  0.35542  1.0000
  C   C70       1.0  0.81046  0.55174  0.34844  1.0000
  C   C71       1.0  0.81272  0.61705  0.35691  1.0000
  C   C72       1.0  0.74887  0.55207  0.36169  1.0000
  C   C73       1.0  0.73090  0.53150  0.44248  1.0000
  C   C74       1.0  0.69123  0.49982  0.44305  1.0000
  C   C75       1.0  0.66770  0.48797  0.36336  1.0000
  C   C76       1.0  0.68557  0.51016  0.28354  1.0000
  C   C77       1.0  0.72548  0.54139  0.28244  1.0000
  C   C78       1.0  0.82038  0.53821  0.42744  1.0000
  C   C79       1.0  0.82765  0.50607  0.42399  1.0000
  C   C80       1.0  0.82493  0.48583  0.34179  1.0000
  C   C81       1.0  0.81745  0.50157  0.26213  1.0000
  C   C82       1.0  0.81005  0.53365  0.26541  1.0000
  C   C83       1.0  0.83535  0.63800  0.43327  1.0000
  C   C84       1.0  0.85693  0.68004  0.43457  1.0000
  C   C85       1.0  0.85680  0.70294  0.35970  1.0000
  C   C86       1.0  0.83358  0.68139  0.28370  1.0000
  C   C87       1.0  0.81213  0.63935  0.28210  1.0000
  H   H49       1.0  0.83227  0.49598  0.48421  1.0000
  H   H50       1.0  0.81910  0.54950  0.48912  1.0000
  H   H51       1.0  0.80149  0.54190  0.20761  1.0000
  H   H52       1.0  0.81537  0.48886  0.20040  1.0000
  H   H53       1.0  0.74772  0.53720  0.49980  1.0000
  H   H54       1.0  0.68106  0.48354  0.50122  1.0000
  H   H55       1.0  0.83594  0.62264  0.48901  1.0000
  H   H56       1.0  0.87206  0.69366  0.49248  1.0000
  H   H57       1.0  0.83245  0.69615  0.22733  1.0000
  H   H58       1.0  0.79623  0.62503  0.22547  1.0000
  H   H59       1.0  0.73826  0.55422  0.22191  1.0000
  H   H60       1.0  0.67030  0.50239  0.22354  1.0000
  N   N11       1.0  0.19504  0.10942  0.42394  1.0000
  C   C88       1.0  0.23536  0.13021  0.43271  1.0000
  H   H61       1.0  0.24679  0.14155  0.49488  1.0000
  N   N12       1.0  0.89994  0.09015  0.42110  1.0000
  C   C89       1.0  0.87830  0.10881  0.42972  1.0000
  H   H62       1.0  0.86583  0.10762  0.49119  1.0000
  N   N13       1.0  0.92998  0.81022  0.41037  1.0000
  C   C90       1.0  0.91179  0.76981  0.41548  1.0000
  H   H63       1.0  0.92337  0.75762  0.45858  1.0000
  C   C91       1.0  0.55401  0.17900  0.35631  1.0000
  C   C92       1.0  0.62722  0.17911  0.33917  1.0000
  N   N14       1.0  0.60558  0.16910  0.41721  1.0000
  C   C93       1.0  0.57020  0.16790  0.42932  1.0000
  O   O4        1.0  0.55317  0.15735  0.51309  1.0000
  C   C94       1.0  0.52787  0.11506  0.52391  1.0000
  H   H64       1.0  0.51555  0.10950  0.59212  1.0000
  H   H65       1.0  0.54463  0.09943  0.51603  1.0000
  H   H66       1.0  0.50308  0.10310  0.47592  1.0000
  C   C95       1.0  0.82755  0.37682  0.35761  1.0000
  C   C96       1.0  0.82721  0.44981  0.34225  1.0000
  N   N15       1.0  0.83768  0.43818  0.41963  1.0000
  C   C97       1.0  0.83898  0.40401  0.43087  1.0000
  O   O5        1.0  0.84998  0.39743  0.51402  1.0000
  C   C98       1.0  0.89234  0.41453  0.52365  1.0000
  H   H67       1.0  0.89827  0.40768  0.59143  1.0000
  H   H68       1.0  0.90785  0.44694  0.51610  1.0000
  H   H69       1.0  0.90413  0.40185  0.47482  1.0000
  C   C99       1.0  0.62918  0.45268  0.35983  1.0000
  C   C100      1.0  0.55616  0.37949  0.34217  1.0000
  N   N16       1.0  0.56756  0.40116  0.42018  1.0000
  C   C101      1.0  0.60170  0.43654  0.43252  1.0000
  O   O6        1.0  0.60802  0.45363  0.51620  1.0000
  C   C102      1.0  0.59098  0.47892  0.52645  1.0000
  H   H70       1.0  0.59761  0.49129  0.59463  1.0000
  H   H71       1.0  0.55860  0.46213  0.51826  1.0000
  H   H72       1.0  0.60390  0.50368  0.47839  1.0000
