data_image0
_chemical_formula_structural       C2NCNO2NCHNCHNCHC2NCNO2C2NCNO2C2NCNO2C2NCNO2NCHNCHC2NCNO2C2NCNO2NCHNCHC2NCNO2C2NCNO2NCHNCHC2NCNO2C2NCNO2NCHNCHNCHC2NCNO2CNCNCNCNCNCNCNCNCNCNCNCNCNCNCNCNCNCNCNCNCNCNCNCNCNCNCNCNCNCNCNCNCNCNCNCNCNCNCNCNCNCNCNCNCNCNCNCN2CHC2NCNO2C2NCNO2C2NCNO2NCHNCHNCHNCHC2NCNO2C2NCNO2NCHNCHC2NCNO2C2NCNO2NCHNCHC2NCNO2C2NCNO2NCHNCHC2NCNO2C2NCNO2C2NCNO2NCH
_chemical_formula_sum              "C144 N120 O48 H24"
_cell_length_a       53.9662
_cell_length_b       27.8238
_cell_length_c       14.8575
_cell_angle_alpha    90
_cell_angle_beta     90
_cell_angle_gamma    90

_space_group_name_H-M_alt    "P 1"
_space_group_IT_number       1

loop_
  _space_group_symop_operation_xyz
  'x, y, z'

loop_
  _atom_site_type_symbol
  _atom_site_label
  _atom_site_symmetry_multiplicity
  _atom_site_fract_x
  _atom_site_fract_y
  _atom_site_fract_z
  _atom_site_occupancy
  C   C1        1.0  0.51847  0.54782  0.33136  1.0000
  C   C2        1.0  0.49203  0.46042  0.33087  1.0000
  N   N1        1.0  0.51723  0.46230  0.32740  1.0000
  C   C3        1.0  0.53111  0.50322  0.32748  1.0000
  N   N2        1.0  0.55714  0.50008  0.32274  1.0000
  O   O1        1.0  0.56545  0.47678  0.38852  1.0000
  O   O2        1.0  0.56363  0.47906  0.25175  1.0000
  N   N3        1.0  0.01639  0.04589  0.35118  1.0000
  C   C4        1.0  0.02999  0.00487  0.35117  1.0000
  H   H1        1.0  0.04889  0.00693  0.34865  1.0000
  N   N4        1.0  0.37495  0.36894  0.33167  1.0000
  C   C5        1.0  0.39869  0.38604  0.33076  1.0000
  H   H2        1.0  0.40174  0.42227  0.32871  1.0000
  N   N5        1.0  0.63489  0.64054  0.33160  1.0000
  C   C6        1.0  0.61114  0.62352  0.33091  1.0000
  H   H3        1.0  0.60805  0.58730  0.32864  1.0000
  C   C7        1.0  0.14093  0.82134  0.35192  1.0000
  C   C8        1.0  0.09095  0.85322  0.35389  1.0000
  N   N6        1.0  0.09743  0.80607  0.35129  1.0000
  C   C9        1.0  0.12085  0.78821  0.35007  1.0000
  N   N7        1.0  0.12379  0.73782  0.34628  1.0000
  O   O3        1.0  0.11393  0.71800  0.41326  1.0000
  O   O4        1.0  0.11402  0.72101  0.27631  1.0000
  C   C10       1.0  0.86838  0.18813  0.35158  1.0000
  C   C11       1.0  0.91836  0.15644  0.35300  1.0000
  N   N8        1.0  0.91188  0.20357  0.35004  1.0000
  C   C12       1.0  0.88844  0.22132  0.34908  1.0000
  N   N9        1.0  0.88545  0.27168  0.34479  1.0000
  O   O5        1.0  0.89538  0.29174  0.41139  1.0000
  O   O6        1.0  0.89511  0.28831  0.27446  1.0000
  C   C13       1.0  0.50065  0.28889  0.32075  1.0000
  C   C14       1.0  0.53217  0.20827  0.32569  1.0000
  N   N10       1.0  0.50762  0.20530  0.30595  1.0000
  C   C15       1.0  0.49141  0.24233  0.30153  1.0000
  N   N11       1.0  0.46649  0.23251  0.27921  1.0000
  O   O7        1.0  0.45693  0.20439  0.33553  1.0000
  O   O8        1.0  0.46503  0.21347  0.20277  1.0000
  C   C16       1.0  0.50903  0.71997  0.32484  1.0000
  C   C17       1.0  0.47739  0.80042  0.32999  1.0000
  N   N12       1.0  0.50197  0.80362  0.31100  1.0000
  C   C18       1.0  0.51824  0.76670  0.30660  1.0000
  N   N13       1.0  0.54317  0.77683  0.28486  1.0000
  O   O9        1.0  0.55261  0.80473  0.34181  1.0000
  O   O10       1.0  0.54471  0.79618  0.20871  1.0000
  N   N14       1.0  0.98419  0.79268  0.34661  1.0000
  C   C19       1.0  0.96814  0.75482  0.34438  1.0000
  H   H4        1.0  0.95000  0.76033  0.32757  1.0000
  N   N15       1.0  0.02533  0.21598  0.34313  1.0000
  C   C20       1.0  0.04143  0.25374  0.34085  1.0000
  H   H5        1.0  0.05959  0.24808  0.32441  1.0000
  C   C21       1.0  0.30778  0.09018  0.32694  1.0000
  C   C22       1.0  0.30974  0.19193  0.32972  1.0000
  N   N16       1.0  0.32836  0.16457  0.29607  1.0000
  C   C23       1.0  0.32849  0.11575  0.29179  1.0000
  N   N17       1.0  0.34880  0.09287  0.24994  1.0000
  O   O11       1.0  0.36887  0.10619  0.28470  1.0000
  O   O12       1.0  0.34951  0.10378  0.16800  1.0000
  C   C24       1.0  0.70182  0.91916  0.32707  1.0000
  C   C25       1.0  0.70006  0.81743  0.32958  1.0000
  N   N18       1.0  0.68137  0.84466  0.29609  1.0000
  C   C26       1.0  0.68114  0.89348  0.29193  1.0000
  N   N19       1.0  0.66075  0.91621  0.25032  1.0000
  O   O13       1.0  0.64075  0.90284  0.28548  1.0000
  O   O14       1.0  0.65995  0.90525  0.16841  1.0000
  N   N20       1.0  0.22096  0.61752  0.32736  1.0000
  C   C27       1.0  0.22102  0.66666  0.32622  1.0000
  H   H6        1.0  0.23587  0.68447  0.29956  1.0000
  N   N21       1.0  0.78856  0.39196  0.32738  1.0000
  C   C28       1.0  0.78837  0.34282  0.32651  1.0000
  H   H7        1.0  0.77352  0.32510  0.29966  1.0000
  C   C29       1.0  0.27962  0.35804  0.34096  1.0000
  C   C30       1.0  0.24180  0.42891  0.34283  1.0000
  N   N22       1.0  0.23705  0.38112  0.33445  1.0000
  C   C31       1.0  0.25421  0.34528  0.33306  1.0000
  N   N23       1.0  0.24600  0.29749  0.32248  1.0000
  O   O15       1.0  0.23176  0.28578  0.38562  1.0000
  O   O16       1.0  0.23454  0.29258  0.24947  1.0000
  C   C32       1.0  0.73028  0.65140  0.34055  1.0000
  C   C33       1.0  0.76810  0.58056  0.34243  1.0000
  N   N24       1.0  0.77285  0.62834  0.33383  1.0000
  C   C34       1.0  0.75569  0.66416  0.33242  1.0000
  N   N25       1.0  0.76388  0.71195  0.32158  1.0000
  O   O17       1.0  0.77816  0.72375  0.38457  1.0000
  O   O18       1.0  0.77530  0.71679  0.24847  1.0000
  N   N26       1.0  0.22503  0.90606  0.33695  1.0000
  C   C35       1.0  0.24254  0.94146  0.33559  1.0000
  H   H8        1.0  0.23715  0.97651  0.32940  1.0000
  N   N27       1.0  0.78424  0.10340  0.33708  1.0000
  C   C36       1.0  0.76674  0.06802  0.33573  1.0000
  H   H9        1.0  0.77212  0.03297  0.32935  1.0000
  C   C37       1.0  0.15354  0.44743  0.32198  1.0000
  C   C38       1.0  0.10562  0.40782  0.32141  1.0000
  N   N28       1.0  0.11099  0.45084  0.28279  1.0000
  C   C39       1.0  0.13366  0.47176  0.27955  1.0000
  N   N29       1.0  0.13653  0.51585  0.23381  1.0000
  O   O19       1.0  0.12150  0.54650  0.26324  1.0000
  O   O20       1.0  0.13206  0.51019  0.15158  1.0000
  C   C40       1.0  0.85640  0.56132  0.32204  1.0000
  C   C41       1.0  0.90450  0.60008  0.32270  1.0000
  N   N30       1.0  0.89900  0.55735  0.28321  1.0000
  C   C42       1.0  0.87621  0.53689  0.27936  1.0000
  N   N31       1.0  0.87311  0.49319  0.23251  1.0000
  O   O21       1.0  0.88795  0.46200  0.26117  1.0000
  O   O22       1.0  0.87760  0.49936  0.15043  1.0000
  N   N32       1.0  0.36099  0.90343  0.32719  1.0000
  C   C43       1.0  0.38383  0.88239  0.32721  1.0000
  H   H10       1.0  0.38637  0.85029  0.29505  1.0000
  N   N33       1.0  0.64808  0.10503  0.32627  1.0000
  C   C44       1.0  0.62516  0.12569  0.32583  1.0000
  H   H11       1.0  0.62250  0.15749  0.29279  1.0000
  N   N34       1.0  0.99846  0.45881  0.32895  1.0000
  C   C45       1.0  0.98051  0.49276  0.32821  1.0000
  H   H12       1.0  0.96235  0.48250  0.32430  1.0000
  C   C46       1.0  0.48643  0.96850  0.35140  1.0000
  C   C47       1.0  0.52203  0.04137  0.35166  1.0000
  N   N35       1.0  0.49740  0.05106  0.34584  1.0000
  C   C48       1.0  0.47917  0.01736  0.34572  1.0000
  N   N36       1.0  0.45422  0.03183  0.33784  1.0000
  O   O23       1.0  0.44833  0.05883  0.40207  1.0000
  O   O24       1.0  0.45088  0.05446  0.26572  1.0000
  C   C49       1.0  0.44445  0.36421  0.33022  1.0000
  N   N37       1.0  0.45485  0.40898  0.33152  1.0000
  C   C50       1.0  0.48007  0.41506  0.32989  1.0000
  N   N38       1.0  0.49473  0.37525  0.32651  1.0000
  C   C51       1.0  0.48529  0.33023  0.32422  1.0000
  N   N39       1.0  0.46029  0.32636  0.32669  1.0000
  C   C52       1.0  0.56543  0.64541  0.33161  1.0000
  N   N40       1.0  0.55518  0.60062  0.33213  1.0000
  C   C53       1.0  0.53003  0.59380  0.33112  1.0000
  N   N41       1.0  0.51519  0.63344  0.32909  1.0000
  C   C54       1.0  0.52445  0.67868  0.32752  1.0000
  N   N42       1.0  0.54944  0.68298  0.32939  1.0000
  C   C55       1.0  0.06514  0.86422  0.35559  1.0000
  N   N43       1.0  0.05473  0.90899  0.35428  1.0000
  C   C56       1.0  0.02952  0.91506  0.35591  1.0000
  N   N44       1.0  0.01486  0.87526  0.35928  1.0000
  C   C57       1.0  0.02430  0.83023  0.36157  1.0000
  N   N45       1.0  0.04930  0.82637  0.35911  1.0000
  C   C58       1.0  0.94416  0.14543  0.35418  1.0000
  N   N46       1.0  0.95441  0.10064  0.35363  1.0000
  C   C59       1.0  0.97957  0.09381  0.35466  1.0000
  N   N47       1.0  0.99441  0.13345  0.35675  1.0000
  C   C60       1.0  0.98514  0.17869  0.35835  1.0000
  N   N48       1.0  0.96016  0.18300  0.35646  1.0000
  C   C61       1.0  0.31355  0.24254  0.33351  1.0000
  N   N49       1.0  0.29516  0.27575  0.33797  1.0000
  C   C62       1.0  0.29959  0.32414  0.33960  1.0000
  N   N50       1.0  0.32382  0.33884  0.33812  1.0000
  C   C63       1.0  0.34312  0.30712  0.33458  1.0000
  N   N51       1.0  0.33705  0.25974  0.33158  1.0000
  C   C64       1.0  0.69632  0.76683  0.33333  1.0000
  N   N52       1.0  0.71473  0.73366  0.33765  1.0000
  C   C65       1.0  0.71030  0.68526  0.33930  1.0000
  N   N53       1.0  0.68607  0.67054  0.33799  1.0000
  C   C66       1.0  0.66676  0.70225  0.33460  1.0000
  N   N54       1.0  0.67282  0.74962  0.33158  1.0000
  C   C67       1.0  0.19604  0.74254  0.35232  1.0000
  N   N55       1.0  0.21443  0.77575  0.34785  1.0000
  C   C68       1.0  0.21000  0.82414  0.34621  1.0000
  N   N56       1.0  0.18577  0.83884  0.34770  1.0000
  C   C69       1.0  0.16647  0.80712  0.35125  1.0000
  N   N57       1.0  0.17253  0.75974  0.35424  1.0000
  C   C70       1.0  0.81327  0.26683  0.35250  1.0000
  N   N58       1.0  0.79487  0.23366  0.34816  1.0000
  C   C71       1.0  0.79930  0.18527  0.34648  1.0000
  N   N59       1.0  0.82352  0.17055  0.34777  1.0000
  C   C72       1.0  0.84283  0.20226  0.35116  1.0000
  N   N60       1.0  0.83677  0.24962  0.35422  1.0000
  C   C73       1.0  0.04532  0.34437  0.34776  1.0000
  N   N61       1.0  0.07042  0.35054  0.33982  1.0000
  C   C74       1.0  0.08022  0.39562  0.32904  1.0000
  N   N62       1.0  0.06439  0.43361  0.32748  1.0000
  C   C75       1.0  0.03963  0.42913  0.33550  1.0000
  N   N63       1.0  0.03080  0.38418  0.34510  1.0000
  C   C76       1.0  0.96445  0.66418  0.35108  1.0000
  N   N64       1.0  0.93942  0.65741  0.34261  1.0000
  C   C77       1.0  0.92991  0.61216  0.33056  1.0000
  N   N65       1.0  0.94591  0.57437  0.32781  1.0000
  C   C78       1.0  0.97065  0.57977  0.33610  1.0000
  N   N66       1.0  0.97918  0.62477  0.34737  1.0000
  C   C79       1.0  0.46427  0.84437  0.33831  1.0000
  N   N67       1.0  0.43917  0.85054  0.34615  1.0000
  C   C80       1.0  0.42937  0.89563  0.35677  1.0000
  N   N68       1.0  0.44520  0.93362  0.35831  1.0000
  C   C81       1.0  0.46996  0.92914  0.35035  1.0000
  N   N69       1.0  0.47879  0.88419  0.34088  1.0000
  C   C82       1.0  0.54514  0.16419  0.33496  1.0000
  N   N70       1.0  0.57018  0.15742  0.34333  1.0000
  C   C83       1.0  0.57969  0.11216  0.35533  1.0000
  N   N71       1.0  0.56368  0.07437  0.35806  1.0000
  C   C84       1.0  0.53894  0.07977  0.34981  1.0000
  N   N72       1.0  0.53041  0.12478  0.33862  1.0000
  C   C85       1.0  0.20215  0.53888  0.35050  1.0000
  N   N73       1.0  0.22289  0.51040  0.35016  1.0000
  C   C86       1.0  0.22129  0.46129  0.34272  1.0000
  N   N74       1.0  0.19828  0.44147  0.33430  1.0000
  C   C87       1.0  0.17737  0.46821  0.33132  1.0000
  N   N75       1.0  0.18002  0.51636  0.33989  1.0000
  C   C88       1.0  0.80755  0.47042  0.35021  1.0000
  N   N76       1.0  0.78687  0.49905  0.34984  1.0000
  C   C89       1.0  0.78859  0.54815  0.34234  1.0000
  N   N77       1.0  0.81164  0.56780  0.33396  1.0000
  C   C90       1.0  0.83249  0.54086  0.33100  1.0000
  N   N78       1.0  0.82973  0.49274  0.33961  1.0000
  C   C91       1.0  0.30743  0.03889  0.33539  1.0000
  N   N79       1.0  0.28669  0.01041  0.33569  1.0000
  C   C92       1.0  0.28830  0.96129  0.34312  1.0000
  N   N80       1.0  0.31131  0.94147  0.35153  1.0000
  C   C93       1.0  0.33222  0.96822  0.35451  1.0000
  N   N81       1.0  0.32956  0.01637  0.34596  1.0000
  C   C94       1.0  0.70204  0.97042  0.33565  1.0000
  N   N82       1.0  0.72271  0.99906  0.33598  1.0000
  C   C95       1.0  0.72100  0.04815  0.34348  1.0000
  N   N83       1.0  0.69795  0.06781  0.35186  1.0000
  C   C96       1.0  0.67710  0.04088  0.35485  1.0000
  N   N84       1.0  0.67986  0.99275  0.34625  1.0000
  N   N85       1.0  0.49320  0.54589  0.33462  1.0000
  C   C97       1.0  0.47959  0.50486  0.33462  1.0000
  H   H13       1.0  0.46070  0.50693  0.33717  1.0000
  C   C98       1.0  0.99112  0.04782  0.35442  1.0000
  C   C99       1.0  0.01756  0.96043  0.35492  1.0000
  N   N86       1.0  0.99235  0.96230  0.35837  1.0000
  C   C100      1.0  0.97848  0.00323  0.35828  1.0000
  N   N87       1.0  0.95245  0.00009  0.36301  1.0000
  O   O25       1.0  0.94414  0.97679  0.29722  1.0000
  O   O26       1.0  0.94596  0.97907  0.43398  1.0000
  C   C101      1.0  0.36866  0.32133  0.33390  1.0000
  C   C102      1.0  0.41863  0.35322  0.33193  1.0000
  N   N88       1.0  0.41216  0.30606  0.33456  1.0000
  C   C103      1.0  0.38874  0.28820  0.33579  1.0000
  N   N89       1.0  0.38580  0.23782  0.33961  1.0000
  O   O27       1.0  0.39566  0.21798  0.27264  1.0000
  O   O28       1.0  0.39557  0.22101  0.40959  1.0000
  C   C104      1.0  0.64121  0.68812  0.33417  1.0000
  C   C105      1.0  0.59123  0.65642  0.33277  1.0000
  N   N90       1.0  0.59771  0.70355  0.33571  1.0000
  C   C106      1.0  0.62116  0.72131  0.33666  1.0000
  N   N91       1.0  0.62414  0.77167  0.34090  1.0000
  O   O29       1.0  0.61421  0.79171  0.27428  1.0000
  O   O30       1.0  0.61448  0.78832  0.41122  1.0000
  N   N92       1.0  0.13464  0.86895  0.35413  1.0000
  C   C107      1.0  0.11089  0.88605  0.35504  1.0000
  H   H14       1.0  0.10784  0.92228  0.35705  1.0000
  N   N93       1.0  0.87470  0.14055  0.35418  1.0000
  C   C108      1.0  0.89846  0.12354  0.35486  1.0000
  H   H15       1.0  0.90154  0.08732  0.35718  1.0000
  N   N94       1.0  0.52540  0.29269  0.33923  1.0000
  C   C109      1.0  0.54145  0.25483  0.34145  1.0000
  H   H16       1.0  0.55958  0.26035  0.35842  1.0000
  N   N95       1.0  0.48426  0.71596  0.34267  1.0000
  C   C110      1.0  0.46816  0.75374  0.34511  1.0000
  H   H17       1.0  0.44999  0.74805  0.36115  1.0000
  C   C111      1.0  0.00894  0.78889  0.36505  1.0000
  C   C112      1.0  0.97742  0.70826  0.36029  1.0000
  N   N96       1.0  0.00198  0.70530  0.37993  1.0000
  C   C113      1.0  0.01818  0.74233  0.38426  1.0000
  N   N97       1.0  0.04312  0.73251  0.40649  1.0000
  O   O31       1.0  0.05266  0.70437  0.35015  1.0000
  O   O32       1.0  0.04460  0.71348  0.48294  1.0000
  C   C114      1.0  0.00057  0.21997  0.36114  1.0000
  C   C115      1.0  0.03222  0.30041  0.35618  1.0000
  N   N98       1.0  0.00764  0.30360  0.37528  1.0000
  C   C116      1.0  0.99138  0.26668  0.37965  1.0000
  N   N99       1.0  0.96645  0.27678  0.40155  1.0000
  O   O33       1.0  0.95699  0.30474  0.34474  1.0000
  O   O34       1.0  0.96494  0.29606  0.47777  1.0000
  N   N100      1.0  0.28863  0.11752  0.35850  1.0000
  C   C117      1.0  0.28856  0.16666  0.35956  1.0000
  H   H18       1.0  0.27373  0.18447  0.38638  1.0000
  N   N101      1.0  0.72104  0.89197  0.35844  1.0000
  C   C118      1.0  0.72120  0.84283  0.35942  1.0000
  H   H19       1.0  0.73609  0.82509  0.38600  1.0000
  C   C119      1.0  0.20181  0.59018  0.35890  1.0000
  C   C120      1.0  0.19984  0.69194  0.35609  1.0000
  N   N102      1.0  0.18122  0.66458  0.38969  1.0000
  C   C121      1.0  0.18109  0.61575  0.39396  1.0000
  N   N103      1.0  0.16077  0.59288  0.43581  1.0000
  O   O35       1.0  0.14071  0.60619  0.40103  1.0000
  O   O36       1.0  0.16006  0.60380  0.51775  1.0000
  C   C122      1.0  0.80778  0.41916  0.35879  1.0000
  C   C123      1.0  0.80952  0.31743  0.35632  1.0000
  N   N104      1.0  0.82821  0.34466  0.38982  1.0000
  C   C124      1.0  0.82844  0.39348  0.39398  1.0000
  N   N105      1.0  0.84882  0.41621  0.43564  1.0000
  O   O37       1.0  0.86883  0.40283  0.40054  1.0000
  O   O38       1.0  0.84960  0.40525  0.51756  1.0000
  N   N106      1.0  0.28456  0.40606  0.34889  1.0000
  C   C125      1.0  0.26705  0.44146  0.35025  1.0000
  H   H20       1.0  0.27244  0.47651  0.35645  1.0000
  N   N107      1.0  0.72535  0.60340  0.34869  1.0000
  C   C126      1.0  0.74286  0.56802  0.35004  1.0000
  H   H21       1.0  0.73747  0.53297  0.35642  1.0000
  C   C127      1.0  0.22997  0.85804  0.34486  1.0000
  C   C128      1.0  0.26779  0.92892  0.34299  1.0000
  N   N108      1.0  0.27253  0.88112  0.35135  1.0000
  C   C129      1.0  0.25538  0.84528  0.35273  1.0000
  N   N109      1.0  0.26359  0.79749  0.36330  1.0000
  O   O39       1.0  0.27783  0.78578  0.30015  1.0000
  O   O40       1.0  0.27505  0.79257  0.43630  1.0000
  C   C130      1.0  0.77931  0.15141  0.34523  1.0000
  C   C131      1.0  0.74149  0.08056  0.34337  1.0000
  N   N110      1.0  0.73674  0.12835  0.35198  1.0000
  C   C132      1.0  0.75391  0.16417  0.35337  1.0000
  N   N111      1.0  0.74571  0.21196  0.36425  1.0000
  O   O41       1.0  0.73143  0.22376  0.30128  1.0000
  O   O42       1.0  0.73430  0.21678  0.43737  1.0000
  N   N112      1.0  0.14859  0.40342  0.35862  1.0000
  C   C133      1.0  0.12576  0.38236  0.35852  1.0000
  H   H22       1.0  0.12322  0.35032  0.39086  1.0000
  N   N113      1.0  0.86151  0.60501  0.35962  1.0000
  C   C134      1.0  0.88444  0.62563  0.36021  1.0000
  H   H23       1.0  0.88708  0.65753  0.39292  1.0000
  C   C135      1.0  0.35605  0.94743  0.36382  1.0000
  C   C136      1.0  0.40397  0.90780  0.36447  1.0000
  N   N114      1.0  0.39860  0.95084  0.40301  1.0000
  C   C137      1.0  0.37593  0.97177  0.40620  1.0000
  N   N115      1.0  0.37307  0.01587  0.45191  1.0000
  O   O43       1.0  0.38811  0.04651  0.42245  1.0000
  O   O44       1.0  0.37754  0.01023  0.53415  1.0000
  C   C138      1.0  0.65319  0.06134  0.36385  1.0000
  C   C139      1.0  0.60509  0.10007  0.36312  1.0000
  N   N116      1.0  0.61060  0.05736  0.40268  1.0000
  C   C140      1.0  0.63339  0.03691  0.40657  1.0000
  N   N117      1.0  0.63650  0.99323  0.45347  1.0000
  O   O45       1.0  0.62166  0.96202  0.42487  1.0000
  O   O46       1.0  0.63200  0.99943  0.53555  1.0000
  C   C141      1.0  0.02316  0.46849  0.33441  1.0000
  C   C142      1.0  0.98756  0.54136  0.33421  1.0000
  N   N118      1.0  0.01219  0.55105  0.34004  1.0000
  C   C143      1.0  0.03042  0.51735  0.34013  1.0000
  N   N119      1.0  0.05537  0.53181  0.34803  1.0000
  O   O47       1.0  0.06126  0.55883  0.28381  1.0000
  O   O48       1.0  0.05871  0.55443  0.42016  1.0000
  N   N120      1.0  0.51113  0.95882  0.35688  1.0000
  C   C144      1.0  0.52908  0.99277  0.35763  1.0000
  H   H24       1.0  0.54724  0.98250  0.36159  1.0000
