data_image0
_chemical_formula_structural       C4NC2NCHCHC4NC2NCH2CH2C4NC2NCHCH2C2H2CH4C2H2CH5C2H2CH4NC18H12NC18H12NC18H12NC18H12C2H6C2H4C2H5C4NC2NHCHC4NC2NCHC4NC2NHCH
_chemical_formula_sum              "C132 N16 H96"
_cell_length_a       39.1017
_cell_length_b       39.1018
_cell_length_c       14.8666
_cell_angle_alpha    90
_cell_angle_beta     90
_cell_angle_gamma    120

_space_group_name_H-M_alt    "P 1"
_space_group_IT_number       1

loop_
  _space_group_symop_operation_xyz
  'x, y, z'

loop_
  _atom_site_type_symbol
  _atom_site_label
  _atom_site_symmetry_multiplicity
  _atom_site_fract_x
  _atom_site_fract_y
  _atom_site_fract_z
  _atom_site_occupancy
  C   C1        1.0  0.25513  0.12979  0.32539  1.0000
  C   C2        1.0  0.23244  0.11464  0.24537  1.0000
  C   C3        1.0  0.19025  0.09425  0.24637  1.0000
  C   C4        1.0  0.16833  0.08601  0.32775  1.0000
  N   N1        1.0  0.17166  0.08347  0.16556  1.0000
  C   C5        1.0  0.18959  0.08873  0.08463  1.0000
  C   C6        1.0  0.23128  0.10677  0.08411  1.0000
  N   N2        1.0  0.25014  0.11881  0.16429  1.0000
  C   C7        1.0  0.16439  0.07557  0.00369  1.0000
  H   H1        1.0  0.13314  0.06209  0.02105  1.0000
  C   C8        1.0  0.25637  0.11443  0.00392  1.0000
  H   H2        1.0  0.27475  0.10094  0.01292  1.0000
  C   C9        1.0  0.86634  0.12654  0.33099  1.0000
  C   C10       1.0  0.88879  0.12698  0.25529  1.0000
  C   C11       1.0  0.91076  0.10679  0.25596  1.0000
  C   C12       1.0  0.91089  0.08454  0.33194  1.0000
  N   N3        1.0  0.93168  0.10995  0.18033  1.0000
  C   C13       1.0  0.93265  0.12946  0.10399  1.0000
  C   C14       1.0  0.91053  0.14911  0.10333  1.0000
  N   N4        1.0  0.89036  0.14709  0.17930  1.0000
  C   C15       1.0  0.95562  0.12787  0.02680  1.0000
  H   H3        1.0  0.96997  0.11078  0.04292  1.0000
  H   H4        1.0  0.97845  0.15770  0.00830  1.0000
  C   C16       1.0  0.90672  0.17111  0.02676  1.0000
  H   H5        1.0  0.91731  0.20165  0.04679  1.0000
  H   H6        1.0  0.87570  0.15764  0.00751  1.0000
  C   C17       1.0  0.87278  0.74148  0.34150  1.0000
  C   C18       1.0  0.87971  0.76415  0.26168  1.0000
  C   C19       1.0  0.90147  0.80629  0.26291  1.0000
  C   C20       1.0  0.91560  0.82807  0.34438  1.0000
  N   N5        1.0  0.90868  0.82498  0.18226  1.0000
  C   C21       1.0  0.89546  0.80719  0.10138  1.0000
  C   C22       1.0  0.87187  0.76550  0.10066  1.0000
  N   N6        1.0  0.86560  0.74658  0.18065  1.0000
  C   C23       1.0  0.90679  0.83252  0.02073  1.0000
  H   H7        1.0  0.92447  0.86377  0.03829  1.0000
  C   C24       1.0  0.85408  0.74051  0.02044  1.0000
  H   H8        1.0  0.82219  0.72244  0.02975  1.0000
  H   H9        1.0  0.86634  0.72105  0.01145  1.0000
  C   C25       1.0  0.60732  0.17881  0.27105  1.0000
  C   C26       1.0  0.57176  0.17936  0.26321  1.0000
  H   H10       1.0  0.56394  0.18353  0.20030  1.0000
  H   H11       1.0  0.62415  0.18437  0.21441  1.0000
  C   C27       1.0  0.60051  0.14680  0.00694  1.0000
  H   H12       1.0  0.57819  0.11884  0.03614  1.0000
  H   H13       1.0  0.60769  0.17063  0.05460  1.0000
  H   H14       1.0  0.53421  0.14807  0.05597  1.0000
  H   H15       1.0  0.52524  0.18281  0.00052  1.0000
  C   C28       1.0  0.81966  0.42991  0.27711  1.0000
  C   C29       1.0  0.81929  0.39391  0.26904  1.0000
  H   H16       1.0  0.81520  0.38202  0.20602  1.0000
  H   H17       1.0  0.81402  0.44115  0.22054  1.0000
  C   C30       1.0  0.85260  0.45531  0.01263  1.0000
  H   H18       1.0  0.85413  0.48363  0.00084  1.0000
  H   H19       1.0  0.88072  0.46110  0.04113  1.0000
  H   H20       1.0  0.82900  0.43865  0.06081  1.0000
  H   H21       1.0  0.85158  0.38785  0.06137  1.0000
  H   H22       1.0  0.81698  0.34403  0.00601  1.0000
  C   C31       1.0  0.56853  0.38986  0.27344  1.0000
  C   C32       1.0  0.60468  0.42547  0.26714  1.0000
  H   H23       1.0  0.61713  0.43358  0.20469  1.0000
  H   H24       1.0  0.55776  0.37330  0.21628  1.0000
  C   C33       1.0  0.53985  0.39516  0.00799  1.0000
  H   H25       1.0  0.53397  0.41741  0.03664  1.0000
  H   H26       1.0  0.55603  0.38780  0.05664  1.0000
  H   H27       1.0  0.60704  0.46114  0.06000  1.0000
  H   H28       1.0  0.65125  0.47049  0.00639  1.0000
  N   N7        1.0  0.99707  0.99952  0.35005  1.0000
  C   C34       1.0  0.03946  0.02127  0.34265  1.0000
  C   C35       1.0  0.97571  0.95687  0.35153  1.0000
  C   C36       1.0  0.97611  0.02094  0.34514  1.0000
  C   C37       1.0  0.96914  0.03735  0.42277  1.0000
  C   C38       1.0  0.94894  0.05880  0.41771  1.0000
  C   C39       1.0  0.93262  0.06319  0.33589  1.0000
  C   C40       1.0  0.93876  0.04516  0.25921  1.0000
  C   C41       1.0  0.96134  0.02616  0.26282  1.0000
  C   C42       1.0  0.05973  0.01187  0.27736  1.0000
  C   C43       1.0  0.10144  0.03202  0.27406  1.0000
  C   C44       1.0  0.12529  0.06417  0.33219  1.0000
  C   C45       1.0  0.10444  0.07346  0.39690  1.0000
  C   C46       1.0  0.06287  0.05204  0.40340  1.0000
  C   C47       1.0  0.98620  0.93543  0.41125  1.0000
  C   C48       1.0  0.96703  0.89368  0.40876  1.0000
  C   C49       1.0  0.93537  0.87096  0.34866  1.0000
  C   C50       1.0  0.92364  0.89275  0.29295  1.0000
  C   C51       1.0  0.94403  0.93433  0.29205  1.0000
  H   H29       1.0  0.11419  0.02199  0.22914  1.0000
  H   H30       1.0  0.04405  0.98906  0.23361  1.0000
  H   H31       1.0  0.04972  0.05970  0.45257  1.0000
  H   H32       1.0  0.11938  0.09646  0.44059  1.0000
  H   H33       1.0  0.97937  0.03423  0.48379  1.0000
  H   H34       1.0  0.94645  0.07144  0.47574  1.0000
  H   H35       1.0  0.00915  0.95039  0.45508  1.0000
  H   H36       1.0  0.97721  0.87997  0.45065  1.0000
  H   H37       1.0  0.89961  0.87854  0.25170  1.0000
  H   H38       1.0  0.93463  0.94786  0.24801  1.0000
  H   H39       1.0  0.96587  0.01489  0.20486  1.0000
  H   H40       1.0  0.92615  0.04479  0.19884  1.0000
  N   N8        1.0  0.42626  0.21588  0.33637  1.0000
  C   C52       1.0  0.44839  0.25746  0.35408  1.0000
  C   C53       1.0  0.38392  0.19462  0.33346  1.0000
  C   C54       1.0  0.44997  0.19772  0.32217  1.0000
  C   C55       1.0  0.48128  0.21428  0.25921  1.0000
  C   C56       1.0  0.51281  0.20665  0.26433  1.0000
  C   C57       1.0  0.51338  0.17987  0.32810  1.0000
  C   C58       1.0  0.47918  0.15956  0.38274  1.0000
  C   C59       1.0  0.44904  0.16934  0.38241  1.0000
  C   C60       1.0  0.45329  0.28494  0.28642  1.0000
  C   C61       1.0  0.48435  0.32438  0.29032  1.0000
  C   C62       1.0  0.51274  0.33780  0.36042  1.0000
  C   C63       1.0  0.50665  0.31042  0.42986  1.0000
  C   C64       1.0  0.47463  0.27142  0.42801  1.0000
  C   C65       1.0  0.36303  0.19871  0.26068  1.0000
  C   C66       1.0  0.32136  0.17859  0.25913  1.0000
  C   C67       1.0  0.29814  0.15166  0.32781  1.0000
  C   C68       1.0  0.31956  0.14781  0.40055  1.0000
  C   C69       1.0  0.36123  0.16933  0.40424  1.0000
  H   H41       1.0  0.48744  0.34264  0.23780  1.0000
  H   H42       1.0  0.43660  0.27569  0.22930  1.0000
  H   H43       1.0  0.47347  0.25186  0.47538  1.0000
  H   H44       1.0  0.52730  0.31749  0.47935  1.0000
  H   H45       1.0  0.48383  0.23583  0.21609  1.0000
  H   H46       1.0  0.53675  0.22324  0.22418  1.0000
  H   H47       1.0  0.37808  0.21671  0.20792  1.0000
  H   H48       1.0  0.30819  0.18459  0.20689  1.0000
  H   H49       1.0  0.30495  0.12887  0.45244  1.0000
  H   H50       1.0  0.37492  0.16637  0.45976  1.0000
  H   H51       1.0  0.42749  0.15691  0.43011  1.0000
  H   H52       1.0  0.47638  0.13832  0.42699  1.0000
  N   N9        1.0  0.78098  0.21153  0.34075  1.0000
  C   C70       1.0  0.73937  0.19205  0.35736  1.0000
  C   C71       1.0  0.80198  0.19034  0.33828  1.0000
  C   C72       1.0  0.79956  0.25338  0.32690  1.0000
  C   C73       1.0  0.78330  0.26847  0.26413  1.0000
  C   C74       1.0  0.79139  0.30774  0.26982  1.0000
  C   C75       1.0  0.81844  0.33481  0.33363  1.0000
  C   C76       1.0  0.83842  0.32046  0.38805  1.0000
  C   C77       1.0  0.82817  0.28038  0.38729  1.0000
  C   C78       1.0  0.71236  0.16885  0.28963  1.0000
  C   C79       1.0  0.67284  0.16030  0.29199  1.0000
  C   C80       1.0  0.65902  0.17561  0.36051  1.0000
  C   C81       1.0  0.68600  0.19745  0.43017  1.0000
  C   C82       1.0  0.72506  0.20465  0.42999  1.0000
  C   C83       1.0  0.80119  0.16884  0.26128  1.0000
  C   C84       1.0  0.82129  0.14729  0.25962  1.0000
  C   C85       1.0  0.84428  0.14728  0.33355  1.0000
  C   C86       1.0  0.84467  0.16886  0.41073  1.0000
  C   C87       1.0  0.82362  0.18949  0.41346  1.0000
  H   H53       1.0  0.65480  0.14468  0.23951  1.0000
  H   H54       1.0  0.72202  0.16094  0.23383  1.0000
  H   H55       1.0  0.74437  0.22341  0.47727  1.0000
  H   H56       1.0  0.67861  0.21126  0.47845  1.0000
  H   H57       1.0  0.76158  0.24967  0.22104  1.0000
  H   H58       1.0  0.77500  0.31541  0.22983  1.0000
  H   H59       1.0  0.78581  0.16868  0.20552  1.0000
  H   H60       1.0  0.81851  0.13109  0.20325  1.0000
  H   H61       1.0  0.86086  0.17021  0.46612  1.0000
  H   H62       1.0  0.82427  0.20410  0.47107  1.0000
  H   H63       1.0  0.84038  0.27074  0.43451  1.0000
  H   H64       1.0  0.85974  0.33865  0.43242  1.0000
  N   N10       1.0  0.78631  0.57046  0.34668  1.0000
  C   C88       1.0  0.80583  0.54833  0.36341  1.0000
  C   C89       1.0  0.80755  0.61279  0.34526  1.0000
  C   C90       1.0  0.74452  0.54680  0.33140  1.0000
  C   C91       1.0  0.73006  0.51587  0.26753  1.0000
  C   C92       1.0  0.69085  0.48437  0.27142  1.0000
  C   C93       1.0  0.66314  0.48356  0.33449  1.0000
  C   C94       1.0  0.67684  0.51749  0.39000  1.0000
  C   C95       1.0  0.71682  0.54755  0.39109  1.0000
  C   C96       1.0  0.82895  0.54439  0.29558  1.0000
  C   C97       1.0  0.83781  0.51366  0.29822  1.0000
  C   C98       1.0  0.82270  0.48464  0.36692  1.0000
  C   C99       1.0  0.80087  0.48978  0.43661  1.0000
  C   C100      1.0  0.79349  0.52154  0.43625  1.0000
  C   C101      1.0  0.83269  0.63397  0.27298  1.0000
  C   C102      1.0  0.85484  0.67559  0.27321  1.0000
  C   C103      1.0  0.85146  0.69851  0.34311  1.0000
  C   C104      1.0  0.82605  0.67685  0.41542  1.0000
  C   C105      1.0  0.80530  0.63514  0.41733  1.0000
  H   H65       1.0  0.85330  0.51120  0.24550  1.0000
  H   H66       1.0  0.83642  0.56148  0.23914  1.0000
  H   H67       1.0  0.77470  0.52207  0.48346  1.0000
  H   H68       1.0  0.78721  0.46863  0.48508  1.0000
  H   H69       1.0  0.74925  0.51350  0.22469  1.0000
  H   H70       1.0  0.68368  0.46068  0.23055  1.0000
  H   H71       1.0  0.83533  0.61920  0.21923  1.0000
  H   H72       1.0  0.87411  0.68894  0.22121  1.0000
  H   H73       1.0  0.82204  0.69132  0.46810  1.0000
  H   H74       1.0  0.78846  0.62112  0.47242  1.0000
  H   H75       1.0  0.72577  0.56893  0.43921  1.0000
  H   H76       1.0  0.65821  0.52015  0.43389  1.0000
  C   C106      1.0  0.19135  0.10086  0.40693  1.0000
  C   C107      1.0  0.23299  0.12250  0.40566  1.0000
  H   H77       1.0  0.24716  0.13361  0.46540  1.0000
  H   H78       1.0  0.17786  0.09581  0.46813  1.0000
  H   H79       1.0  0.16864  0.05382  0.63359  1.0000
  H   H80       1.0  0.17210  0.10100  0.62735  1.0000
  H   H81       1.0  0.23912  0.10236  0.60952  1.0000
  H   H82       1.0  0.27552  0.14622  0.66187  1.0000
  C   C108      1.0  0.88785  0.08405  0.40636  1.0000
  C   C109      1.0  0.86664  0.10450  0.40626  1.0000
  H   H83       1.0  0.85023  0.10211  0.46208  1.0000
  H   H84       1.0  0.88527  0.06766  0.46226  1.0000
  H   H85       1.0  0.93609  0.11394  0.63609  1.0000
  H   H86       1.0  0.92344  0.17134  0.63452  1.0000
  C   C110      1.0  0.90857  0.80518  0.42325  1.0000
  C   C111      1.0  0.88839  0.76350  0.42175  1.0000
  H   H87       1.0  0.88559  0.74920  0.48123  1.0000
  H   H88       1.0  0.91780  0.81883  0.48412  1.0000
  H   H89       1.0  0.88048  0.82812  0.65178  1.0000
  H   H90       1.0  0.92438  0.82509  0.64328  1.0000
  H   H91       1.0  0.85937  0.75777  0.62594  1.0000
  C   C112      1.0  0.54791  0.17548  0.33874  1.0000
  C   C113      1.0  0.56127  0.16926  0.42316  1.0000
  C   C114      1.0  0.59645  0.16700  0.43035  1.0000
  C   C115      1.0  0.62085  0.17280  0.35457  1.0000
  N   N11       1.0  0.60608  0.15927  0.51275  1.0000
  C   C116      1.0  0.58549  0.15462  0.58959  1.0000
  C   C117      1.0  0.55161  0.15878  0.58379  1.0000
  N   N12       1.0  0.54168  0.16585  0.50119  1.0000
  H   H92       1.0  0.62718  0.14508  0.66167  1.0000
  C   C118      1.0  0.52529  0.15509  0.65908  1.0000
  H   H93       1.0  0.49527  0.13162  0.64426  1.0000
  C   C119      1.0  0.82319  0.37389  0.34445  1.0000
  C   C120      1.0  0.82956  0.39348  0.42891  1.0000
  C   C121      1.0  0.83167  0.43084  0.43632  1.0000
  C   C122      1.0  0.82561  0.44935  0.36076  1.0000
  N   N13       1.0  0.83955  0.44823  0.51867  1.0000
  C   C123      1.0  0.84451  0.43239  0.59531  1.0000
  C   C124      1.0  0.84052  0.39442  0.58933  1.0000
  N   N14       1.0  0.83329  0.37739  0.50676  1.0000
  C   C125      1.0  0.84457  0.37193  0.66442  1.0000
  H   H94       1.0  0.86817  0.36562  0.64925  1.0000
  C   C126      1.0  0.62407  0.44901  0.34349  1.0000
  C   C127      1.0  0.60376  0.43526  0.42703  1.0000
  C   C128      1.0  0.56627  0.40004  0.43262  1.0000
  C   C129      1.0  0.54829  0.37593  0.35610  1.0000
  N   N15       1.0  0.54820  0.39011  0.51422  1.0000
  C   C130      1.0  0.56347  0.41042  0.59170  1.0000
  C   C131      1.0  0.60155  0.44432  0.58755  1.0000
  N   N16       1.0  0.61925  0.45456  0.50573  1.0000
  H   H95       1.0  0.51156  0.36854  0.66148  1.0000
  C   C132      1.0  0.62350  0.47036  0.66379  1.0000
  H   H96       1.0  0.63008  0.50042  0.64922  1.0000
