data_image0
_chemical_formula_structural       C3NCOC3H2CHOHC3NCOC3H2CHOHC2NCOHCHC2NCOHCHC3H2C3H2C4NC2NOHCOC4NC2NOHCOC2H2OCO2HC2H2OCO2HC2H2OCO2HC3HC3HC6H3C6H3C2H2OHC2H2OHC4NC2NHC4NC2NHC4NC2NHC4NC2NOHCOC4NC2NOHCOC2H2OCO2HC2H2OCO2HC2H2OCO2HC3HC3HC6H3C6H3C2H2OHC2H2OHC4NC2NHC4NC2NHC4NC2NHC4NC2NOHCOC4NC2NOHCOC4NC2NOHCOC2H2OCO2HC2H2OCO2HC2H2OCO2HC6H3C6H3C6H3C6H3C2H2OHC2H2OHC2H2OHC4NC2NHC4NC2NHC4NC2NHC4NC2NOHCOC4NC2NOHCOC4NC2NOHCOC2H2OCO2HC2H2OCO2HC2H2OCO2HC6H3C6H3C6H3C6H3C2H2OHC2H2OHC2H2OHC4NC2NHC4NC2NHC4NC2NH
_chemical_formula_sum              "C312 N48 O72 H144"
_cell_length_a       45.6379
_cell_length_b       45.6589
_cell_length_c       14.8489
_cell_angle_alpha    90
_cell_angle_beta     90
_cell_angle_gamma    119.989

_space_group_name_H-M_alt    "P 1"
_space_group_IT_number       1

loop_
  _space_group_symop_operation_xyz
  'x, y, z'

loop_
  _atom_site_type_symbol
  _atom_site_label
  _atom_site_symmetry_multiplicity
  _atom_site_fract_x
  _atom_site_fract_y
  _atom_site_fract_z
  _atom_site_occupancy
  C   C1        1.0  0.07746  0.03871  0.33812  1.0000
  C   C2        1.0  0.09602  0.04934  0.25654  1.0000
  C   C3        1.0  0.09493  0.05117  0.09518  1.0000
  N   N1        1.0  0.07941  0.04231  0.17656  1.0000
  C   C4        1.0  0.07565  0.04289  0.01739  1.0000
  O   O1        1.0  0.04989  0.01527  0.01383  1.0000
  C   C5        1.0  0.04117  0.02113  0.34011  1.0000
  C   C6        1.0  0.02340  0.03923  0.33992  1.0000
  C   C7        1.0  0.02222  0.48530  0.33996  1.0000
  H   H1        1.0  0.03475  0.47192  0.33918  1.0000
  H   H2        1.0  0.03679  0.06514  0.33913  1.0000
  C   C8        1.0  0.09603  0.04614  0.41917  1.0000
  H   H3        1.0  0.08354  0.03862  0.47935  1.0000
  O   O2        1.0  0.07495  0.06506  0.63778  1.0000
  H   H4        1.0  0.09058  0.08679  0.63821  1.0000
  C   C9        1.0  0.07746  0.53872  0.33812  1.0000
  C   C10       1.0  0.09602  0.54935  0.25654  1.0000
  C   C11       1.0  0.09493  0.55117  0.09518  1.0000
  N   N2        1.0  0.07941  0.54231  0.17656  1.0000
  C   C12       1.0  0.07565  0.54289  0.01739  1.0000
  O   O3        1.0  0.04989  0.51527  0.01383  1.0000
  C   C13       1.0  0.04117  0.52113  0.34012  1.0000
  C   C14       1.0  0.02340  0.53923  0.33992  1.0000
  C   C15       1.0  0.02222  0.98530  0.33996  1.0000
  H   H5        1.0  0.03475  0.97192  0.33918  1.0000
  H   H6        1.0  0.03679  0.56514  0.33913  1.0000
  C   C16       1.0  0.09603  0.54614  0.41917  1.0000
  H   H7        1.0  0.08354  0.53862  0.47936  1.0000
  O   O4        1.0  0.07495  0.56506  0.63778  1.0000
  H   H8        1.0  0.09058  0.58679  0.63821  1.0000
  C   C17       1.0  0.13221  0.06728  0.25542  1.0000
  C   C18       1.0  0.15042  0.07492  0.33817  1.0000
  N   N3        1.0  0.14789  0.07625  0.17310  1.0000
  C   C19       1.0  0.13062  0.06884  0.09387  1.0000
  O   O5        1.0  0.14798  0.07819  0.01519  1.0000
  H   H9        1.0  0.17248  0.08832  0.16947  1.0000
  C   C20       1.0  0.13172  0.06394  0.41928  1.0000
  H   H10       1.0  0.14407  0.06894  0.47981  1.0000
  C   C21       1.0  0.13221  0.56728  0.25542  1.0000
  C   C22       1.0  0.15042  0.57492  0.33817  1.0000
  N   N4        1.0  0.14789  0.57625  0.17310  1.0000
  C   C23       1.0  0.13062  0.56885  0.09387  1.0000
  O   O6        1.0  0.14798  0.57819  0.01519  1.0000
  H   H11       1.0  0.17248  0.58832  0.16947  1.0000
  C   C24       1.0  0.13172  0.56394  0.41928  1.0000
  H   H12       1.0  0.14407  0.56894  0.47981  1.0000
  C   C25       1.0  0.20463  0.12923  0.34371  1.0000
  C   C26       1.0  0.18667  0.09329  0.34227  1.0000
  C   C27       1.0  0.20532  0.07599  0.34323  1.0000
  H   H13       1.0  0.19160  0.14210  0.34320  1.0000
  H   H14       1.0  0.19278  0.05010  0.34215  1.0000
  C   C28       1.0  0.20463  0.62923  0.34371  1.0000
  C   C29       1.0  0.18667  0.59329  0.34227  1.0000
  C   C30       1.0  0.20531  0.57599  0.34322  1.0000
  H   H15       1.0  0.19160  0.64210  0.34320  1.0000
  H   H16       1.0  0.19278  0.55010  0.34215  1.0000
  C   C31       1.0  0.46999  0.04106  0.33809  1.0000
  C   C32       1.0  0.45941  0.04906  0.25650  1.0000
  C   C33       1.0  0.44156  0.06738  0.25538  1.0000
  C   C34       1.0  0.43396  0.07799  0.33814  1.0000
  N   N5        1.0  0.43261  0.07412  0.17307  1.0000
  C   C35       1.0  0.43999  0.06423  0.09384  1.0000
  C   C36       1.0  0.45761  0.04618  0.09512  1.0000
  N   N6        1.0  0.46642  0.03946  0.17652  1.0000
  O   O7        1.0  0.43064  0.07226  0.01517  1.0000
  H   H17       1.0  0.42058  0.08668  0.16944  1.0000
  C   C37       1.0  0.46579  0.03513  0.01721  1.0000
  O   O8        1.0  0.49352  0.03718  0.01424  1.0000
  C   C38       1.0  0.46764  0.43127  0.33812  1.0000
  C   C39       1.0  0.45966  0.41272  0.25652  1.0000
  C   C40       1.0  0.44137  0.37655  0.25539  1.0000
  C   C41       1.0  0.43079  0.35834  0.33813  1.0000
  N   N7        1.0  0.43462  0.36088  0.17306  1.0000
  C   C42       1.0  0.44449  0.37815  0.09384  1.0000
  C   C43       1.0  0.46253  0.41382  0.09517  1.0000
  N   N8        1.0  0.46923  0.42933  0.17656  1.0000
  O   O9        1.0  0.43645  0.36080  0.01514  1.0000
  H   H18       1.0  0.42208  0.33630  0.16941  1.0000
  C   C44       1.0  0.47354  0.43309  0.01739  1.0000
  O   O10       1.0  0.47167  0.45885  0.01385  1.0000
  C   C45       1.0  0.30817  0.07707  0.26891  1.0000
  C   C46       1.0  0.27728  0.07698  0.26825  1.0000
  H   H19       1.0  0.26849  0.08018  0.20787  1.0000
  H   H20       1.0  0.32035  0.08010  0.20871  1.0000
  O   O11       1.0  0.32608  0.08729  0.00656  1.0000
  C   C47       1.0  0.26334  0.08682  0.00217  1.0000
  O   O12       1.0  0.25476  0.10825  0.00220  1.0000
  O   O13       1.0  0.24387  0.06054  0.04266  1.0000
  H   H21       1.0  0.24590  0.04223  0.04489  1.0000
  C   C48       1.0  0.43174  0.23356  0.26880  1.0000
  C   C49       1.0  0.43174  0.20272  0.26811  1.0000
  H   H22       1.0  0.42858  0.19073  0.20775  1.0000
  H   H23       1.0  0.42864  0.24263  0.20856  1.0000
  O   O14       1.0  0.42167  0.24120  0.00650  1.0000
  C   C50       1.0  0.42220  0.17896  0.00182  1.0000
  O   O15       1.0  0.40133  0.14879  0.00248  1.0000
  O   O16       1.0  0.44852  0.18635  0.04318  1.0000
  H   H24       1.0  0.46660  0.20687  0.04563  1.0000
  C   C51       1.0  0.27536  0.20053  0.26911  1.0000
  C   C52       1.0  0.30612  0.23146  0.26838  1.0000
  H   H25       1.0  0.31821  0.24020  0.20809  1.0000
  H   H26       1.0  0.26628  0.18835  0.20888  1.0000
  O   O17       1.0  0.26740  0.18293  0.00684  1.0000
  C   C53       1.0  0.32967  0.24563  0.00246  1.0000
  O   O18       1.0  0.35972  0.25433  0.00247  1.0000
  O   O19       1.0  0.32271  0.26494  0.04321  1.0000
  H   H27       1.0  0.30232  0.26282  0.04548  1.0000
  C   C54       1.0  0.48756  0.02235  0.34008  1.0000
  C   C55       1.0  0.46946  0.48650  0.33992  1.0000
  C   C56       1.0  0.48635  0.46755  0.34012  1.0000
  H   H28       1.0  0.44354  0.47398  0.33913  1.0000
  C   C57       1.0  0.24113  0.09399  0.34571  1.0000
  C   C58       1.0  0.25805  0.12964  0.34761  1.0000
  C   C59       1.0  0.24042  0.14769  0.34675  1.0000
  H   H29       1.0  0.28403  0.14287  0.35015  1.0000
  C   C60       1.0  0.41489  0.14961  0.34555  1.0000
  C   C61       1.0  0.37923  0.13089  0.34741  1.0000
  C   C62       1.0  0.36118  0.09522  0.34670  1.0000
  C   C63       1.0  0.37964  0.07790  0.34365  1.0000
  C   C64       1.0  0.41560  0.09588  0.34225  1.0000
  C   C65       1.0  0.43291  0.13181  0.34318  1.0000
  H   H30       1.0  0.36676  0.05201  0.34312  1.0000
  H   H31       1.0  0.45880  0.14516  0.34213  1.0000
  H   H32       1.0  0.36598  0.14362  0.34988  1.0000
  C   C66       1.0  0.35917  0.26767  0.34570  1.0000
  C   C67       1.0  0.37791  0.25075  0.34758  1.0000
  C   C68       1.0  0.41359  0.26837  0.34670  1.0000
  C   C69       1.0  0.43091  0.30414  0.34357  1.0000
  C   C70       1.0  0.41292  0.32210  0.34223  1.0000
  C   C71       1.0  0.37697  0.30347  0.34330  1.0000
  H   H33       1.0  0.45682  0.31716  0.34293  1.0000
  H   H34       1.0  0.36360  0.31600  0.34232  1.0000
  H   H35       1.0  0.36518  0.22478  0.35014  1.0000
  C   C72       1.0  0.44488  0.07021  0.41925  1.0000
  C   C73       1.0  0.46259  0.05223  0.41914  1.0000
  H   H36       1.0  0.47008  0.04723  0.47934  1.0000
  H   H37       1.0  0.43989  0.07756  0.47978  1.0000
  O   O20       1.0  0.44364  0.01209  0.63809  1.0000
  H   H38       1.0  0.42190  0.00596  0.63851  1.0000
  C   C74       1.0  0.43856  0.37703  0.41925  1.0000
  C   C75       1.0  0.45650  0.41271  0.41916  1.0000
  H   H39       1.0  0.46149  0.42518  0.47936  1.0000
  H   H40       1.0  0.43123  0.36468  0.47978  1.0000
  O   O21       1.0  0.49644  0.43380  0.63786  1.0000
  H   H41       1.0  0.50254  0.41817  0.63827  1.0000
  C   C76       1.0  0.26189  0.07878  0.34893  1.0000
  C   C77       1.0  0.27789  0.07918  0.43112  1.0000
  C   C78       1.0  0.30926  0.07940  0.43309  1.0000
  C   C79       1.0  0.32516  0.07928  0.35054  1.0000
  N   N9        1.0  0.32412  0.08242  0.51552  1.0000
  C   C80       1.0  0.31013  0.08479  0.59421  1.0000
  C   C81       1.0  0.27938  0.08503  0.59178  1.0000
  N   N10       1.0  0.26482  0.08229  0.51037  1.0000
  H   H42       1.0  0.34545  0.08247  0.51952  1.0000
  C   C82       1.0  0.43009  0.18558  0.34874  1.0000
  C   C83       1.0  0.42973  0.20118  0.43095  1.0000
  C   C84       1.0  0.42949  0.23231  0.43298  1.0000
  C   C85       1.0  0.42955  0.24831  0.35047  1.0000
  N   N11       1.0  0.42649  0.24413  0.51545  1.0000
  C   C86       1.0  0.42418  0.22778  0.59412  1.0000
  C   C87       1.0  0.42398  0.19683  0.59160  1.0000
  N   N12       1.0  0.42666  0.18501  0.51016  1.0000
  H   H43       1.0  0.42641  0.26538  0.51949  1.0000
  C   C88       1.0  0.32318  0.24691  0.34920  1.0000
  C   C89       1.0  0.30757  0.23098  0.43138  1.0000
  C   C90       1.0  0.27643  0.19963  0.43335  1.0000
  C   C91       1.0  0.26048  0.18371  0.35084  1.0000
  N   N13       1.0  0.26455  0.18482  0.51578  1.0000
  C   C92       1.0  0.28088  0.19884  0.59449  1.0000
  C   C93       1.0  0.31186  0.22958  0.59205  1.0000
  N   N14       1.0  0.32372  0.24410  0.51062  1.0000
  H   H44       1.0  0.24329  0.16349  0.51975  1.0000
  C   C94       1.0  0.46999  0.54106  0.33809  1.0000
  C   C95       1.0  0.45941  0.54905  0.25650  1.0000
  C   C96       1.0  0.44155  0.56738  0.25539  1.0000
  C   C97       1.0  0.43396  0.57799  0.33814  1.0000
  N   N15       1.0  0.43261  0.57412  0.17307  1.0000
  C   C98       1.0  0.43999  0.56424  0.09384  1.0000
  C   C99       1.0  0.45762  0.54618  0.09512  1.0000
  N   N16       1.0  0.46642  0.53946  0.17652  1.0000
  O   O22       1.0  0.43064  0.57226  0.01517  1.0000
  H   H45       1.0  0.42058  0.58668  0.16944  1.0000
  C   C100      1.0  0.46579  0.53513  0.01721  1.0000
  O   O23       1.0  0.49352  0.53718  0.01425  1.0000
  C   C101      1.0  0.46764  0.93127  0.33812  1.0000
  C   C102      1.0  0.45966  0.91272  0.25652  1.0000
  C   C103      1.0  0.44137  0.87655  0.25539  1.0000
  C   C104      1.0  0.43079  0.85834  0.33813  1.0000
  N   N17       1.0  0.43462  0.86088  0.17306  1.0000
  C   C105      1.0  0.44449  0.87815  0.09384  1.0000
  C   C106      1.0  0.46253  0.91382  0.09516  1.0000
  N   N18       1.0  0.46922  0.92933  0.17656  1.0000
  O   O24       1.0  0.43645  0.86080  0.01514  1.0000
  H   H46       1.0  0.42208  0.83630  0.16941  1.0000
  C   C107      1.0  0.47354  0.93309  0.01739  1.0000
  O   O25       1.0  0.47167  0.95885  0.01385  1.0000
  C   C108      1.0  0.30817  0.57707  0.26891  1.0000
  C   C109      1.0  0.27728  0.57698  0.26825  1.0000
  H   H47       1.0  0.26849  0.58018  0.20786  1.0000
  H   H48       1.0  0.32035  0.58010  0.20871  1.0000
  O   O26       1.0  0.32608  0.58729  0.00656  1.0000
  C   C110      1.0  0.26334  0.58682  0.00216  1.0000
  O   O27       1.0  0.25476  0.60825  0.00220  1.0000
  O   O28       1.0  0.24387  0.56054  0.04266  1.0000
  H   H49       1.0  0.24590  0.54223  0.04489  1.0000
  C   C111      1.0  0.43174  0.73356  0.26880  1.0000
  C   C112      1.0  0.43174  0.70272  0.26811  1.0000
  H   H50       1.0  0.42858  0.69073  0.20775  1.0000
  H   H51       1.0  0.42864  0.74263  0.20856  1.0000
  O   O29       1.0  0.42167  0.74120  0.00650  1.0000
  C   C113      1.0  0.42220  0.67896  0.00182  1.0000
  O   O30       1.0  0.40133  0.64879  0.00248  1.0000
  O   O31       1.0  0.44852  0.68635  0.04318  1.0000
  H   H52       1.0  0.46660  0.70687  0.04563  1.0000
  C   C114      1.0  0.27536  0.70054  0.26911  1.0000
  C   C115      1.0  0.30612  0.73146  0.26838  1.0000
  H   H53       1.0  0.31821  0.74020  0.20809  1.0000
  H   H54       1.0  0.26628  0.68836  0.20888  1.0000
  O   O32       1.0  0.26740  0.68293  0.00684  1.0000
  C   C116      1.0  0.32967  0.74562  0.00246  1.0000
  O   O33       1.0  0.35972  0.75433  0.00247  1.0000
  O   O34       1.0  0.32271  0.76494  0.04321  1.0000
  H   H55       1.0  0.30232  0.76282  0.04548  1.0000
  C   C117      1.0  0.48756  0.52235  0.34008  1.0000
  C   C118      1.0  0.46946  0.98650  0.33992  1.0000
  C   C119      1.0  0.48635  0.96755  0.34012  1.0000
  H   H56       1.0  0.44354  0.97398  0.33913  1.0000
  C   C120      1.0  0.24112  0.59399  0.34571  1.0000
  C   C121      1.0  0.25805  0.62964  0.34760  1.0000
  C   C122      1.0  0.24042  0.64769  0.34675  1.0000
  H   H57       1.0  0.28403  0.64287  0.35015  1.0000
  C   C123      1.0  0.41489  0.64961  0.34555  1.0000
  C   C124      1.0  0.37923  0.63089  0.34741  1.0000
  C   C125      1.0  0.36118  0.59522  0.34670  1.0000
  C   C126      1.0  0.37964  0.57790  0.34365  1.0000
  C   C127      1.0  0.41560  0.59587  0.34225  1.0000
  C   C128      1.0  0.43290  0.63181  0.34319  1.0000
  H   H58       1.0  0.36676  0.55201  0.34312  1.0000
  H   H59       1.0  0.45880  0.64516  0.34213  1.0000
  H   H60       1.0  0.36598  0.64362  0.34988  1.0000
  C   C129      1.0  0.35917  0.76767  0.34570  1.0000
  C   C130      1.0  0.37791  0.75075  0.34758  1.0000
  C   C131      1.0  0.41359  0.76837  0.34670  1.0000
  C   C132      1.0  0.43091  0.80414  0.34357  1.0000
  C   C133      1.0  0.41292  0.82210  0.34223  1.0000
  C   C134      1.0  0.37696  0.80347  0.34330  1.0000
  H   H61       1.0  0.45682  0.81716  0.34293  1.0000
  H   H62       1.0  0.36360  0.81600  0.34232  1.0000
  H   H63       1.0  0.36518  0.72478  0.35014  1.0000
  C   C135      1.0  0.44488  0.57020  0.41925  1.0000
  C   C136      1.0  0.46259  0.55223  0.41915  1.0000
  H   H64       1.0  0.47008  0.54723  0.47934  1.0000
  H   H65       1.0  0.43988  0.57756  0.47978  1.0000
  O   O35       1.0  0.44365  0.51209  0.63809  1.0000
  H   H66       1.0  0.42190  0.50596  0.63852  1.0000
  C   C137      1.0  0.43856  0.87703  0.41925  1.0000
  C   C138      1.0  0.45650  0.91271  0.41916  1.0000
  H   H67       1.0  0.46149  0.92519  0.47936  1.0000
  H   H68       1.0  0.43123  0.86469  0.47978  1.0000
  O   O36       1.0  0.49644  0.93380  0.63786  1.0000
  H   H69       1.0  0.50254  0.91817  0.63827  1.0000
  C   C139      1.0  0.26189  0.57878  0.34893  1.0000
  C   C140      1.0  0.27789  0.57918  0.43112  1.0000
  C   C141      1.0  0.30926  0.57940  0.43309  1.0000
  C   C142      1.0  0.32516  0.57928  0.35054  1.0000
  N   N19       1.0  0.32412  0.58242  0.51552  1.0000
  C   C143      1.0  0.31013  0.58479  0.59421  1.0000
  C   C144      1.0  0.27938  0.58503  0.59178  1.0000
  N   N20       1.0  0.26482  0.58229  0.51037  1.0000
  H   H70       1.0  0.34545  0.58247  0.51952  1.0000
  C   C145      1.0  0.43009  0.68558  0.34874  1.0000
  C   C146      1.0  0.42973  0.70118  0.43095  1.0000
  C   C147      1.0  0.42949  0.73231  0.43298  1.0000
  C   C148      1.0  0.42955  0.74831  0.35047  1.0000
  N   N21       1.0  0.42649  0.74413  0.51545  1.0000
  C   C149      1.0  0.42418  0.72778  0.59412  1.0000
  C   C150      1.0  0.42398  0.69683  0.59160  1.0000
  N   N22       1.0  0.42666  0.68501  0.51016  1.0000
  H   H71       1.0  0.42641  0.76538  0.51949  1.0000
  C   C151      1.0  0.32318  0.74691  0.34920  1.0000
  C   C152      1.0  0.30757  0.73098  0.43138  1.0000
  C   C153      1.0  0.27643  0.69963  0.43335  1.0000
  C   C154      1.0  0.26048  0.68371  0.35084  1.0000
  N   N23       1.0  0.26455  0.68482  0.51578  1.0000
  C   C155      1.0  0.28088  0.69885  0.59449  1.0000
  C   C156      1.0  0.31186  0.72958  0.59205  1.0000
  N   N24       1.0  0.32372  0.74410  0.51062  1.0000
  H   H72       1.0  0.24328  0.66349  0.51975  1.0000
  C   C157      1.0  0.57746  0.03871  0.33812  1.0000
  C   C158      1.0  0.59602  0.04934  0.25654  1.0000
  C   C159      1.0  0.63221  0.06728  0.25542  1.0000
  C   C160      1.0  0.65042  0.07492  0.33817  1.0000
  N   N25       1.0  0.64789  0.07625  0.17310  1.0000
  C   C161      1.0  0.63061  0.06884  0.09387  1.0000
  C   C162      1.0  0.59493  0.05117  0.09518  1.0000
  N   N26       1.0  0.57941  0.04231  0.17656  1.0000
  O   O37       1.0  0.64798  0.07819  0.01519  1.0000
  H   H73       1.0  0.67248  0.08832  0.16947  1.0000
  C   C163      1.0  0.57565  0.04289  0.01739  1.0000
  O   O38       1.0  0.54989  0.01527  0.01383  1.0000
  C   C164      1.0  0.96999  0.04106  0.33809  1.0000
  C   C165      1.0  0.95941  0.04906  0.25650  1.0000
  C   C166      1.0  0.94156  0.06738  0.25538  1.0000
  C   C167      1.0  0.93396  0.07799  0.33814  1.0000
  N   N27       1.0  0.93261  0.07412  0.17307  1.0000
  C   C168      1.0  0.93999  0.06423  0.09384  1.0000
  C   C169      1.0  0.95761  0.04618  0.09512  1.0000
  N   N28       1.0  0.96642  0.03946  0.17652  1.0000
  O   O39       1.0  0.93064  0.07226  0.01517  1.0000
  H   H74       1.0  0.92058  0.08668  0.16944  1.0000
  C   C170      1.0  0.96579  0.03513  0.01721  1.0000
  O   O40       1.0  0.99352  0.03718  0.01424  1.0000
  C   C171      1.0  0.96764  0.43127  0.33812  1.0000
  C   C172      1.0  0.95966  0.41272  0.25652  1.0000
  C   C173      1.0  0.94137  0.37655  0.25539  1.0000
  C   C174      1.0  0.93079  0.35834  0.33813  1.0000
  N   N29       1.0  0.93462  0.36088  0.17306  1.0000
  C   C175      1.0  0.94449  0.37815  0.09384  1.0000
  C   C176      1.0  0.96253  0.41382  0.09517  1.0000
  N   N30       1.0  0.96922  0.42933  0.17656  1.0000
  O   O41       1.0  0.93645  0.36080  0.01514  1.0000
  H   H75       1.0  0.92208  0.33630  0.16941  1.0000
  C   C177      1.0  0.97354  0.43309  0.01739  1.0000
  O   O42       1.0  0.97167  0.45885  0.01385  1.0000
  C   C178      1.0  0.80817  0.07707  0.26891  1.0000
  C   C179      1.0  0.77728  0.07698  0.26825  1.0000
  H   H76       1.0  0.76849  0.08018  0.20787  1.0000
  H   H77       1.0  0.82035  0.08010  0.20871  1.0000
  O   O43       1.0  0.82608  0.08729  0.00656  1.0000
  C   C180      1.0  0.76334  0.08682  0.00217  1.0000
  O   O44       1.0  0.75476  0.10825  0.00220  1.0000
  O   O45       1.0  0.74387  0.06054  0.04266  1.0000
  H   H78       1.0  0.74589  0.04223  0.04489  1.0000
  C   C181      1.0  0.93174  0.23356  0.26880  1.0000
  C   C182      1.0  0.93174  0.20272  0.26811  1.0000
  H   H79       1.0  0.92858  0.19073  0.20775  1.0000
  H   H80       1.0  0.92864  0.24263  0.20856  1.0000
  O   O46       1.0  0.92166  0.24120  0.00650  1.0000
  C   C183      1.0  0.92220  0.17896  0.00182  1.0000
  O   O47       1.0  0.90133  0.14879  0.00248  1.0000
  O   O48       1.0  0.94852  0.18635  0.04318  1.0000
  H   H81       1.0  0.96660  0.20687  0.04563  1.0000
  C   C184      1.0  0.77536  0.20053  0.26911  1.0000
  C   C185      1.0  0.80612  0.23146  0.26838  1.0000
  H   H82       1.0  0.81821  0.24020  0.20809  1.0000
  H   H83       1.0  0.76628  0.18835  0.20888  1.0000
  O   O49       1.0  0.76740  0.18293  0.00684  1.0000
  C   C186      1.0  0.82967  0.24563  0.00246  1.0000
  O   O50       1.0  0.85972  0.25433  0.00247  1.0000
  O   O51       1.0  0.82271  0.26494  0.04321  1.0000
  H   H84       1.0  0.80232  0.26282  0.04548  1.0000
  C   C187      1.0  0.54117  0.02113  0.34011  1.0000
  C   C188      1.0  0.52340  0.03923  0.33992  1.0000
  C   C189      1.0  0.98756  0.02235  0.34008  1.0000
  C   C190      1.0  0.96946  0.48650  0.33992  1.0000
  C   C191      1.0  0.98635  0.46755  0.34012  1.0000
  C   C192      1.0  0.52222  0.48530  0.33996  1.0000
  H   H85       1.0  0.94354  0.47398  0.33913  1.0000
  H   H86       1.0  0.53475  0.47192  0.33918  1.0000
  H   H87       1.0  0.53679  0.06514  0.33913  1.0000
  C   C193      1.0  0.74112  0.09399  0.34571  1.0000
  C   C194      1.0  0.75805  0.12964  0.34761  1.0000
  C   C195      1.0  0.74042  0.14769  0.34675  1.0000
  C   C196      1.0  0.70463  0.12923  0.34371  1.0000
  C   C197      1.0  0.68667  0.09329  0.34227  1.0000
  C   C198      1.0  0.70532  0.07599  0.34323  1.0000
  H   H88       1.0  0.69160  0.14210  0.34320  1.0000
  H   H89       1.0  0.69278  0.05010  0.34215  1.0000
  H   H90       1.0  0.78403  0.14287  0.35015  1.0000
  C   C199      1.0  0.91489  0.14961  0.34555  1.0000
  C   C200      1.0  0.87923  0.13089  0.34741  1.0000
  C   C201      1.0  0.86118  0.09522  0.34670  1.0000
  C   C202      1.0  0.87964  0.07790  0.34365  1.0000
  C   C203      1.0  0.91560  0.09588  0.34225  1.0000
  C   C204      1.0  0.93291  0.13181  0.34318  1.0000
  H   H91       1.0  0.86676  0.05201  0.34312  1.0000
  H   H92       1.0  0.95880  0.14516  0.34213  1.0000
  H   H93       1.0  0.86598  0.14362  0.34988  1.0000
  C   C205      1.0  0.85917  0.26767  0.34570  1.0000
  C   C206      1.0  0.87791  0.25075  0.34758  1.0000
  C   C207      1.0  0.91359  0.26837  0.34670  1.0000
  C   C208      1.0  0.93091  0.30414  0.34357  1.0000
  C   C209      1.0  0.91292  0.32210  0.34223  1.0000
  C   C210      1.0  0.87696  0.30347  0.34330  1.0000
  H   H94       1.0  0.95682  0.31716  0.34293  1.0000
  H   H95       1.0  0.86360  0.31600  0.34232  1.0000
  H   H96       1.0  0.86518  0.22478  0.35014  1.0000
  C   C211      1.0  0.63172  0.06394  0.41928  1.0000
  C   C212      1.0  0.59603  0.04614  0.41917  1.0000
  H   H97       1.0  0.58354  0.03862  0.47935  1.0000
  H   H98       1.0  0.64407  0.06894  0.47981  1.0000
  O   O52       1.0  0.57495  0.06506  0.63778  1.0000
  H   H99       1.0  0.59058  0.08679  0.63821  1.0000
  C   C213      1.0  0.94488  0.07021  0.41925  1.0000
  C   C214      1.0  0.96260  0.05223  0.41914  1.0000
  H   H100      1.0  0.97008  0.04723  0.47934  1.0000
  H   H101      1.0  0.93988  0.07756  0.47978  1.0000
  O   O53       1.0  0.94364  0.01209  0.63809  1.0000
  H   H102      1.0  0.92190  0.00596  0.63851  1.0000
  C   C215      1.0  0.93856  0.37703  0.41925  1.0000
  C   C216      1.0  0.95650  0.41271  0.41916  1.0000
  H   H103      1.0  0.96149  0.42518  0.47936  1.0000
  H   H104      1.0  0.93123  0.36468  0.47978  1.0000
  O   O54       1.0  0.99644  0.43380  0.63786  1.0000
  H   H105      1.0  0.00254  0.41817  0.63827  1.0000
  C   C217      1.0  0.76189  0.07878  0.34893  1.0000
  C   C218      1.0  0.77789  0.07918  0.43112  1.0000
  C   C219      1.0  0.80926  0.07940  0.43309  1.0000
  C   C220      1.0  0.82516  0.07928  0.35054  1.0000
  N   N31       1.0  0.82412  0.08242  0.51552  1.0000
  C   C221      1.0  0.81013  0.08479  0.59421  1.0000
  C   C222      1.0  0.77938  0.08503  0.59178  1.0000
  N   N32       1.0  0.76482  0.08229  0.51037  1.0000
  H   H106      1.0  0.84545  0.08247  0.51952  1.0000
  C   C223      1.0  0.93009  0.18558  0.34874  1.0000
  C   C224      1.0  0.92973  0.20118  0.43095  1.0000
  C   C225      1.0  0.92949  0.23231  0.43298  1.0000
  C   C226      1.0  0.92955  0.24831  0.35047  1.0000
  N   N33       1.0  0.92649  0.24413  0.51545  1.0000
  C   C227      1.0  0.92418  0.22778  0.59412  1.0000
  C   C228      1.0  0.92398  0.19683  0.59160  1.0000
  N   N34       1.0  0.92666  0.18501  0.51016  1.0000
  H   H107      1.0  0.92641  0.26538  0.51949  1.0000
  C   C229      1.0  0.82318  0.24691  0.34920  1.0000
  C   C230      1.0  0.80756  0.23098  0.43138  1.0000
  C   C231      1.0  0.77643  0.19963  0.43335  1.0000
  C   C232      1.0  0.76048  0.18371  0.35084  1.0000
  N   N35       1.0  0.76455  0.18482  0.51578  1.0000
  C   C233      1.0  0.78088  0.19884  0.59449  1.0000
  C   C234      1.0  0.81186  0.22958  0.59205  1.0000
  N   N36       1.0  0.82372  0.24410  0.51062  1.0000
  H   H108      1.0  0.74329  0.16349  0.51975  1.0000
  C   C235      1.0  0.57746  0.53872  0.33812  1.0000
  C   C236      1.0  0.59602  0.54935  0.25654  1.0000
  C   C237      1.0  0.63221  0.56728  0.25542  1.0000
  C   C238      1.0  0.65042  0.57492  0.33817  1.0000
  N   N37       1.0  0.64789  0.57625  0.17310  1.0000
  C   C239      1.0  0.63062  0.56885  0.09387  1.0000
  C   C240      1.0  0.59493  0.55117  0.09518  1.0000
  N   N38       1.0  0.57941  0.54231  0.17656  1.0000
  O   O55       1.0  0.64798  0.57819  0.01519  1.0000
  H   H109      1.0  0.67248  0.58832  0.16947  1.0000
  C   C241      1.0  0.57565  0.54289  0.01739  1.0000
  O   O56       1.0  0.54989  0.51527  0.01383  1.0000
  C   C242      1.0  0.96998  0.54106  0.33809  1.0000
  C   C243      1.0  0.95941  0.54905  0.25650  1.0000
  C   C244      1.0  0.94156  0.56738  0.25539  1.0000
  C   C245      1.0  0.93396  0.57799  0.33814  1.0000
  N   N39       1.0  0.93261  0.57412  0.17307  1.0000
  C   C246      1.0  0.93999  0.56424  0.09384  1.0000
  C   C247      1.0  0.95762  0.54618  0.09512  1.0000
  N   N40       1.0  0.96642  0.53946  0.17652  1.0000
  O   O57       1.0  0.93064  0.57226  0.01517  1.0000
  H   H110      1.0  0.92058  0.58668  0.16944  1.0000
  C   C248      1.0  0.96579  0.53513  0.01721  1.0000
  O   O58       1.0  0.99352  0.53718  0.01425  1.0000
  C   C249      1.0  0.96764  0.93127  0.33812  1.0000
  C   C250      1.0  0.95966  0.91272  0.25652  1.0000
  C   C251      1.0  0.94137  0.87655  0.25539  1.0000
  C   C252      1.0  0.93079  0.85834  0.33813  1.0000
  N   N41       1.0  0.93462  0.86088  0.17306  1.0000
  C   C253      1.0  0.94449  0.87815  0.09384  1.0000
  C   C254      1.0  0.96253  0.91382  0.09516  1.0000
  N   N42       1.0  0.96923  0.92933  0.17656  1.0000
  O   O59       1.0  0.93645  0.86080  0.01514  1.0000
  H   H111      1.0  0.92208  0.83630  0.16941  1.0000
  C   C255      1.0  0.97354  0.93309  0.01739  1.0000
  O   O60       1.0  0.97167  0.95885  0.01385  1.0000
  C   C256      1.0  0.80817  0.57707  0.26891  1.0000
  C   C257      1.0  0.77728  0.57698  0.26825  1.0000
  H   H112      1.0  0.76849  0.58018  0.20786  1.0000
  H   H113      1.0  0.82035  0.58010  0.20871  1.0000
  O   O61       1.0  0.82608  0.58729  0.00656  1.0000
  C   C258      1.0  0.76333  0.58682  0.00216  1.0000
  O   O62       1.0  0.75476  0.60825  0.00220  1.0000
  O   O63       1.0  0.74387  0.56054  0.04266  1.0000
  H   H114      1.0  0.74590  0.54223  0.04489  1.0000
  C   C259      1.0  0.93174  0.73356  0.26880  1.0000
  C   C260      1.0  0.93174  0.70272  0.26811  1.0000
  H   H115      1.0  0.92858  0.69073  0.20775  1.0000
  H   H116      1.0  0.92863  0.74263  0.20856  1.0000
  O   O64       1.0  0.92166  0.74120  0.00650  1.0000
  C   C261      1.0  0.92220  0.67896  0.00182  1.0000
  O   O65       1.0  0.90133  0.64879  0.00248  1.0000
  O   O66       1.0  0.94852  0.68635  0.04318  1.0000
  H   H117      1.0  0.96660  0.70687  0.04563  1.0000
  C   C262      1.0  0.77536  0.70054  0.26911  1.0000
  C   C263      1.0  0.80612  0.73146  0.26838  1.0000
  H   H118      1.0  0.81821  0.74020  0.20809  1.0000
  H   H119      1.0  0.76628  0.68836  0.20888  1.0000
  O   O67       1.0  0.76740  0.68293  0.00684  1.0000
  C   C264      1.0  0.82967  0.74562  0.00246  1.0000
  O   O68       1.0  0.85972  0.75433  0.00247  1.0000
  O   O69       1.0  0.82271  0.76494  0.04321  1.0000
  H   H120      1.0  0.80232  0.76282  0.04548  1.0000
  C   C265      1.0  0.54117  0.52113  0.34012  1.0000
  C   C266      1.0  0.52340  0.53923  0.33992  1.0000
  C   C267      1.0  0.98756  0.52235  0.34008  1.0000
  C   C268      1.0  0.96946  0.98650  0.33992  1.0000
  C   C269      1.0  0.98635  0.96755  0.34012  1.0000
  C   C270      1.0  0.52222  0.98530  0.33996  1.0000
  H   H121      1.0  0.94354  0.97398  0.33913  1.0000
  H   H122      1.0  0.53475  0.97192  0.33918  1.0000
  H   H123      1.0  0.53679  0.56514  0.33913  1.0000
  C   C271      1.0  0.74112  0.59399  0.34571  1.0000
  C   C272      1.0  0.75805  0.62964  0.34760  1.0000
  C   C273      1.0  0.74042  0.64769  0.34675  1.0000
  C   C274      1.0  0.70463  0.62923  0.34371  1.0000
  C   C275      1.0  0.68667  0.59329  0.34227  1.0000
  C   C276      1.0  0.70532  0.57599  0.34322  1.0000
  H   H124      1.0  0.69160  0.64210  0.34320  1.0000
  H   H125      1.0  0.69278  0.55010  0.34215  1.0000
  H   H126      1.0  0.78403  0.64287  0.35015  1.0000
  C   C277      1.0  0.91489  0.64961  0.34555  1.0000
  C   C278      1.0  0.87923  0.63089  0.34741  1.0000
  C   C279      1.0  0.86118  0.59522  0.34670  1.0000
  C   C280      1.0  0.87964  0.57790  0.34365  1.0000
  C   C281      1.0  0.91560  0.59587  0.34225  1.0000
  C   C282      1.0  0.93291  0.63181  0.34319  1.0000
  H   H127      1.0  0.86676  0.55201  0.34312  1.0000
  H   H128      1.0  0.95880  0.64516  0.34213  1.0000
  H   H129      1.0  0.86598  0.64362  0.34988  1.0000
  C   C283      1.0  0.85917  0.76767  0.34570  1.0000
  C   C284      1.0  0.87791  0.75075  0.34758  1.0000
  C   C285      1.0  0.91359  0.76837  0.34670  1.0000
  C   C286      1.0  0.93091  0.80414  0.34357  1.0000
  C   C287      1.0  0.91292  0.82210  0.34223  1.0000
  C   C288      1.0  0.87696  0.80347  0.34330  1.0000
  H   H130      1.0  0.95681  0.81716  0.34293  1.0000
  H   H131      1.0  0.86360  0.81600  0.34232  1.0000
  H   H132      1.0  0.86518  0.72478  0.35014  1.0000
  C   C289      1.0  0.63172  0.56394  0.41928  1.0000
  C   C290      1.0  0.59603  0.54614  0.41917  1.0000
  H   H133      1.0  0.58354  0.53862  0.47936  1.0000
  H   H134      1.0  0.64407  0.56894  0.47981  1.0000
  O   O70       1.0  0.57495  0.56506  0.63778  1.0000
  H   H135      1.0  0.59058  0.58679  0.63821  1.0000
  C   C291      1.0  0.94488  0.57020  0.41925  1.0000
  C   C292      1.0  0.96259  0.55223  0.41915  1.0000
  H   H136      1.0  0.97008  0.54723  0.47934  1.0000
  H   H137      1.0  0.93988  0.57756  0.47978  1.0000
  O   O71       1.0  0.94364  0.51209  0.63809  1.0000
  H   H138      1.0  0.92190  0.50596  0.63852  1.0000
  C   C293      1.0  0.93856  0.87703  0.41925  1.0000
  C   C294      1.0  0.95650  0.91271  0.41916  1.0000
  H   H139      1.0  0.96149  0.92519  0.47936  1.0000
  H   H140      1.0  0.93123  0.86469  0.47978  1.0000
  O   O72       1.0  0.99644  0.93380  0.63786  1.0000
  H   H141      1.0  0.00254  0.91817  0.63827  1.0000
  C   C295      1.0  0.76189  0.57878  0.34893  1.0000
  C   C296      1.0  0.77789  0.57918  0.43112  1.0000
  C   C297      1.0  0.80926  0.57940  0.43309  1.0000
  C   C298      1.0  0.82516  0.57928  0.35054  1.0000
  N   N43       1.0  0.82412  0.58242  0.51552  1.0000
  C   C299      1.0  0.81013  0.58479  0.59421  1.0000
  C   C300      1.0  0.77938  0.58503  0.59178  1.0000
  N   N44       1.0  0.76482  0.58229  0.51037  1.0000
  H   H142      1.0  0.84545  0.58247  0.51952  1.0000
  C   C301      1.0  0.93009  0.68558  0.34874  1.0000
  C   C302      1.0  0.92972  0.70118  0.43095  1.0000
  C   C303      1.0  0.92949  0.73231  0.43298  1.0000
  C   C304      1.0  0.92955  0.74831  0.35047  1.0000
  N   N45       1.0  0.92649  0.74413  0.51545  1.0000
  C   C305      1.0  0.92418  0.72778  0.59412  1.0000
  C   C306      1.0  0.92398  0.69683  0.59160  1.0000
  N   N46       1.0  0.92666  0.68501  0.51016  1.0000
  H   H143      1.0  0.92641  0.76538  0.51949  1.0000
  C   C307      1.0  0.82318  0.74691  0.34920  1.0000
  C   C308      1.0  0.80756  0.73098  0.43138  1.0000
  C   C309      1.0  0.77643  0.69963  0.43335  1.0000
  C   C310      1.0  0.76048  0.68371  0.35084  1.0000
  N   N47       1.0  0.76455  0.68482  0.51578  1.0000
  C   C311      1.0  0.78088  0.69885  0.59449  1.0000
  C   C312      1.0  0.81186  0.72958  0.59205  1.0000
  N   N48       1.0  0.82372  0.74410  0.51062  1.0000
  H   H144      1.0  0.74329  0.66349  0.51975  1.0000
