data_image0
_chemical_formula_structural       C3NC3NC5NC5NC20H18N4C3NC3NC5NC5NC20H18N4C3NC3NC5NC5NC20H18N4C3NC3NC5NC5NC20H18N4C3NC3NC5NC5NC20H18N4C3NC3NC5NC5NC20H18N5C2HCHNC2HCHNC2HCHNC2HCHNC2H2CHNC2H2CHNC2H2CHNC2H2CHNC2H2CHNC2H2CHNC2H2CHNC2H2CHC8H8C8H8C8H8C8H8C8H8C8H8CNC2O2CH3CHCNC2O2CH3CHCNC2O2CH3CHCNC2O2CH3CHCNC2O2CH2CHCNC2O2CH2CHCNC2O2CH2CHCNC2O2CH2CHCNC2O2CH2CHCNC2O2CH2CHCNC2O2CH2CHCNC2O2CH2CH
_chemical_formula_sum              "C360 N72 H228 O24"
_cell_length_a       69.0141
_cell_length_b       69.0141
_cell_length_c       14.8429
_cell_angle_alpha    90.0046
_cell_angle_beta     89.9096
_cell_angle_gamma    120

_space_group_name_H-M_alt    "P 1"
_space_group_IT_number       1

loop_
  _space_group_symop_operation_xyz
  'x, y, z'

loop_
  _atom_site_type_symbol
  _atom_site_label
  _atom_site_symmetry_multiplicity
  _atom_site_fract_x
  _atom_site_fract_y
  _atom_site_fract_z
  _atom_site_occupancy
  C   C1        1.0  0.21497  0.37887  0.32500  1.0000
  C   C2        1.0  0.23502  0.37884  0.32709  1.0000
  C   C3        1.0  0.25254  0.40100  0.32886  1.0000
  N   N1        1.0  0.24234  0.41353  0.32826  1.0000
  C   C4        1.0  0.21962  0.40103  0.32599  1.0000
  C   C5        1.0  0.20320  0.40786  0.32476  1.0000
  C   C6        1.0  0.20829  0.43057  0.32630  1.0000
  N   N2        1.0  0.22865  0.44932  0.32663  1.0000
  C   C7        1.0  0.22717  0.46816  0.32809  1.0000
  C   C8        1.0  0.20436  0.46107  0.32892  1.0000
  C   C9        1.0  0.19276  0.43797  0.32804  1.0000
  C   C10       1.0  0.24485  0.49074  0.32826  1.0000
  C   C11       1.0  0.26801  0.49749  0.32779  1.0000
  N   N3        1.0  0.27804  0.48487  0.32802  1.0000
  C   C12       1.0  0.30068  0.49744  0.32791  1.0000
  C   C13       1.0  0.30545  0.51966  0.32716  1.0000
  C   C14       1.0  0.28549  0.51968  0.32742  1.0000
  C   C15       1.0  0.31706  0.49065  0.32861  1.0000
  C   C16       1.0  0.31214  0.46806  0.32936  1.0000
  N   N4        1.0  0.29182  0.44924  0.32936  1.0000
  C   C17       1.0  0.29341  0.43047  0.33065  1.0000
  C   C18       1.0  0.31633  0.43785  0.33124  1.0000
  C   C19       1.0  0.32784  0.46095  0.33056  1.0000
  C   C20       1.0  0.27577  0.40778  0.33082  1.0000
  C   C21       1.0  0.28226  0.39100  0.33253  1.0000
  C   C22       1.0  0.30229  0.36317  0.33418  1.0000
  C   C23       1.0  0.29583  0.36890  0.25232  1.0000
  C   C24       1.0  0.28611  0.38268  0.25146  1.0000
  C   C25       1.0  0.34000  0.50788  0.32973  1.0000
  C   C26       1.0  0.38379  0.54622  0.33078  1.0000
  C   C27       1.0  0.37348  0.53558  0.24912  1.0000
  C   C28       1.0  0.35181  0.51672  0.24834  1.0000
  C   C29       1.0  0.23918  0.50801  0.32810  1.0000
  C   C30       1.0  0.23895  0.51842  0.24647  1.0000
  C   C31       1.0  0.23641  0.53744  0.24686  1.0000
  C   C32       1.0  0.23407  0.54658  0.32886  1.0000
  C   C33       1.0  0.17992  0.39110  0.32202  1.0000
  C   C34       1.0  0.16763  0.38663  0.24102  1.0000
  C   C35       1.0  0.13207  0.36344  0.32103  1.0000
  C   C36       1.0  0.14411  0.37307  0.24075  1.0000
  H   H1        1.0  0.13571  0.37081  0.18138  1.0000
  H   H2        1.0  0.17565  0.39407  0.18215  1.0000
  H   H3        1.0  0.19954  0.36478  0.32324  1.0000
  H   H4        1.0  0.23634  0.36474  0.32690  1.0000
  H   H5        1.0  0.25037  0.42959  0.32969  1.0000
  H   H6        1.0  0.27000  0.46881  0.32888  1.0000
  H   H7        1.0  0.17571  0.42838  0.32899  1.0000
  H   H8        1.0  0.19712  0.47086  0.33022  1.0000
  H   H9        1.0  0.24151  0.51274  0.18639  1.0000
  H   H10       1.0  0.23699  0.54488  0.18668  1.0000
  H   H11       1.0  0.28429  0.53386  0.32743  1.0000
  H   H12       1.0  0.32084  0.53381  0.32694  1.0000
  H   H13       1.0  0.32377  0.42824  0.33183  1.0000
  H   H14       1.0  0.34488  0.47073  0.33082  1.0000
  H   H15       1.0  0.34444  0.50991  0.18784  1.0000
  H   H16       1.0  0.38144  0.54193  0.18899  1.0000
  H   H17       1.0  0.28255  0.38724  0.19082  1.0000
  H   H18       1.0  0.29865  0.36357  0.19208  1.0000
  N   N5        1.0  0.40384  0.56471  0.32524  1.0000
  N   N6        1.0  0.23304  0.56535  0.33546  1.0000
  N   N7        1.0  0.10964  0.35216  0.31639  1.0000
  N   N8        1.0  0.31257  0.35103  0.34051  1.0000
  C   C37       1.0  0.69517  0.83872  0.32618  1.0000
  C   C38       1.0  0.69519  0.85879  0.32819  1.0000
  C   C39       1.0  0.67303  0.85415  0.32985  1.0000
  N   N9        1.0  0.66050  0.83143  0.32932  1.0000
  C   C40       1.0  0.67300  0.82121  0.32715  1.0000
  C   C41       1.0  0.66618  0.79796  0.32597  1.0000
  C   C42       1.0  0.64347  0.78033  0.32751  1.0000
  N   N10       1.0  0.62471  0.78193  0.32783  1.0000
  C   C43       1.0  0.60588  0.76162  0.32925  1.0000
  C   C44       1.0  0.61297  0.74590  0.33004  1.0000
  C   C45       1.0  0.63607  0.75740  0.32924  1.0000
  C   C46       1.0  0.58329  0.75671  0.32939  1.0000
  C   C47       1.0  0.57655  0.77312  0.32894  1.0000
  N   N11       1.0  0.58915  0.79577  0.32908  1.0000
  C   C48       1.0  0.57658  0.80584  0.32893  1.0000
  C   C49       1.0  0.55437  0.78839  0.32836  1.0000
  C   C50       1.0  0.55435  0.76840  0.32868  1.0000
  C   C51       1.0  0.58338  0.82900  0.32942  1.0000
  C   C52       1.0  0.60596  0.84668  0.33010  1.0000
  N   N12       1.0  0.62479  0.84519  0.33023  1.0000
  C   C53       1.0  0.64355  0.86554  0.33140  1.0000
  C   C54       1.0  0.63617  0.88108  0.33179  1.0000
  C   C55       1.0  0.61307  0.86949  0.33112  1.0000
  C   C56       1.0  0.66624  0.87060  0.33168  1.0000
  C   C57       1.0  0.68302  0.89388  0.33329  1.0000
  C   C58       1.0  0.71086  0.94174  0.33467  1.0000
  C   C59       1.0  0.70521  0.92950  0.25289  1.0000
  C   C60       1.0  0.69144  0.90600  0.25217  1.0000
  C   C61       1.0  0.56614  0.83471  0.33041  1.0000
  C   C62       1.0  0.52777  0.84013  0.33127  1.0000
  C   C63       1.0  0.53848  0.84045  0.24965  1.0000
  C   C64       1.0  0.55735  0.83766  0.24897  1.0000
  C   C65       1.0  0.56603  0.73377  0.32920  1.0000
  C   C66       1.0  0.55565  0.72314  0.24758  1.0000
  C   C67       1.0  0.53664  0.70158  0.24797  1.0000
  C   C68       1.0  0.52748  0.69008  0.32996  1.0000
  C   C69       1.0  0.68294  0.79143  0.32323  1.0000
  C   C70       1.0  0.68747  0.78363  0.24220  1.0000
  C   C71       1.0  0.71060  0.77125  0.32220  1.0000
  C   C72       1.0  0.70100  0.77363  0.24195  1.0000
  H   H19       1.0  0.70330  0.76751  0.18255  1.0000
  H   H20       1.0  0.68006  0.78420  0.18335  1.0000
  H   H21       1.0  0.70926  0.83738  0.32446  1.0000
  H   H22       1.0  0.70929  0.87422  0.32794  1.0000
  H   H23       1.0  0.64444  0.82340  0.33068  1.0000
  H   H24       1.0  0.60522  0.80379  0.32967  1.0000
  H   H25       1.0  0.64566  0.74994  0.33011  1.0000
  H   H26       1.0  0.60318  0.72887  0.33131  1.0000
  H   H27       1.0  0.56134  0.73139  0.18752  1.0000
  H   H28       1.0  0.52921  0.69473  0.18780  1.0000
  H   H29       1.0  0.54018  0.75303  0.32878  1.0000
  H   H30       1.0  0.54022  0.78963  0.32812  1.0000
  H   H31       1.0  0.64577  0.89813  0.33230  1.0000
  H   H32       1.0  0.60328  0.87674  0.33127  1.0000
  H   H33       1.0  0.56420  0.83707  0.18851  1.0000
  H   H34       1.0  0.53217  0.84203  0.18948  1.0000
  H   H35       1.0  0.68694  0.89785  0.19158  1.0000
  H   H36       1.0  0.71062  0.93762  0.19263  1.0000
  N   N13       1.0  0.50928  0.84167  0.32564  1.0000
  N   N14       1.0  0.50870  0.67029  0.33656  1.0000
  N   N15       1.0  0.72183  0.76004  0.31758  1.0000
  N   N16       1.0  0.72298  0.96415  0.34086  1.0000
  C   C73       1.0  0.23532  0.85906  0.32430  1.0000
  C   C74       1.0  0.21524  0.83901  0.32630  1.0000
  C   C75       1.0  0.21988  0.82149  0.32803  1.0000
  N   N17       1.0  0.24260  0.83168  0.32757  1.0000
  C   C76       1.0  0.25283  0.85440  0.32539  1.0000
  C   C77       1.0  0.27608  0.87083  0.32430  1.0000
  C   C78       1.0  0.29370  0.86574  0.32597  1.0000
  N   N18       1.0  0.29209  0.84538  0.32626  1.0000
  C   C79       1.0  0.31240  0.84686  0.32787  1.0000
  C   C80       1.0  0.32812  0.86966  0.32880  1.0000
  C   C81       1.0  0.31662  0.88126  0.32787  1.0000
  C   C82       1.0  0.31730  0.82917  0.32804  1.0000
  C   C83       1.0  0.30089  0.80602  0.32743  1.0000
  N   N19       1.0  0.27825  0.79598  0.32751  1.0000
  C   C84       1.0  0.26817  0.77334  0.32729  1.0000
  C   C85       1.0  0.28562  0.76857  0.32668  1.0000
  C   C86       1.0  0.30561  0.78853  0.32709  1.0000
  C   C87       1.0  0.24501  0.75697  0.32775  1.0000
  C   C88       1.0  0.22733  0.76188  0.32839  1.0000
  N   N20       1.0  0.22883  0.78220  0.32846  1.0000
  C   C89       1.0  0.20848  0.78061  0.32960  1.0000
  C   C90       1.0  0.19293  0.75769  0.33001  1.0000
  C   C91       1.0  0.20452  0.74618  0.32937  1.0000
  C   C92       1.0  0.20342  0.79825  0.32984  1.0000
  C   C93       1.0  0.18015  0.79176  0.33144  1.0000
  C   C94       1.0  0.13228  0.77173  0.33303  1.0000
  C   C95       1.0  0.14455  0.77827  0.25119  1.0000
  C   C96       1.0  0.16805  0.78801  0.25037  1.0000
  C   C97       1.0  0.23930  0.73402  0.32878  1.0000
  C   C98       1.0  0.23381  0.69022  0.32973  1.0000
  C   C99       1.0  0.23353  0.70059  0.24809  1.0000
  C   C100      1.0  0.23635  0.72226  0.24736  1.0000
  C   C101      1.0  0.34024  0.83485  0.32806  1.0000
  C   C102      1.0  0.35099  0.83514  0.24656  1.0000
  C   C103      1.0  0.37256  0.83771  0.24717  1.0000
  C   C104      1.0  0.38394  0.83999  0.32929  1.0000
  C   C105      1.0  0.28260  0.89411  0.32161  1.0000
  C   C106      1.0  0.29053  0.90647  0.24067  1.0000
  C   C107      1.0  0.30279  0.94196  0.32075  1.0000
  C   C108      1.0  0.30050  0.92999  0.24049  1.0000
  H   H37       1.0  0.30670  0.93844  0.18114  1.0000
  H   H38       1.0  0.29001  0.89850  0.18181  1.0000
  H   H39       1.0  0.23666  0.87449  0.32254  1.0000
  H   H40       1.0  0.19981  0.83768  0.32592  1.0000
  H   H41       1.0  0.25063  0.82365  0.32905  1.0000
  H   H42       1.0  0.27023  0.80402  0.32820  1.0000
  H   H43       1.0  0.32409  0.89831  0.32884  1.0000
  H   H44       1.0  0.34515  0.87690  0.33020  1.0000
  H   H45       1.0  0.34285  0.83266  0.18638  1.0000
  H   H46       1.0  0.37950  0.83717  0.18708  1.0000
  H   H47       1.0  0.32098  0.78974  0.32721  1.0000
  H   H48       1.0  0.28438  0.75318  0.32639  1.0000
  H   H49       1.0  0.17588  0.75025  0.33050  1.0000
  H   H50       1.0  0.19727  0.72914  0.32956  1.0000
  H   H51       1.0  0.23699  0.72969  0.18688  1.0000
  H   H52       1.0  0.23198  0.69268  0.18793  1.0000
  H   H53       1.0  0.17623  0.79163  0.18975  1.0000
  H   H54       1.0  0.13645  0.77553  0.19095  1.0000
  N   N21       1.0  0.23223  0.67017  0.32416  1.0000
  N   N22       1.0  0.40371  0.84099  0.33612  1.0000
  N   N23       1.0  0.31400  0.96440  0.31624  1.0000
  N   N24       1.0  0.10987  0.76143  0.33932  1.0000
  C   C109      1.0  0.88199  0.67222  0.32583  1.0000
  C   C110      1.0  0.86194  0.67225  0.32806  1.0000
  C   C111      1.0  0.84442  0.65009  0.32997  1.0000
  N   N25       1.0  0.85461  0.63756  0.32940  1.0000
  C   C112      1.0  0.87733  0.65005  0.32698  1.0000
  C   C113      1.0  0.89375  0.64322  0.32572  1.0000
  C   C114      1.0  0.88867  0.62051  0.32744  1.0000
  N   N26       1.0  0.86831  0.60176  0.32798  1.0000
  C   C115      1.0  0.86978  0.58293  0.32953  1.0000
  C   C116      1.0  0.89259  0.59001  0.33018  1.0000
  C   C117      1.0  0.90419  0.61311  0.32913  1.0000
  C   C118      1.0  0.85209  0.56034  0.32990  1.0000
  C   C119      1.0  0.82894  0.55360  0.32960  1.0000
  N   N27       1.0  0.81891  0.56621  0.32983  1.0000
  C   C120      1.0  0.79626  0.55364  0.32981  1.0000
  C   C121      1.0  0.79150  0.53143  0.32921  1.0000
  C   C122      1.0  0.81146  0.53140  0.32939  1.0000
  C   C123      1.0  0.77989  0.56044  0.33043  1.0000
  C   C124      1.0  0.78481  0.58303  0.33102  1.0000
  N   N28       1.0  0.80513  0.60185  0.33090  1.0000
  C   C125      1.0  0.80354  0.62061  0.33201  1.0000
  C   C126      1.0  0.78062  0.61324  0.33262  1.0000
  C   C127      1.0  0.76911  0.59014  0.33212  1.0000
  C   C128      1.0  0.82119  0.64331  0.33204  1.0000
  C   C129      1.0  0.81469  0.66009  0.33359  1.0000
  C   C130      1.0  0.79467  0.68794  0.33504  1.0000
  C   C131      1.0  0.80124  0.68224  0.25324  1.0000
  C   C132      1.0  0.81098  0.66848  0.25248  1.0000
  C   C133      1.0  0.75695  0.54321  0.33161  1.0000
  C   C134      1.0  0.71315  0.50488  0.33269  1.0000
  C   C135      1.0  0.72351  0.51558  0.25103  1.0000
  C   C136      1.0  0.74519  0.53441  0.25023  1.0000
  C   C137      1.0  0.85776  0.54307  0.32973  1.0000
  C   C138      1.0  0.85806  0.53269  0.24813  1.0000
  C   C139      1.0  0.86060  0.51367  0.24857  1.0000
  C   C140      1.0  0.86290  0.50452  0.33059  1.0000
  C   C141      1.0  0.91703  0.65998  0.32276  1.0000
  C   C142      1.0  0.92936  0.66444  0.24166  1.0000
  C   C143      1.0  0.96489  0.68761  0.32132  1.0000
  C   C144      1.0  0.95288  0.67798  0.24118  1.0000
  H   H55       1.0  0.96129  0.68025  0.18171  1.0000
  H   H56       1.0  0.92135  0.65702  0.18287  1.0000
  H   H57       1.0  0.89742  0.68631  0.32396  1.0000
  H   H58       1.0  0.86062  0.68635  0.32773  1.0000
  H   H59       1.0  0.84658  0.62150  0.33097  1.0000
  H   H60       1.0  0.82695  0.58228  0.33050  1.0000
  H   H61       1.0  0.92124  0.62270  0.32989  1.0000
  H   H62       1.0  0.89982  0.58022  0.33148  1.0000
  H   H63       1.0  0.85557  0.53839  0.18804  1.0000
  H   H64       1.0  0.86010  0.50626  0.18840  1.0000
  H   H65       1.0  0.81266  0.51723  0.32943  1.0000
  H   H66       1.0  0.77610  0.51728  0.32903  1.0000
  H   H67       1.0  0.77318  0.62285  0.33312  1.0000
  H   H68       1.0  0.75207  0.58036  0.33244  1.0000
  H   H69       1.0  0.75261  0.54125  0.18973  1.0000
  H   H70       1.0  0.71560  0.50925  0.19090  1.0000
  H   H71       1.0  0.81460  0.66393  0.19188  1.0000
  H   H72       1.0  0.79851  0.68761  0.19297  1.0000
  N   N29       1.0  0.69309  0.48642  0.32718  1.0000
  N   N30       1.0  0.86392  0.48575  0.33723  1.0000
  N   N31       1.0  0.98733  0.69887  0.31648  1.0000
  N   N32       1.0  0.78438  0.70006  0.34125  1.0000
  C   C145      1.0  0.40180  0.21238  0.32635  1.0000
  C   C146      1.0  0.40178  0.19230  0.32838  1.0000
  C   C147      1.0  0.42393  0.19694  0.33035  1.0000
  N   N33       1.0  0.43646  0.21966  0.32995  1.0000
  C   C148      1.0  0.42397  0.22989  0.32760  1.0000
  C   C149      1.0  0.43080  0.25314  0.32650  1.0000
  C   C150      1.0  0.45351  0.27076  0.32832  1.0000
  N   N34       1.0  0.47226  0.26916  0.32883  1.0000
  C   C151      1.0  0.49109  0.28947  0.33053  1.0000
  C   C152      1.0  0.48400  0.30518  0.33132  1.0000
  C   C153      1.0  0.46090  0.29368  0.33018  1.0000
  C   C154      1.0  0.51368  0.29436  0.33091  1.0000
  C   C155      1.0  0.52042  0.27795  0.33043  1.0000
  N   N35       1.0  0.50781  0.25531  0.33055  1.0000
  C   C156      1.0  0.52038  0.24524  0.33042  1.0000
  C   C157      1.0  0.54260  0.26268  0.32981  1.0000
  C   C158      1.0  0.54262  0.28267  0.33016  1.0000
  C   C159      1.0  0.51358  0.22207  0.33094  1.0000
  C   C160      1.0  0.49099  0.20439  0.33145  1.0000
  N   N36       1.0  0.47217  0.20589  0.33134  1.0000
  C   C161      1.0  0.45341  0.18554  0.33236  1.0000
  C   C162      1.0  0.46078  0.16999  0.33290  1.0000
  C   C163      1.0  0.48388  0.18158  0.33245  1.0000
  C   C164      1.0  0.43071  0.18048  0.33231  1.0000
  C   C165      1.0  0.41393  0.15721  0.33373  1.0000
  C   C166      1.0  0.38610  0.10934  0.33474  1.0000
  C   C167      1.0  0.39187  0.12164  0.25304  1.0000
  C   C168      1.0  0.40565  0.14514  0.25250  1.0000
  C   C169      1.0  0.53082  0.21636  0.33200  1.0000
  C   C170      1.0  0.56916  0.21091  0.33291  1.0000
  C   C171      1.0  0.55852  0.21060  0.25128  1.0000
  C   C172      1.0  0.53966  0.21341  0.25058  1.0000
  C   C173      1.0  0.53095  0.31731  0.33084  1.0000
  C   C174      1.0  0.54138  0.32800  0.24925  1.0000
  C   C175      1.0  0.56040  0.34956  0.24973  1.0000
  C   C176      1.0  0.56951  0.36099  0.33177  1.0000
  C   C177      1.0  0.41405  0.25966  0.32358  1.0000
  C   C178      1.0  0.40965  0.26754  0.24251  1.0000
  C   C179      1.0  0.38639  0.27985  0.32225  1.0000
  C   C180      1.0  0.39609  0.27750  0.24207  1.0000
  H   H73       1.0  0.39388  0.28368  0.18267  1.0000
  H   H74       1.0  0.41714  0.26699  0.18372  1.0000
  H   H75       1.0  0.38772  0.21372  0.32447  1.0000
  H   H76       1.0  0.38768  0.17688  0.32801  1.0000
  H   H77       1.0  0.45252  0.22769  0.33153  1.0000
  H   H78       1.0  0.49175  0.24729  0.33135  1.0000
  H   H79       1.0  0.45132  0.30115  0.33104  1.0000
  H   H80       1.0  0.49380  0.32221  0.33275  1.0000
  H   H81       1.0  0.53573  0.31981  0.18914  1.0000
  H   H82       1.0  0.56786  0.35646  0.18956  1.0000
  H   H83       1.0  0.55679  0.29804  0.33024  1.0000
  H   H84       1.0  0.55674  0.26144  0.32960  1.0000
  H   H85       1.0  0.45117  0.15294  0.33328  1.0000
  H   H86       1.0  0.49367  0.17433  0.33272  1.0000
  H   H87       1.0  0.53286  0.21401  0.19011  1.0000
  H   H88       1.0  0.56488  0.20902  0.19112  1.0000
  H   H89       1.0  0.41024  0.15335  0.19197  1.0000
  H   H90       1.0  0.38658  0.11358  0.19270  1.0000
  N   N37       1.0  0.58764  0.20935  0.32729  1.0000
  N   N38       1.0  0.58828  0.38078  0.33843  1.0000
  N   N39       1.0  0.37512  0.29101  0.31746  1.0000
  N   N40       1.0  0.37397  0.08692  0.34076  1.0000
  C   C181      1.0  0.86165  0.19203  0.32576  1.0000
  C   C182      1.0  0.88172  0.21208  0.32775  1.0000
  C   C183      1.0  0.87708  0.22960  0.32954  1.0000
  N   N41       1.0  0.85436  0.21941  0.32909  1.0000
  C   C184      1.0  0.84414  0.19669  0.32687  1.0000
  C   C185      1.0  0.82089  0.18026  0.32577  1.0000
  C   C186      1.0  0.80326  0.18535  0.32749  1.0000
  N   N42       1.0  0.80486  0.20571  0.32791  1.0000
  C   C187      1.0  0.78455  0.20423  0.32952  1.0000
  C   C188      1.0  0.76884  0.18142  0.33031  1.0000
  C   C189      1.0  0.78034  0.16982  0.32933  1.0000
  C   C190      1.0  0.77965  0.22191  0.32980  1.0000
  C   C191      1.0  0.79606  0.24507  0.32931  1.0000
  N   N43       1.0  0.81870  0.25510  0.32934  1.0000
  C   C192      1.0  0.82878  0.27774  0.32919  1.0000
  C   C193      1.0  0.81133  0.28251  0.32874  1.0000
  C   C194      1.0  0.79134  0.26255  0.32913  1.0000
  C   C195      1.0  0.85194  0.29412  0.32960  1.0000
  C   C196      1.0  0.86962  0.28921  0.33014  1.0000
  N   N44       1.0  0.86812  0.26889  0.33016  1.0000
  C   C197      1.0  0.88847  0.27047  0.33122  1.0000
  C   C198      1.0  0.90402  0.29339  0.33163  1.0000
  C   C199      1.0  0.89243  0.30491  0.33109  1.0000
  C   C200      1.0  0.89353  0.25284  0.33138  1.0000
  C   C201      1.0  0.91681  0.25934  0.33291  1.0000
  C   C202      1.0  0.96467  0.27935  0.33421  1.0000
  C   C203      1.0  0.95245  0.27283  0.25244  1.0000
  C   C204      1.0  0.92895  0.26310  0.25175  1.0000
  C   C205      1.0  0.85765  0.31706  0.33064  1.0000
  C   C206      1.0  0.86310  0.36085  0.33160  1.0000
  C   C207      1.0  0.86345  0.35052  0.24996  1.0000
  C   C208      1.0  0.86064  0.32885  0.24923  1.0000
  C   C209      1.0  0.75671  0.21623  0.32982  1.0000
  C   C210      1.0  0.74606  0.21600  0.24830  1.0000
  C   C211      1.0  0.72450  0.21345  0.24889  1.0000
  C   C212      1.0  0.71301  0.21108  0.33099  1.0000
  C   C213      1.0  0.81436  0.15698  0.32296  1.0000
  C   C214      1.0  0.80655  0.14468  0.24193  1.0000
  C   C215      1.0  0.79418  0.10913  0.32182  1.0000
  C   C216      1.0  0.79655  0.12116  0.24163  1.0000
  H   H91       1.0  0.79042  0.11276  0.18223  1.0000
  H   H92       1.0  0.80711  0.15270  0.18312  1.0000
  H   H93       1.0  0.86031  0.17660  0.32399  1.0000
  H   H94       1.0  0.89715  0.21341  0.32741  1.0000
  H   H95       1.0  0.84633  0.22744  0.33054  1.0000
  H   H96       1.0  0.82673  0.24706  0.32988  1.0000
  H   H97       1.0  0.77287  0.15277  0.33017  1.0000
  H   H98       1.0  0.75180  0.17418  0.33169  1.0000
  H   H99       1.0  0.75428  0.21858  0.18817  1.0000
  H   H100      1.0  0.71762  0.21404  0.18880  1.0000
  H   H101      1.0  0.77597  0.26134  0.32931  1.0000
  H   H102      1.0  0.81257  0.29790  0.32853  1.0000
  H   H103      1.0  0.92107  0.30084  0.33208  1.0000
  H   H104      1.0  0.89968  0.32195  0.33130  1.0000
  H   H105      1.0  0.86007  0.32145  0.18875  1.0000
  H   H106      1.0  0.86507  0.35846  0.18981  1.0000
  H   H107      1.0  0.92080  0.25950  0.19118  1.0000
  H   H108      1.0  0.96058  0.27558  0.19217  1.0000
  N   N45       1.0  0.86469  0.38091  0.32604  1.0000
  N   N46       1.0  0.69323  0.21007  0.33779  1.0000
  N   N47       1.0  0.78296  0.08670  0.31718  1.0000
  N   N48       1.0  0.98708  0.28962  0.34037  1.0000
  N   N49       1.0  0.23654  0.63399  0.27096  1.0000
  C   C217      1.0  0.23625  0.61528  0.24101  1.0000
  C   C218      1.0  0.23284  0.59840  0.30327  1.0000
  H   H109      1.0  0.23901  0.61399  0.17414  1.0000
  C   C219      1.0  0.23328  0.57932  0.27739  1.0000
  H   H110      1.0  0.23451  0.57683  0.21223  1.0000
  N   N50       1.0  0.44005  0.60519  0.27222  1.0000
  C   C220      1.0  0.45876  0.62362  0.24225  1.0000
  C   C221      1.0  0.47564  0.63705  0.30443  1.0000
  H   H111      1.0  0.46007  0.62767  0.17540  1.0000
  C   C222      1.0  0.49475  0.65656  0.27851  1.0000
  H   H112      1.0  0.49725  0.66030  0.21336  1.0000
  N   N51       1.0  0.46903  0.83773  0.27221  1.0000
  C   C223      1.0  0.45067  0.83808  0.24208  1.0000
  C   C224      1.0  0.43704  0.84128  0.30431  1.0000
  H   H113      1.0  0.44682  0.83559  0.17504  1.0000
  C   C225      1.0  0.41759  0.84095  0.27819  1.0000
  H   H114      1.0  0.41403  0.83991  0.21295  1.0000
  N   N52       1.0  0.86044  0.41712  0.27283  1.0000
  C   C226      1.0  0.86077  0.43584  0.24286  1.0000
  C   C227      1.0  0.86413  0.45269  0.30510  1.0000
  H   H115      1.0  0.85807  0.43715  0.17599  1.0000
  C   C228      1.0  0.86373  0.47180  0.27919  1.0000
  H   H116      1.0  0.86251  0.47428  0.21403  1.0000
  N   N53       1.0  0.65692  0.44597  0.27400  1.0000
  C   C229      1.0  0.63823  0.42756  0.24404  1.0000
  C   C230      1.0  0.62134  0.41406  0.30630  1.0000
  H   H117      1.0  0.63695  0.42356  0.17716  1.0000
  H   H118      1.0  0.65321  0.46829  0.00034  1.0000
  C   C231      1.0  0.60226  0.39455  0.28040  1.0000
  H   H119      1.0  0.59979  0.39088  0.21522  1.0000
  N   N54       1.0  0.62808  0.21358  0.27400  1.0000
  C   C232      1.0  0.64651  0.21331  0.24387  1.0000
  C   C233      1.0  0.65997  0.20988  0.30595  1.0000
  H   H120      1.0  0.65053  0.21604  0.17697  1.0000
  H   H121      1.0  0.60631  0.18768  0.00170  1.0000
  C   C234      1.0  0.67947  0.21028  0.27986  1.0000
  H   H122      1.0  0.68318  0.21152  0.21467  1.0000
  N   N55       1.0  0.06454  0.32736  0.26539  1.0000
  C   C235      1.0  0.04280  0.31772  0.23937  1.0000
  C   C236      1.0  0.02565  0.30846  0.30495  1.0000
  H   H123      1.0  0.03924  0.31723  0.17228  1.0000
  H   H124      1.0  0.07635  0.33528  0.00794  1.0000
  C   C237      1.0  0.00307  0.29826  0.28193  1.0000
  H   H125      1.0  0.99920  0.29791  0.21728  1.0000
  N   N56       1.0  0.74685  0.73994  0.26639  1.0000
  C   C238      1.0  0.75653  0.72787  0.24030  1.0000
  C   C239      1.0  0.76561  0.71984  0.30591  1.0000
  H   H126      1.0  0.75724  0.72497  0.17315  1.0000
  H   H127      1.0  0.73851  0.74390  0.00899  1.0000
  C   C240      1.0  0.77587  0.70751  0.28281  1.0000
  H   H128      1.0  0.77637  0.70411  0.21810  1.0000
  N   N57       1.0  0.33412  0.00955  0.26528  1.0000
  C   C241      1.0  0.34621  0.03131  0.23936  1.0000
  C   C242      1.0  0.35420  0.04839  0.30511  1.0000
  H   H129      1.0  0.34917  0.03494  0.17224  1.0000
  H   H130      1.0  0.33003  0.99703  0.00775  1.0000
  C   C243      1.0  0.36656  0.07099  0.28219  1.0000
  H   H131      1.0  0.37001  0.07492  0.21751  1.0000
  N   N58       1.0  0.03245  0.72395  0.26497  1.0000
  C   C244      1.0  0.05419  0.73365  0.23870  1.0000
  C   C245      1.0  0.07131  0.74268  0.30421  1.0000
  H   H132      1.0  0.05778  0.73437  0.17151  1.0000
  H   H133      1.0  0.02052  0.71583  0.00833  1.0000
  C   C246      1.0  0.09390  0.75295  0.28095  1.0000
  H   H134      1.0  0.09780  0.75347  0.21620  1.0000
  N   N59       1.0  0.35034  0.31132  0.26611  1.0000
  C   C247      1.0  0.34072  0.32343  0.23992  1.0000
  C   C248      1.0  0.33142  0.33130  0.30538  1.0000
  H   H135      1.0  0.34026  0.32651  0.17281  1.0000
  H   H136      1.0  0.35814  0.30748  0.00872  1.0000
  C   C249      1.0  0.32123  0.34369  0.28217  1.0000
  H   H137      1.0  0.32092  0.34722  0.21750  1.0000
  N   N60       1.0  0.76289  0.04159  0.26593  1.0000
  C   C250      1.0  0.75083  0.01985  0.23985  1.0000
  C   C251      1.0  0.74278  0.00272  0.30548  1.0000
  H   H138      1.0  0.74794  0.01627  0.17272  1.0000
  H   H139      1.0  0.76684  0.05388  0.00849  1.0000
  C   C252      1.0  0.73045  0.98013  0.28240  1.0000
  H   H140      1.0  0.72705  0.97625  0.21770  1.0000
  C   C253      1.0  0.28829  0.38495  0.41445  1.0000
  C   C254      1.0  0.29801  0.37117  0.41510  1.0000
  C   C255      1.0  0.35042  0.51813  0.41180  1.0000
  C   C256      1.0  0.37205  0.53701  0.41232  1.0000
  C   C257      1.0  0.23388  0.53583  0.41011  1.0000
  C   C258      1.0  0.23648  0.51684  0.40997  1.0000
  C   C259      1.0  0.16798  0.38134  0.40242  1.0000
  C   C260      1.0  0.14446  0.36767  0.40188  1.0000
  H   H141      1.0  0.13641  0.36169  0.46196  1.0000
  H   H142      1.0  0.17624  0.38492  0.46271  1.0000
  H   H143      1.0  0.23715  0.50996  0.47018  1.0000
  H   H144      1.0  0.23253  0.54219  0.47061  1.0000
  H   H145      1.0  0.34204  0.51234  0.47155  1.0000
  H   H146      1.0  0.37891  0.54417  0.47287  1.0000
  H   H147      1.0  0.30265  0.36761  0.47555  1.0000
  H   H148      1.0  0.28639  0.39124  0.47419  1.0000
  C   C261      1.0  0.68898  0.90598  0.41515  1.0000
  C   C262      1.0  0.70274  0.92948  0.41565  1.0000
  C   C263      1.0  0.55584  0.83491  0.41244  1.0000
  C   C264      1.0  0.53694  0.83764  0.41286  1.0000
  C   C265      1.0  0.53819  0.70063  0.41119  1.0000
  C   C266      1.0  0.55717  0.72222  0.41107  1.0000
  C   C267      1.0  0.69263  0.78924  0.40364  1.0000
  C   C268      1.0  0.70629  0.77938  0.40307  1.0000
  H   H149      1.0  0.71221  0.77728  0.46316  1.0000
  H   H150      1.0  0.68900  0.79390  0.46395  1.0000
  H   H151      1.0  0.56401  0.72977  0.47128  1.0000
  H   H152      1.0  0.53179  0.69291  0.47169  1.0000
  H   H153      1.0  0.56157  0.83232  0.47223  1.0000
  H   H154      1.0  0.52972  0.83733  0.47338  1.0000
  H   H155      1.0  0.70626  0.93772  0.47603  1.0000
  H   H156      1.0  0.68262  0.89782  0.47489  1.0000
  C   C269      1.0  0.16801  0.78564  0.41336  1.0000
  C   C270      1.0  0.14451  0.77591  0.41395  1.0000
  C   C271      1.0  0.23906  0.72353  0.41082  1.0000
  C   C272      1.0  0.23627  0.70188  0.41129  1.0000
  C   C273      1.0  0.37326  0.84009  0.41043  1.0000
  C   C274      1.0  0.35167  0.83746  0.41006  1.0000
  C   C275      1.0  0.28469  0.90598  0.40203  1.0000
  C   C276      1.0  0.29458  0.92950  0.40157  1.0000
  H   H157      1.0  0.29657  0.93751  0.46165  1.0000
  H   H158      1.0  0.27995  0.89767  0.46229  1.0000
  H   H159      1.0  0.34403  0.83672  0.47018  1.0000
  H   H160      1.0  0.38088  0.84134  0.47102  1.0000
  H   H161      1.0  0.24160  0.73186  0.47061  1.0000
  H   H162      1.0  0.23653  0.69498  0.47182  1.0000
  H   H163      1.0  0.13626  0.77121  0.47438  1.0000
  H   H164      1.0  0.17615  0.78747  0.47309  1.0000
  C   C277      1.0  0.80856  0.66609  0.41547  1.0000
  C   C278      1.0  0.79884  0.67987  0.41600  1.0000
  C   C279      1.0  0.74646  0.53292  0.41368  1.0000
  C   C280      1.0  0.72482  0.51405  0.41422  1.0000
  C   C281      1.0  0.86302  0.51525  0.41181  1.0000
  C   C282      1.0  0.86042  0.53424  0.41164  1.0000
  C   C283      1.0  0.92897  0.66971  0.40305  1.0000
  C   C284      1.0  0.95248  0.68336  0.40229  1.0000
  H   H165      1.0  0.96052  0.68933  0.46231  1.0000
  H   H166      1.0  0.92068  0.66614  0.46341  1.0000
  H   H167      1.0  0.85966  0.54107  0.47183  1.0000
  H   H168      1.0  0.86429  0.50885  0.47233  1.0000
  H   H169      1.0  0.75479  0.53869  0.47343  1.0000
  H   H170      1.0  0.71791  0.50686  0.47477  1.0000
  H   H171      1.0  0.79411  0.68340  0.47640  1.0000
  H   H172      1.0  0.81037  0.65976  0.47522  1.0000
  C   C285      1.0  0.40784  0.14503  0.41549  1.0000
  C   C286      1.0  0.39407  0.12153  0.41581  1.0000
  C   C287      1.0  0.54106  0.21615  0.41404  1.0000
  C   C288      1.0  0.55994  0.21339  0.41449  1.0000
  C   C289      1.0  0.55874  0.35037  0.41298  1.0000
  C   C290      1.0  0.53975  0.32878  0.41276  1.0000
  C   C291      1.0  0.40421  0.26179  0.40387  1.0000
  C   C292      1.0  0.39055  0.27164  0.40316  1.0000
  H   H173      1.0  0.38452  0.27368  0.46317  1.0000
  H   H174      1.0  0.40774  0.25706  0.46420  1.0000
  H   H175      1.0  0.53285  0.32119  0.47293  1.0000
  H   H176      1.0  0.56508  0.35804  0.47351  1.0000
  H   H177      1.0  0.53527  0.21871  0.47382  1.0000
  H   H178      1.0  0.56710  0.21367  0.47501  1.0000
  H   H179      1.0  0.39048  0.11325  0.47615  1.0000
  H   H180      1.0  0.41410  0.15314  0.47532  1.0000
  C   C293      1.0  0.92889  0.26540  0.41476  1.0000
  C   C294      1.0  0.95239  0.27514  0.41521  1.0000
  C   C295      1.0  0.85784  0.32753  0.41270  1.0000
  C   C296      1.0  0.86059  0.34916  0.41317  1.0000
  C   C297      1.0  0.72359  0.21091  0.41212  1.0000
  C   C298      1.0  0.74519  0.21351  0.41179  1.0000
  C   C299      1.0  0.81217  0.14504  0.40332  1.0000
  C   C300      1.0  0.80231  0.12153  0.40270  1.0000
  H   H181      1.0  0.80022  0.11347  0.46276  1.0000
  H   H182      1.0  0.81684  0.15331  0.46363  1.0000
  H   H183      1.0  0.75275  0.21421  0.47193  1.0000
  H   H184      1.0  0.71589  0.20957  0.47269  1.0000
  H   H185      1.0  0.85523  0.31916  0.47247  1.0000
  H   H186      1.0  0.86028  0.35604  0.47369  1.0000
  H   H187      1.0  0.96062  0.27980  0.47561  1.0000
  H   H188      1.0  0.92072  0.26356  0.47454  1.0000
  C   C301      1.0  0.23332  0.63758  0.35853  1.0000
  N   N61       1.0  0.22958  0.60197  0.39073  1.0000
  C   C302      1.0  0.22961  0.62058  0.42190  1.0000
  C   C303      1.0  0.22550  0.62178  0.51239  1.0000
  O   O1        1.0  0.23216  0.61292  0.56596  1.0000
  O   O2        1.0  0.20504  0.61849  0.53043  1.0000
  C   C304      1.0  0.20461  0.63302  0.59903  1.0000
  H   H189      1.0  0.18737  0.62928  0.60690  1.0000
  H   H190      1.0  0.21481  0.65063  0.58034  1.0000
  H   H191      1.0  0.21027  0.63019  0.66389  1.0000
  C   C305      1.0  0.23536  0.65802  0.38161  1.0000
  H   H192      1.0  0.24026  0.66374  0.44360  1.0000
  C   C306      1.0  0.43644  0.59834  0.35975  1.0000
  N   N62       1.0  0.47206  0.63019  0.39184  1.0000
  C   C307      1.0  0.45343  0.61161  0.42307  1.0000
  C   C308      1.0  0.45221  0.60620  0.51351  1.0000
  O   O3        1.0  0.46080  0.62190  0.56643  1.0000
  O   O4        1.0  0.45530  0.58897  0.53217  1.0000
  C   C309      1.0  0.44083  0.57435  0.60178  1.0000
  H   H193      1.0  0.44437  0.56072  0.61002  1.0000
  H   H194      1.0  0.42319  0.56707  0.58394  1.0000
  H   H195      1.0  0.44393  0.58307  0.66622  1.0000
  C   C310      1.0  0.41601  0.57990  0.38286  1.0000
  H   H196      1.0  0.41033  0.57897  0.44506  1.0000
  C   C311      1.0  0.47562  0.84064  0.35998  1.0000
  N   N63       1.0  0.44364  0.84424  0.39197  1.0000
  C   C312      1.0  0.46214  0.84410  0.42334  1.0000
  C   C313      1.0  0.46725  0.84792  0.51412  1.0000
  O   O5        1.0  0.45142  0.84025  0.56659  1.0000
  O   O6        1.0  0.48382  0.86864  0.53229  1.0000
  C   C314      1.0  0.49900  0.86958  0.60083  1.0000
  H   H197      1.0  0.51200  0.88701  0.60915  1.0000
  H   H198      1.0  0.50708  0.86001  0.58178  1.0000
  H   H199      1.0  0.49051  0.86352  0.66556  1.0000
  C   C315      1.0  0.49405  0.83867  0.38321  1.0000
  H   H200      1.0  0.49494  0.83395  0.44545  1.0000
  C   C316      1.0  0.86358  0.41348  0.36041  1.0000
  N   N64       1.0  0.86730  0.44909  0.39257  1.0000
  C   C317      1.0  0.86723  0.43046  0.42377  1.0000
  C   C318      1.0  0.87126  0.42922  0.51426  1.0000
  O   O7        1.0  0.86456  0.43808  0.56781  1.0000
  O   O8        1.0  0.89170  0.43250  0.53230  1.0000
  C   C319      1.0  0.89206  0.41794  0.60093  1.0000
  H   H201      1.0  0.90929  0.42166  0.60879  1.0000
  H   H202      1.0  0.88187  0.40033  0.58227  1.0000
  H   H203      1.0  0.88635  0.42076  0.66578  1.0000
  C   C320      1.0  0.86151  0.39303  0.38349  1.0000
  H   H204      1.0  0.85656  0.38729  0.44547  1.0000
  C   C321      1.0  0.66050  0.45274  0.36158  1.0000
  N   N65       1.0  0.62489  0.42084  0.39377  1.0000
  C   C322      1.0  0.64349  0.43941  0.42496  1.0000
  C   C323      1.0  0.64468  0.44467  0.51546  1.0000
  O   O9        1.0  0.63580  0.42911  0.56900  1.0000
  O   O10       1.0  0.64139  0.46183  0.53356  1.0000
  C   C324      1.0  0.65591  0.47675  0.60216  1.0000
  H   H205      1.0  0.65218  0.49025  0.61008  1.0000
  H   H206      1.0  0.67353  0.48417  0.58346  1.0000
  C   C325      1.0  0.68094  0.47113  0.38465  1.0000
  H   H207      1.0  0.68666  0.47191  0.44660  1.0000
  C   C326      1.0  0.62127  0.21036  0.36161  1.0000
  N   N66       1.0  0.65314  0.20660  0.39344  1.0000
  C   C327      1.0  0.63457  0.20665  0.42483  1.0000
  C   C328      1.0  0.62921  0.20247  0.51534  1.0000
  O   O11       1.0  0.64494  0.20960  0.56809  1.0000
  O   O12       1.0  0.61200  0.18215  0.53425  1.0000
  C   C329      1.0  0.59740  0.18198  0.60403  1.0000
  H   H208      1.0  0.58380  0.16481  0.61247  1.0000
  H   H209      1.0  0.59010  0.19232  0.58626  1.0000
  C   C330      1.0  0.60283  0.21232  0.38485  1.0000
  H   H210      1.0  0.60190  0.21704  0.44708  1.0000
  C   C331      1.0  0.07135  0.32898  0.35255  1.0000
  N   N67       1.0  0.03245  0.31017  0.39205  1.0000
  C   C332      1.0  0.05423  0.31981  0.41957  1.0000
  C   C333      1.0  0.05864  0.32076  0.51109  1.0000
  O   O13       1.0  0.04469  0.30547  0.55766  1.0000
  O   O14       1.0  0.06753  0.34132  0.54637  1.0000
  C   C334      1.0  0.08379  0.34601  0.61601  1.0000
  H   H211      1.0  0.09043  0.36330  0.63746  1.0000
  H   H212      1.0  0.09775  0.34419  0.59172  1.0000
  C   C335      1.0  0.09419  0.33864  0.37084  1.0000
  H   H213      1.0  0.09871  0.33480  0.42850  1.0000
  C   C336      1.0  0.74498  0.74493  0.35363  1.0000
  N   N68       1.0  0.76365  0.72475  0.39308  1.0000
  C   C337      1.0  0.75393  0.73682  0.42071  1.0000
  C   C338      1.0  0.75276  0.74007  0.51222  1.0000
  O   O15       1.0  0.76734  0.74046  0.56048  1.0000
  O   O16       1.0  0.73206  0.72915  0.54718  1.0000
  C   C339      1.0  0.72789  0.74120  0.61662  1.0000
  H   H214      1.0  0.71044  0.73118  0.63731  1.0000
  H   H215      1.0  0.73060  0.75732  0.59246  1.0000
  C   C340      1.0  0.73538  0.75818  0.37186  1.0000
  H   H216      1.0  0.73931  0.76665  0.42927  1.0000
  C   C341      1.0  0.32906  0.00265  0.35248  1.0000
  N   N69       1.0  0.34923  0.04148  0.39223  1.0000
  C   C342      1.0  0.33713  0.01968  0.41970  1.0000
  C   C343      1.0  0.33380  0.01521  0.51117  1.0000
  O   O17       1.0  0.33340  0.02939  0.55957  1.0000
  O   O18       1.0  0.34468  0.00540  0.54601  1.0000
  C   C344      1.0  0.33256  0.98914  0.61530  1.0000
  H   H217      1.0  0.34254  0.98169  0.63591  1.0000
  H   H218      1.0  0.31645  0.97575  0.59102  1.0000
  C   C345      1.0  0.31579  0.97980  0.37055  1.0000
  H   H219      1.0  0.30725  0.97523  0.42787  1.0000
  C   C346      1.0  0.02561  0.72204  0.35230  1.0000
  N   N70       1.0  0.06447  0.74067  0.39145  1.0000
  C   C347      1.0  0.04269  0.73096  0.41926  1.0000
  C   C348      1.0  0.03824  0.72967  0.51089  1.0000
  O   O19       1.0  0.05242  0.74456  0.55819  1.0000
  O   O20       1.0  0.02831  0.70906  0.54629  1.0000
  C   C349      1.0  0.01231  0.70522  0.61630  1.0000
  H   H220      1.0  0.00472  0.68779  0.63738  1.0000
  H   H221      1.0  0.99898  0.70811  0.59257  1.0000
  C   C350      1.0  0.00276  0.71240  0.37076  1.0000
  H   H222      1.0  0.99823  0.71627  0.42838  1.0000
  C   C351      1.0  0.35192  0.30611  0.35332  1.0000
  N   N71       1.0  0.33309  0.32619  0.39252  1.0000
  C   C352      1.0  0.34271  0.31404  0.42021  1.0000
  C   C353      1.0  0.34361  0.31056  0.51177  1.0000
  O   O21       1.0  0.32830  0.30921  0.55821  1.0000
  O   O22       1.0  0.36416  0.32223  0.54712  1.0000
  C   C354      1.0  0.36882  0.31064  0.61687  1.0000
  H   H223      1.0  0.38609  0.32128  0.63839  1.0000
  H   H224      1.0  0.36701  0.29486  0.59267  1.0000
  C   C355      1.0  0.36156  0.29292  0.37179  1.0000
  H   H225      1.0  0.35769  0.28454  0.42946  1.0000
  C   C356      1.0  0.76786  0.04842  0.35317  1.0000
  N   N72       1.0  0.74766  0.00955  0.39265  1.0000
  C   C357      1.0  0.75973  0.03133  0.42026  1.0000
  C   C358      1.0  0.76296  0.03571  0.51177  1.0000
  O   O23       1.0  0.76333  0.02150  0.56004  1.0000
  O   O24       1.0  0.75203  0.04548  0.54671  1.0000
  C   C359      1.0  0.76406  0.06168  0.61611  1.0000
  H   H226      1.0  0.75403  0.06909  0.63679  1.0000
  H   H227      1.0  0.78019  0.07510  0.59193  1.0000
  C   C360      1.0  0.78111  0.07125  0.37140  1.0000
  H   H228      1.0  0.78958  0.07577  0.42876  1.0000
