data_image0
_chemical_formula_structural       C2O2H2C2O2H2C2O2H2C2O2H2C2O2H2C2O2H2C4OHOHC4OHOHC4OHOHC4OHOHC4OHOHC4OHOHC4OHOHC4OHOHC4OHOHC4OHOHC4OHOHC4OHOHCNCNCNCNCNCNCNCNCNCNCNCNCNCNCNCNCNCNCNCNCNCNCNCNCNCNCNCNCNCNCNCNCNCNCNCNC4OHOHC4OHOHC4OHOHC4OHOHC4OHOHC4OHOHC2O2H2C2O2H2C2O2H2C2O2H2C2O2H2C2O2H2C2O2H2C2O2H2C2O2H2C2O2H2C2O2H2C2O2H2
_chemical_formula_sum              "C144 O72 H72 N36"
_cell_length_a       37.1045
_cell_length_b       37.1046
_cell_length_c       14.8193
_cell_angle_alpha    90
_cell_angle_beta     90
_cell_angle_gamma    120

_space_group_name_H-M_alt    "P 1"
_space_group_IT_number       1

loop_
  _space_group_symop_operation_xyz
  'x, y, z'

loop_
  _atom_site_type_symbol
  _atom_site_label
  _atom_site_symmetry_multiplicity
  _atom_site_fract_x
  _atom_site_fract_y
  _atom_site_fract_z
  _atom_site_occupancy
  C   C1        1.0  0.17388  0.37570  0.31023  1.0000
  C   C2        1.0  0.19476  0.41970  0.30648  1.0000
  O   O1        1.0  0.14533  0.35385  0.24480  1.0000
  O   O2        1.0  0.18673  0.43765  0.23473  1.0000
  H   H1        1.0  0.16029  0.34785  0.19768  1.0000
  H   H2        1.0  0.16099  0.43790  0.24943  1.0000
  C   C3        1.0  0.63128  0.81150  0.29003  1.0000
  C   C4        1.0  0.58726  0.78971  0.28623  1.0000
  O   O3        1.0  0.65321  0.82246  0.21129  1.0000
  O   O4        1.0  0.56856  0.77908  0.20368  1.0000
  H   H3        1.0  0.65775  0.79926  0.19564  1.0000
  H   H4        1.0  0.56493  0.80245  0.18440  1.0000
  C   C5        1.0  0.21600  0.83494  0.31176  1.0000
  C   C6        1.0  0.23825  0.81324  0.30557  1.0000
  O   O5        1.0  0.22238  0.86366  0.24697  1.0000
  O   O6        1.0  0.26571  0.82333  0.23594  1.0000
  H   H5        1.0  0.24782  0.88941  0.26435  1.0000
  H   H6        1.0  0.25043  0.80364  0.18689  1.0000
  C   C7        1.0  0.78793  0.62470  0.34217  1.0000
  C   C8        1.0  0.76602  0.58075  0.33438  1.0000
  O   O7        1.0  0.77118  0.64576  0.30059  1.0000
  O   O8        1.0  0.72947  0.56350  0.28756  1.0000
  H   H7        1.0  0.75025  0.64512  0.34243  1.0000
  H   H8        1.0  0.73652  0.56200  0.22411  1.0000
  C   C9        1.0  0.38003  0.21031  0.31327  1.0000
  C   C10       1.0  0.42397  0.23334  0.30780  1.0000
  O   O9        1.0  0.35788  0.21975  0.25382  1.0000
  O   O10       1.0  0.44114  0.26192  0.24007  1.0000
  H   H9        1.0  0.35120  0.20062  0.20245  1.0000
  H   H10       1.0  0.44193  0.28735  0.26190  1.0000
  C   C11       1.0  0.79459  0.16426  0.31891  1.0000
  C   C12       1.0  0.77248  0.18616  0.31460  1.0000
  O   O11       1.0  0.78539  0.13360  0.25709  1.0000
  O   O12       1.0  0.74253  0.17420  0.24978  1.0000
  H   H11       1.0  0.76054  0.10861  0.27979  1.0000
  H   H12       1.0  0.75599  0.19229  0.19730  1.0000
  C   C13       1.0  0.18367  0.22332  0.38094  1.0000
  C   C14       1.0  0.16669  0.18335  0.34034  1.0000
  C   C15       1.0  0.18849  0.16101  0.34012  1.0000
  C   C16       1.0  0.22846  0.17757  0.38023  1.0000
  O   O13       1.0  0.17004  0.12331  0.29800  1.0000
  H   H13       1.0  0.18088  0.12852  0.23588  1.0000
  O   O14       1.0  0.12904  0.16529  0.29809  1.0000
  H   H14       1.0  0.13439  0.17621  0.23603  1.0000
  C   C17       1.0  0.78293  0.95515  0.37376  1.0000
  C   C18       1.0  0.82299  0.97831  0.33367  1.0000
  C   C19       1.0  0.84532  0.02245  0.33446  1.0000
  C   C20       1.0  0.82873  0.04570  0.37527  1.0000
  O   O15       1.0  0.88314  0.04189  0.29287  1.0000
  H   H15       1.0  0.87811  0.04783  0.23085  1.0000
  O   O16       1.0  0.84111  0.95884  0.29115  1.0000
  H   H16       1.0  0.83010  0.95325  0.22916  1.0000
  C   C21       1.0  0.05191  0.82245  0.38242  1.0000
  C   C22       1.0  0.02887  0.83897  0.34017  1.0000
  C   C23       1.0  0.98476  0.81711  0.34019  1.0000
  C   C24       1.0  0.96141  0.77761  0.38243  1.0000
  O   O17       1.0  0.96550  0.83510  0.29620  1.0000
  H   H17       1.0  0.95965  0.82342  0.23480  1.0000
  O   O18       1.0  0.04841  0.87615  0.29601  1.0000
  H   H18       1.0  0.05415  0.87017  0.23464  1.0000
  C   C25       1.0  0.82956  0.77878  0.38084  1.0000
  C   C26       1.0  0.84632  0.81868  0.34019  1.0000
  C   C27       1.0  0.82387  0.84036  0.33826  1.0000
  C   C28       1.0  0.78352  0.82330  0.37696  1.0000
  O   O19       1.0  0.84218  0.87799  0.29589  1.0000
  H   H19       1.0  0.83175  0.87259  0.23343  1.0000
  O   O20       1.0  0.88439  0.83720  0.29970  1.0000
  H   H20       1.0  0.87972  0.82658  0.23741  1.0000
  C   C29       1.0  0.22853  0.04523  0.38124  1.0000
  C   C30       1.0  0.18874  0.02200  0.34004  1.0000
  C   C31       1.0  0.16687  0.97788  0.33942  1.0000
  C   C32       1.0  0.18372  0.95476  0.37978  1.0000
  O   O21       1.0  0.12933  0.95834  0.29667  1.0000
  H   H21       1.0  0.13486  0.95283  0.23471  1.0000
  O   O22       1.0  0.17049  0.04138  0.29769  1.0000
  H   H22       1.0  0.18164  0.04725  0.23583  1.0000
  C   C33       1.0  0.96113  0.17822  0.37893  1.0000
  C   C34       1.0  0.98438  0.16171  0.33756  1.0000
  C   C35       1.0  0.02851  0.18387  0.33716  1.0000
  C   C36       1.0  0.05169  0.22373  0.37795  1.0000
  O   O23       1.0  0.04799  0.16586  0.29423  1.0000
  H   H23       1.0  0.05365  0.17707  0.23241  1.0000
  O   O24       1.0  0.96501  0.12416  0.29485  1.0000
  H   H24       1.0  0.95927  0.12959  0.23299  1.0000
  C   C37       1.0  0.23115  0.65234  0.28791  1.0000
  C   C38       1.0  0.24524  0.63936  0.21216  1.0000
  C   C39       1.0  0.24568  0.60175  0.21367  1.0000
  C   C40       1.0  0.23130  0.57530  0.29029  1.0000
  O   O25       1.0  0.26360  0.59352  0.14209  1.0000
  H   H25       1.0  0.24104  0.56958  0.11035  1.0000
  O   O26       1.0  0.26274  0.66456  0.13904  1.0000
  H   H26       1.0  0.24006  0.66586  0.10759  1.0000
  C   C41       1.0  0.35543  0.57357  0.29304  1.0000
  C   C42       1.0  0.36826  0.59992  0.21613  1.0000
  C   C43       1.0  0.40635  0.63753  0.21546  1.0000
  C   C44       1.0  0.43308  0.65030  0.29173  1.0000
  O   O27       1.0  0.41463  0.66279  0.14220  1.0000
  H   H27       1.0  0.43849  0.66366  0.11118  1.0000
  O   O28       1.0  0.34267  0.59178  0.14352  1.0000
  H   H28       1.0  0.34117  0.56759  0.11267  1.0000
  C   C45       1.0  0.43397  0.77560  0.28605  1.0000
  C   C46       1.0  0.40681  0.76046  0.21056  1.0000
  C   C47       1.0  0.36905  0.76063  0.21016  1.0000
  C   C48       1.0  0.35700  0.77599  0.28520  1.0000
  O   O29       1.0  0.34313  0.74225  0.13846  1.0000
  H   H29       1.0  0.34183  0.76459  0.10552  1.0000
  O   O30       1.0  0.41438  0.74187  0.13931  1.0000
  H   H30       1.0  0.43827  0.76406  0.10668  1.0000
  C   C49       1.0  0.78280  0.34934  0.29449  1.0000
  C   C50       1.0  0.77013  0.36190  0.21587  1.0000
  C   C51       1.0  0.77105  0.40018  0.21278  1.0000
  C   C52       1.0  0.78406  0.42717  0.28871  1.0000
  O   O31       1.0  0.75487  0.40823  0.13781  1.0000
  H   H31       1.0  0.77818  0.43203  0.10737  1.0000
  O   O32       1.0  0.75300  0.33584  0.14382  1.0000
  H   H32       1.0  0.77578  0.33394  0.11450  1.0000
  C   C53       1.0  0.65806  0.42451  0.27935  1.0000
  C   C54       1.0  0.64652  0.39707  0.20450  1.0000
  C   C55       1.0  0.60830  0.35969  0.20346  1.0000
  C   C56       1.0  0.58042  0.34828  0.27750  1.0000
  O   O33       1.0  0.60094  0.33340  0.13257  1.0000
  H   H33       1.0  0.57756  0.33212  0.09861  1.0000
  O   O34       1.0  0.67314  0.40400  0.13450  1.0000
  H   H34       1.0  0.67513  0.42766  0.10034  1.0000
  C   C57       1.0  0.57814  0.22273  0.28655  1.0000
  C   C58       1.0  0.60558  0.23668  0.21137  1.0000
  C   C59       1.0  0.64424  0.23849  0.21545  1.0000
  C   C60       1.0  0.65627  0.22504  0.29360  1.0000
  O   O35       1.0  0.67078  0.25656  0.14451  1.0000
  H   H35       1.0  0.67290  0.23418  0.11385  1.0000
  O   O36       1.0  0.59765  0.25306  0.13657  1.0000
  H   H36       1.0  0.57394  0.22983  0.10573  1.0000
  C   C61       1.0  0.16141  0.24595  0.38153  1.0000
  N   N1        1.0  0.18165  0.28843  0.38272  1.0000
  C   C62       1.0  0.16124  0.31038  0.38171  1.0000
  N   N2        1.0  0.11890  0.28842  0.37894  1.0000
  C   C63       1.0  0.09655  0.24603  0.37870  1.0000
  N   N3        1.0  0.11894  0.22597  0.37978  1.0000
  C   C64       1.0  0.76048  0.91027  0.37435  1.0000
  N   N4        1.0  0.71802  0.88788  0.37502  1.0000
  C   C65       1.0  0.69645  0.84556  0.37675  1.0000
  N   N5        1.0  0.71835  0.82514  0.37644  1.0000
  C   C66       1.0  0.76081  0.84549  0.37592  1.0000
  N   N6        1.0  0.78064  0.88796  0.37502  1.0000
  C   C67       1.0  0.09676  0.84485  0.38277  1.0000
  N   N7        1.0  0.11921  0.82482  0.38308  1.0000
  C   C68       1.0  0.16159  0.84553  0.38150  1.0000
  N   N8        1.0  0.18166  0.88787  0.37947  1.0000
  C   C69       1.0  0.16136  0.90995  0.38009  1.0000
  N   N9        1.0  0.11894  0.88732  0.38147  1.0000
  C   C70       1.0  0.85220  0.75653  0.38242  1.0000
  N   N10       1.0  0.83196  0.71418  0.38335  1.0000
  C   C71       1.0  0.85138  0.69124  0.38426  1.0000
  N   N11       1.0  0.89382  0.71316  0.38392  1.0000
  C   C72       1.0  0.91656  0.75561  0.38302  1.0000
  N   N12       1.0  0.89461  0.77615  0.38214  1.0000
  C   C73       1.0  0.25079  0.09007  0.38190  1.0000
  N   N13       1.0  0.29324  0.11241  0.38181  1.0000
  C   C74       1.0  0.31512  0.15477  0.38091  1.0000
  N   N14       1.0  0.29295  0.17494  0.37959  1.0000
  C   C75       1.0  0.25058  0.15484  0.38042  1.0000
  N   N15       1.0  0.23061  0.11239  0.38125  1.0000
  C   C76       1.0  0.91624  0.15562  0.37957  1.0000
  N   N16       1.0  0.89381  0.17565  0.38133  1.0000
  C   C77       1.0  0.85143  0.15513  0.38057  1.0000
  N   N17       1.0  0.83137  0.11281  0.37784  1.0000
  C   C78       1.0  0.85149  0.09056  0.37677  1.0000
  N   N18       1.0  0.89394  0.11312  0.37743  1.0000
  C   C79       1.0  0.31210  0.54754  0.30829  1.0000
  N   N19       1.0  0.29134  0.50854  0.34472  1.0000
  C   C80       1.0  0.24919  0.48869  0.35944  1.0000
  N   N20       1.0  0.22833  0.50979  0.34261  1.0000
  C   C81       1.0  0.24780  0.54871  0.30646  1.0000
  N   N21       1.0  0.28896  0.56557  0.28987  1.0000
  C   C82       1.0  0.46025  0.75875  0.30292  1.0000
  N   N22       1.0  0.49903  0.77766  0.34017  1.0000
  C   C83       1.0  0.51886  0.75577  0.35910  1.0000
  N   N23       1.0  0.49871  0.71376  0.34307  1.0000
  C   C84       1.0  0.45986  0.69360  0.30600  1.0000
  N   N24       1.0  0.44271  0.71744  0.28689  1.0000
  C   C85       1.0  0.24828  0.69567  0.30247  1.0000
  N   N25       1.0  0.23027  0.71632  0.34039  1.0000
  C   C86       1.0  0.25264  0.75838  0.35578  1.0000
  N   N26       1.0  0.29457  0.77928  0.33831  1.0000
  C   C87       1.0  0.31389  0.75994  0.30072  1.0000
  N   N27       1.0  0.28940  0.71884  0.28384  1.0000
  C   C88       1.0  0.70101  0.45148  0.29640  1.0000
  N   N28       1.0  0.71975  0.48984  0.33500  1.0000
  C   C89       1.0  0.76162  0.51184  0.35281  1.0000
  N   N29       1.0  0.78409  0.49205  0.33865  1.0000
  C   C90       1.0  0.76679  0.45342  0.30067  1.0000
  N   N30       1.0  0.72583  0.43521  0.28039  1.0000
  C   C91       1.0  0.55166  0.23970  0.29913  1.0000
  N   N31       1.0  0.51293  0.22209  0.33674  1.0000
  C   C92       1.0  0.49327  0.24468  0.35024  1.0000
  N   N32       1.0  0.51463  0.28650  0.33185  1.0000
  C   C93       1.0  0.55321  0.30536  0.29419  1.0000
  N   N33       1.0  0.56967  0.28065  0.27897  1.0000
  C   C94       1.0  0.76488  0.30607  0.31110  1.0000
  N   N34       1.0  0.78315  0.28532  0.34726  1.0000
  C   C95       1.0  0.76084  0.24325  0.36276  1.0000
  N   N35       1.0  0.71880  0.22254  0.34681  1.0000
  C   C96       1.0  0.69935  0.24201  0.31070  1.0000
  N   N36       1.0  0.72366  0.28309  0.29308  1.0000
  C   C97       1.0  0.22624  0.44445  0.36994  1.0000
  C   C98       1.0  0.23592  0.42358  0.43757  1.0000
  C   C99       1.0  0.21500  0.37942  0.44125  1.0000
  C   C100      1.0  0.18311  0.35482  0.37860  1.0000
  O   O37       1.0  0.22393  0.36072  0.50992  1.0000
  H   H37       1.0  0.24993  0.36145  0.49309  1.0000
  O   O38       1.0  0.26582  0.44578  0.50013  1.0000
  H   H38       1.0  0.25187  0.45211  0.54895  1.0000
  C   C101      1.0  0.56302  0.77788  0.36629  1.0000
  C   C102      1.0  0.58395  0.78957  0.45033  1.0000
  C   C103      1.0  0.62810  0.81144  0.45414  1.0000
  C   C104      1.0  0.65223  0.82318  0.37401  1.0000
  O   O39       1.0  0.64711  0.82230  0.53622  1.0000
  H   H39       1.0  0.65204  0.79960  0.55414  1.0000
  O   O40       1.0  0.56179  0.77864  0.52862  1.0000
  H   H40       1.0  0.55716  0.80182  0.54381  1.0000
  C   C105      1.0  0.23130  0.78122  0.36773  1.0000
  C   C106      1.0  0.19957  0.77007  0.43319  1.0000
  C   C107      1.0  0.17707  0.79167  0.43914  1.0000
  C   C108      1.0  0.18459  0.82411  0.37781  1.0000
  O   O41       1.0  0.14783  0.78052  0.50517  1.0000
  H   H41       1.0  0.16173  0.79962  0.55592  1.0000
  O   O42       1.0  0.19217  0.73995  0.49499  1.0000
  H   H42       1.0  0.16706  0.71464  0.47449  1.0000
  C   C109      1.0  0.78212  0.55601  0.37012  1.0000
  C   C110      1.0  0.82147  0.57766  0.41370  1.0000
  C   C111      1.0  0.84387  0.62175  0.41964  1.0000
  C   C112      1.0  0.82799  0.64640  0.38256  1.0000
  O   O43       1.0  0.88154  0.63981  0.46178  1.0000
  H   H43       1.0  0.87642  0.64462  0.52460  1.0000
  O   O44       1.0  0.83936  0.55662  0.44997  1.0000
  H   H44       1.0  0.82665  0.54704  0.50984  1.0000
  C   C113      1.0  0.44918  0.22387  0.36401  1.0000
  C   C114      1.0  0.42871  0.19081  0.42671  1.0000
  C   C115      1.0  0.38460  0.16768  0.43213  1.0000
  C   C116      1.0  0.35956  0.17750  0.37647  1.0000
  O   O45       1.0  0.36647  0.13741  0.49612  1.0000
  H   H45       1.0  0.36772  0.11318  0.47312  1.0000
  O   O46       1.0  0.45117  0.18034  0.48263  1.0000
  H   H46       1.0  0.45881  0.19909  0.53495  1.0000
  C   C117      1.0  0.78209  0.22017  0.37318  1.0000
  C   C118      1.0  0.81622  0.23284  0.43289  1.0000
  C   C119      1.0  0.83858  0.21104  0.43690  1.0000
  C   C120      1.0  0.82849  0.17672  0.37914  1.0000
  O   O47       1.0  0.87022  0.22396  0.49766  1.0000
  H   H47       1.0  0.85833  0.20630  0.55136  1.0000
  O   O48       1.0  0.82632  0.26486  0.49134  1.0000
  H   H48       1.0  0.85097  0.28923  0.46599  1.0000
  C   C121      1.0  0.24566  0.21771  0.42004  1.0000
  C   C122      1.0  0.22381  0.24000  0.42044  1.0000
  O   O49       1.0  0.28365  0.23601  0.46101  1.0000
  O   O50       1.0  0.24256  0.27791  0.46174  1.0000
  H   H49       1.0  0.27880  0.22525  0.52317  1.0000
  H   H50       1.0  0.23198  0.27303  0.52406  1.0000
  C   C123      1.0  0.78848  0.02254  0.41455  1.0000
  C   C124      1.0  0.76616  0.97841  0.41383  1.0000
  O   O51       1.0  0.77009  0.04198  0.45624  1.0000
  O   O52       1.0  0.72819  0.95903  0.45489  1.0000
  H   H51       1.0  0.78073  0.04753  0.51852  1.0000
  H   H52       1.0  0.73299  0.95307  0.51708  1.0000
  C   C125      1.0  0.98445  0.76089  0.42389  1.0000
  C   C126      1.0  0.02859  0.78274  0.42383  1.0000
  O   O53       1.0  0.96483  0.72345  0.46701  1.0000
  O   O54       1.0  0.04797  0.76456  0.46662  1.0000
  H   H53       1.0  0.95912  0.72909  0.52870  1.0000
  H   H54       1.0  0.05398  0.77596  0.52825  1.0000
  C   C127      1.0  0.76667  0.78329  0.41721  1.0000
  C   C128      1.0  0.78909  0.76160  0.41905  1.0000
  O   O55       1.0  0.72844  0.76453  0.45715  1.0000
  O   O56       1.0  0.77051  0.72372  0.46055  1.0000
  H   H55       1.0  0.73280  0.77531  0.51927  1.0000
  H   H56       1.0  0.78089  0.72874  0.52303  1.0000
  C   C129      1.0  0.22367  0.97797  0.42028  1.0000
  C   C130      1.0  0.24550  0.02209  0.42105  1.0000
  O   O57       1.0  0.24216  0.95856  0.46161  1.0000
  O   O58       1.0  0.28321  0.04154  0.46316  1.0000
  H   H57       1.0  0.23122  0.95250  0.52363  1.0000
  H   H58       1.0  0.27797  0.04721  0.52522  1.0000
  C   C131      1.0  0.02849  0.24045  0.41857  1.0000
  C   C132      1.0  0.98435  0.21826  0.41908  1.0000
  O   O59       1.0  0.04796  0.27827  0.46029  1.0000
  O   O60       1.0  0.96492  0.23655  0.46124  1.0000
  H   H59       1.0  0.05384  0.27320  0.52231  1.0000
  H   H60       1.0  0.95925  0.22564  0.52330  1.0000
  C   C133      1.0  0.20900  0.58379  0.35701  1.0000
  C   C134      1.0  0.20904  0.62225  0.35596  1.0000
  O   O61       1.0  0.19596  0.56038  0.43348  1.0000
  O   O62       1.0  0.19620  0.63332  0.43174  1.0000
  H   H61       1.0  0.16755  0.53776  0.42073  1.0000
  H   H62       1.0  0.16818  0.62845  0.41812  1.0000
  C   C135      1.0  0.42441  0.62021  0.36026  1.0000
  C   C136      1.0  0.38572  0.58198  0.36093  1.0000
  O   O63       1.0  0.44800  0.63120  0.43650  1.0000
  O   O64       1.0  0.37463  0.55870  0.43763  1.0000
  H   H63       1.0  0.47060  0.62533  0.42424  1.0000
  H   H64       1.0  0.37985  0.53565  0.42560  1.0000
  C   C137      1.0  0.38785  0.79901  0.35128  1.0000
  C   C138      1.0  0.42615  0.79876  0.35178  1.0000
  O   O65       1.0  0.37764  0.81316  0.42627  1.0000
  O   O66       1.0  0.45026  0.81264  0.42717  1.0000
  H   H65       1.0  0.38367  0.84147  0.41153  1.0000
  H   H66       1.0  0.47262  0.84098  0.41293  1.0000
  C   C139      1.0  0.80432  0.41847  0.35984  1.0000
  C   C140      1.0  0.80378  0.37978  0.36260  1.0000
  O   O67       1.0  0.81579  0.44222  0.43591  1.0000
  O   O68       1.0  0.81476  0.36887  0.44125  1.0000
  H   H67       1.0  0.84415  0.46524  0.42456  1.0000
  H   H68       1.0  0.84273  0.37290  0.43105  1.0000
  C   C141      1.0  0.58784  0.37956  0.34212  1.0000
  C   C142      1.0  0.62655  0.41768  0.34284  1.0000
  O   O69       1.0  0.56284  0.37006  0.41588  1.0000
  O   O70       1.0  0.63613  0.44235  0.41717  1.0000
  H   H69       1.0  0.54062  0.37583  0.39867  1.0000
  H   H70       1.0  0.63061  0.46480  0.40052  1.0000
  C   C143      1.0  0.62524  0.20256  0.35974  1.0000
  C   C144      1.0  0.58639  0.20168  0.35662  1.0000
  O   O71       1.0  0.63559  0.19036  0.43744  1.0000
  O   O72       1.0  0.56202  0.18899  0.43175  1.0000
  H   H71       1.0  0.63005  0.16192  0.42623  1.0000
  H   H72       1.0  0.53918  0.16077  0.41835  1.0000
