data_image0
_chemical_formula_structural       C2NC2OH3C2NC2OH3NCHNCHNCHNCHC2NC2OH3C2NC2OH3C2NC2OH3C2NC2OH3NCHNCHNCHNCHC2NC2OH3C2NC2OH3C2NC2OH3C2NC2OH3CNCNCNCNCNCNCNCNCNCNCNCNCNCNCNCNCNCNCNCNCNCNCNCNCNCNCNCNCNCNCNCNCNCNCNCN2CHNCHC2NC2OH3C2NC2OH3C2NC2OH3C2NC2OH3NCHNCHNCHNCHC2NC2OH3C2NC2OH3C2NC2OH3C2NC2OH3NCHNCHNCHNCH
_chemical_formula_sum              "C126 N72 O18 H72"
_cell_length_a       33.8501
_cell_length_b       33.6891
_cell_length_c       14.9028
_cell_angle_alpha    90
_cell_angle_beta     90
_cell_angle_gamma    90.2805

_space_group_name_H-M_alt    "P 1"
_space_group_IT_number       1

loop_
  _space_group_symop_operation_xyz
  'x, y, z'

loop_
  _atom_site_type_symbol
  _atom_site_label
  _atom_site_symmetry_multiplicity
  _atom_site_fract_x
  _atom_site_fract_y
  _atom_site_fract_z
  _atom_site_occupancy
  C   C1        1.0  0.97374  0.53112  0.32307  1.0000
  C   C2        1.0  0.02998  0.46982  0.32966  1.0000
  N   N1        1.0  0.03815  0.50580  0.29279  1.0000
  C   C3        1.0  0.01233  0.53656  0.28687  1.0000
  C   C4        1.0  0.02598  0.57203  0.23641  1.0000
  O   O1        1.0  0.00042  0.58154  0.16299  1.0000
  H   H1        1.0  0.05601  0.56797  0.21081  1.0000
  H   H2        1.0  0.02706  0.59733  0.28156  1.0000
  H   H3        1.0  0.00197  0.55994  0.11859  1.0000
  C   C5        1.0  0.46883  0.97284  0.32297  1.0000
  C   C6        1.0  0.53104  0.02859  0.32824  1.0000
  N   N2        1.0  0.49518  0.03727  0.29258  1.0000
  C   C7        1.0  0.46400  0.01171  0.28727  1.0000
  C   C8        1.0  0.42865  0.02597  0.23830  1.0000
  O   O2        1.0  0.41819  0.00067  0.16472  1.0000
  H   H4        1.0  0.43311  0.05619  0.21315  1.0000
  H   H5        1.0  0.40382  0.02712  0.28438  1.0000
  H   H6        1.0  0.43942  0.00218  0.11961  1.0000
  N   N3        1.0  0.09865  0.30504  0.34203  1.0000
  C   C9        1.0  0.09441  0.26500  0.34416  1.0000
  H   H7        1.0  0.11840  0.24755  0.33165  1.0000
  N   N4        1.0  0.90472  0.69462  0.32044  1.0000
  C   C10       1.0  0.90871  0.73469  0.32097  1.0000
  H   H8        1.0  0.88691  0.75171  0.29352  1.0000
  N   N5        1.0  0.69591  0.09765  0.33918  1.0000
  C   C11       1.0  0.73574  0.09344  0.34090  1.0000
  H   H9        1.0  0.75329  0.11759  0.32844  1.0000
  N   N6        1.0  0.30515  0.90364  0.31879  1.0000
  C   C12       1.0  0.26531  0.90793  0.31918  1.0000
  H   H10       1.0  0.24806  0.88622  0.29129  1.0000
  C   C13       1.0  0.43405  0.83266  0.32226  1.0000
  C   C14       1.0  0.44803  0.74996  0.32213  1.0000
  N   N7        1.0  0.47734  0.77708  0.30916  1.0000
  C   C15       1.0  0.47269  0.81724  0.30761  1.0000
  C   C16       1.0  0.50883  0.84108  0.28932  1.0000
  O   O3        1.0  0.50561  0.86369  0.20824  1.0000
  H   H11       1.0  0.53493  0.82211  0.28452  1.0000
  H   H12       1.0  0.51403  0.86134  0.34522  1.0000
  H   H13       1.0  0.50403  0.84509  0.15735  1.0000
  C   C17       1.0  0.56802  0.16777  0.31648  1.0000
  C   C18       1.0  0.55453  0.25048  0.31580  1.0000
  N   N8        1.0  0.52511  0.22354  0.30239  1.0000
  C   C19       1.0  0.52951  0.18337  0.30096  1.0000
  C   C20       1.0  0.49319  0.15980  0.28263  1.0000
  O   O4        1.0  0.49651  0.13652  0.20256  1.0000
  H   H14       1.0  0.46733  0.17902  0.27642  1.0000
  H   H15       1.0  0.48746  0.14004  0.33917  1.0000
  H   H16       1.0  0.49855  0.15470  0.15099  1.0000
  C   C21       1.0  0.83388  0.56596  0.32309  1.0000
  C   C22       1.0  0.75119  0.55353  0.32244  1.0000
  N   N9        1.0  0.77737  0.52354  0.30974  1.0000
  C   C23       1.0  0.81749  0.52745  0.30850  1.0000
  C   C24       1.0  0.84037  0.49081  0.29066  1.0000
  O   O5        1.0  0.86299  0.49358  0.20962  1.0000
  H   H17       1.0  0.82088  0.46484  0.28614  1.0000
  H   H18       1.0  0.86041  0.48546  0.34664  1.0000
  H   H19       1.0  0.84454  0.49528  0.15866  1.0000
  C   C25       1.0  0.16890  0.43341  0.31847  1.0000
  C   C26       1.0  0.25152  0.44620  0.31719  1.0000
  N   N10       1.0  0.22522  0.47609  0.30500  1.0000
  C   C27       1.0  0.18513  0.47203  0.30396  1.0000
  C   C28       1.0  0.16220  0.50876  0.28719  1.0000
  O   O6        1.0  0.13894  0.50616  0.20706  1.0000
  H   H20       1.0  0.18171  0.53470  0.28201  1.0000
  H   H21       1.0  0.14262  0.51414  0.34400  1.0000
  H   H22       1.0  0.15698  0.50445  0.15536  1.0000
  N   N11       1.0  0.10829  0.04293  0.28201  1.0000
  C   C29       1.0  0.08555  0.07545  0.27555  1.0000
  H   H23       1.0  0.06017  0.07370  0.23848  1.0000
  N   N12       1.0  0.89214  0.95689  0.27659  1.0000
  C   C30       1.0  0.91479  0.92436  0.26860  1.0000
  H   H24       1.0  0.94003  0.92628  0.23110  1.0000
  N   N13       1.0  0.95762  0.10726  0.28232  1.0000
  C   C31       1.0  0.92485  0.08480  0.27388  1.0000
  H   H25       1.0  0.92642  0.05949  0.23615  1.0000
  N   N14       1.0  0.04328  0.89292  0.27796  1.0000
  C   C32       1.0  0.07614  0.91528  0.26978  1.0000
  H   H26       1.0  0.07461  0.94086  0.23303  1.0000
  C   C33       1.0  0.36114  0.54137  0.34445  1.0000
  C   C34       1.0  0.40875  0.61016  0.35232  1.0000
  N   N15       1.0  0.37372  0.60947  0.30708  1.0000
  C   C35       1.0  0.34890  0.57722  0.30252  1.0000
  C   C36       1.0  0.31272  0.58041  0.24703  1.0000
  O   O7        1.0  0.31325  0.55414  0.17145  1.0000
  H   H27       1.0  0.30862  0.61087  0.22331  1.0000
  H   H28       1.0  0.28717  0.57295  0.28846  1.0000
  H   H29       1.0  0.33448  0.56281  0.13061  1.0000
  C   C37       1.0  0.64142  0.45872  0.34597  1.0000
  C   C38       1.0  0.59384  0.38992  0.35087  1.0000
  N   N16       1.0  0.62887  0.39096  0.30568  1.0000
  C   C39       1.0  0.65367  0.42324  0.30248  1.0000
  C   C40       1.0  0.68988  0.42048  0.24694  1.0000
  O   O8        1.0  0.68939  0.44736  0.17245  1.0000
  H   H30       1.0  0.69398  0.39023  0.22199  1.0000
  H   H31       1.0  0.71541  0.42761  0.28874  1.0000
  H   H32       1.0  0.66817  0.43903  0.13122  1.0000
  C   C41       1.0  0.54423  0.64202  0.34854  1.0000
  C   C42       1.0  0.61289  0.59511  0.35516  1.0000
  N   N17       1.0  0.61140  0.62944  0.30677  1.0000
  C   C43       1.0  0.57922  0.65398  0.30276  1.0000
  C   C44       1.0  0.58135  0.68927  0.24356  1.0000
  O   O9        1.0  0.55404  0.68697  0.17028  1.0000
  H   H33       1.0  0.61125  0.69334  0.21704  1.0000
  H   H34       1.0  0.57442  0.71560  0.28307  1.0000
  H   H35       1.0  0.56213  0.66499  0.13085  1.0000
  C   C45       1.0  0.45837  0.35821  0.34361  1.0000
  C   C46       1.0  0.38973  0.40503  0.35045  1.0000
  N   N18       1.0  0.39126  0.37084  0.30159  1.0000
  C   C47       1.0  0.42346  0.34635  0.29741  1.0000
  C   C48       1.0  0.42140  0.31116  0.23790  1.0000
  O   O10       1.0  0.44877  0.31360  0.16475  1.0000
  H   H36       1.0  0.39152  0.30712  0.21120  1.0000
  H   H37       1.0  0.42830  0.28476  0.27720  1.0000
  H   H38       1.0  0.44070  0.33564  0.12549  1.0000
  C   C49       1.0  0.12801  0.42301  0.32505  1.0000
  N   N19       1.0  0.09852  0.45029  0.32304  1.0000
  C   C50       1.0  0.05974  0.44040  0.33243  1.0000
  N   N20       1.0  0.05076  0.40142  0.34409  1.0000
  C   C51       1.0  0.07865  0.37258  0.34673  1.0000
  N   N21       1.0  0.11697  0.38439  0.33686  1.0000
  C   C52       1.0  0.87481  0.57645  0.32727  1.0000
  N   N22       1.0  0.90473  0.54963  0.32327  1.0000
  C   C53       1.0  0.94358  0.56031  0.32662  1.0000
  N   N23       1.0  0.95212  0.59952  0.33725  1.0000
  C   C54       1.0  0.92359  0.62766  0.34344  1.0000
  N   N24       1.0  0.88539  0.61526  0.33715  1.0000
  C   C55       1.0  0.57857  0.12688  0.32304  1.0000
  N   N25       1.0  0.55128  0.09716  0.32142  1.0000
  C   C56       1.0  0.56082  0.05826  0.33068  1.0000
  N   N26       1.0  0.59957  0.04932  0.34196  1.0000
  C   C57       1.0  0.62849  0.07745  0.34426  1.0000
  N   N27       1.0  0.61699  0.11596  0.33449  1.0000
  C   C58       1.0  0.42302  0.87352  0.32649  1.0000
  N   N28       1.0  0.44973  0.90377  0.32290  1.0000
  C   C59       1.0  0.43933  0.94269  0.32641  1.0000
  N   N29       1.0  0.40032  0.95104  0.33671  1.0000
  C   C60       1.0  0.37217  0.92220  0.34256  1.0000
  N   N30       1.0  0.38436  0.88383  0.33615  1.0000
  C   C61       1.0  0.99922  0.15661  0.34033  1.0000
  N   N31       1.0  0.00922  0.19539  0.35153  1.0000
  C   C62       1.0  0.04782  0.20752  0.35511  1.0000
  N   N32       1.0  0.07694  0.17968  0.34732  1.0000
  C   C63       1.0  0.06807  0.14062  0.33559  1.0000
  N   N33       1.0  0.02933  0.13056  0.33233  1.0000
  C   C64       1.0  0.00154  0.84334  0.33457  1.0000
  N   N34       1.0  0.99155  0.80458  0.34651  1.0000
  C   C65       1.0  0.95295  0.79251  0.34911  1.0000
  N   N35       1.0  0.92381  0.82020  0.33999  1.0000
  C   C66       1.0  0.93272  0.85921  0.32798  1.0000
  N   N36       1.0  0.97144  0.86936  0.32546  1.0000
  C   C67       1.0  0.84298  0.99807  0.33502  1.0000
  N   N37       1.0  0.80444  0.00795  0.34658  1.0000
  C   C68       1.0  0.79264  0.04670  0.35094  1.0000
  N   N38       1.0  0.82057  0.07606  0.34375  1.0000
  C   C69       1.0  0.85939  0.06728  0.33175  1.0000
  N   N39       1.0  0.86908  0.02842  0.32779  1.0000
  C   C70       1.0  0.15801  0.00142  0.33676  1.0000
  N   N40       1.0  0.19657  0.99136  0.34768  1.0000
  C   C71       1.0  0.20828  0.95251  0.34868  1.0000
  N   N41       1.0  0.18038  0.92327  0.33918  1.0000
  C   C72       1.0  0.14158  0.93225  0.32830  1.0000
  N   N42       1.0  0.13191  0.97114  0.32739  1.0000
  C   C73       1.0  0.50557  0.65814  0.34125  1.0000
  N   N43       1.0  0.49572  0.69696  0.33049  1.0000
  C   C74       1.0  0.45713  0.70888  0.32666  1.0000
  N   N44       1.0  0.42796  0.68071  0.33330  1.0000
  C   C75       1.0  0.43659  0.64165  0.34449  1.0000
  N   N45       1.0  0.47529  0.63192  0.34813  1.0000
  C   C76       1.0  0.49705  0.34217  0.33640  1.0000
  N   N46       1.0  0.50691  0.30343  0.32462  1.0000
  C   C77       1.0  0.54550  0.29152  0.32103  1.0000
  N   N47       1.0  0.57468  0.31959  0.32911  1.0000
  C   C78       1.0  0.56600  0.35857  0.34137  1.0000
  N   N48       1.0  0.52731  0.36833  0.34462  1.0000
  C   C79       1.0  0.65830  0.49739  0.33998  1.0000
  N   N49       1.0  0.69716  0.50673  0.32945  1.0000
  C   C80       1.0  0.71003  0.54529  0.32671  1.0000
  N   N50       1.0  0.68277  0.57504  0.33446  1.0000
  C   C81       1.0  0.64366  0.56692  0.34561  1.0000
  N   N51       1.0  0.63300  0.52818  0.34797  1.0000
  C   C82       1.0  0.34418  0.50274  0.33723  1.0000
  N   N52       1.0  0.30537  0.49333  0.32591  1.0000
  C   C83       1.0  0.29262  0.45472  0.32199  1.0000
  N   N53       1.0  0.31993  0.42502  0.32936  1.0000
  C   C84       1.0  0.35896  0.43321  0.34123  1.0000
  N   N54       1.0  0.36951  0.47195  0.34471  1.0000
  N   N55       1.0  0.96522  0.49468  0.35789  1.0000
  C   C85       1.0  0.99115  0.46411  0.36174  1.0000
  H   H39       1.0  0.98235  0.43792  0.39012  1.0000
  N   N56       1.0  0.50514  0.96382  0.35660  1.0000
  C   C86       1.0  0.53614  0.98949  0.35981  1.0000
  H   H40       1.0  0.56217  0.98034  0.38740  1.0000
  C   C87       1.0  0.06887  0.33153  0.35527  1.0000
  C   C88       1.0  0.05658  0.24865  0.35928  1.0000
  N   N57       1.0  0.02692  0.27494  0.37323  1.0000
  C   C89       1.0  0.03075  0.31517  0.37317  1.0000
  C   C90       1.0  0.99435  0.33793  0.39333  1.0000
  O   O11       1.0  0.99859  0.36188  0.47223  1.0000
  H   H41       1.0  0.96890  0.31813  0.40231  1.0000
  H   H42       1.0  0.98746  0.35709  0.33652  1.0000
  H   H43       1.0  0.00162  0.34413  0.52430  1.0000
  C   C91       1.0  0.93230  0.66880  0.35200  1.0000
  C   C92       1.0  0.94407  0.75152  0.35378  1.0000
  N   N58       1.0  0.97128  0.72593  0.38704  1.0000
  C   C93       1.0  0.96721  0.68573  0.38953  1.0000
  C   C94       1.0  0.99888  0.66343  0.43598  1.0000
  O   O12       1.0  0.98395  0.63931  0.50761  1.0000
  H   H44       1.0  0.02150  0.68352  0.46273  1.0000
  H   H45       1.0  0.01358  0.64432  0.38782  1.0000
  H   H46       1.0  0.97348  0.65696  0.55454  1.0000
  C   C95       1.0  0.66931  0.06768  0.35241  1.0000
  C   C96       1.0  0.75174  0.05542  0.35546  1.0000
  N   N59       1.0  0.72534  0.02556  0.36944  1.0000
  C   C97       1.0  0.68532  0.02937  0.36983  1.0000
  C   C98       1.0  0.66241  0.99273  0.38990  1.0000
  O   O13       1.0  0.63875  0.99681  0.46905  1.0000
  H   H47       1.0  0.68193  0.96717  0.39850  1.0000
  H   H48       1.0  0.64319  0.98586  0.33321  1.0000
  H   H49       1.0  0.65653  0.99981  0.52098  1.0000
  C   C99       1.0  0.33126  0.93104  0.35110  1.0000
  C   C100      1.0  0.24903  0.94342  0.35265  1.0000
  N   N60       1.0  0.27491  0.97041  0.38671  1.0000
  C   C101      1.0  0.31487  0.96606  0.38930  1.0000
  C   C102      1.0  0.33744  0.99754  0.43675  1.0000
  O   O14       1.0  0.36120  0.98205  0.50805  1.0000
  H   H50       1.0  0.31773  0.02018  0.46409  1.0000
  H   H51       1.0  0.35668  0.01251  0.38909  1.0000
  H   H52       1.0  0.34345  0.97133  0.55460  1.0000
  N   N61       1.0  0.40473  0.80531  0.33480  1.0000
  C   C103      1.0  0.40978  0.76539  0.33470  1.0000
  H   H53       1.0  0.38593  0.74738  0.34606  1.0000
  N   N62       1.0  0.59749  0.19491  0.32939  1.0000
  C   C104      1.0  0.59268  0.23486  0.32880  1.0000
  H   H54       1.0  0.61657  0.25275  0.34080  1.0000
  N   N63       1.0  0.80745  0.59592  0.33536  1.0000
  C   C105      1.0  0.76761  0.59165  0.33506  1.0000
  H   H55       1.0  0.75037  0.61597  0.34620  1.0000
  N   N64       1.0  0.19542  0.40352  0.33019  1.0000
  C   C106      1.0  0.23526  0.40796  0.32928  1.0000
  H   H56       1.0  0.25262  0.38371  0.34031  1.0000
  C   C107      1.0  0.14202  0.04030  0.33108  1.0000
  C   C108      1.0  0.09573  0.10944  0.32587  1.0000
  N   N65       1.0  0.13008  0.10777  0.37349  1.0000
  C   C109      1.0  0.15434  0.07531  0.37681  1.0000
  C   C110      1.0  0.18979  0.07723  0.43501  1.0000
  O   O15       1.0  0.18780  0.04970  0.50814  1.0000
  H   H57       1.0  0.19411  0.10722  0.46163  1.0000
  H   H58       1.0  0.21576  0.07023  0.39470  1.0000
  H   H59       1.0  0.16619  0.05786  0.54826  1.0000
  C   C111      1.0  0.85872  0.95924  0.32685  1.0000
  C   C112      1.0  0.90493  0.89022  0.31871  1.0000
  N   N66       1.0  0.87104  0.89176  0.36801  1.0000
  C   C113      1.0  0.84683  0.92417  0.37286  1.0000
  C   C114      1.0  0.81201  0.92214  0.43303  1.0000
  O   O16       1.0  0.81484  0.94947  0.50642  1.0000
  H   H60       1.0  0.80796  0.89208  0.45948  1.0000
  H   H61       1.0  0.78562  0.92926  0.39430  1.0000
  H   H62       1.0  0.83688  0.94118  0.54517  1.0000
  C   C115      1.0  0.96039  0.14081  0.33252  1.0000
  C   C116      1.0  0.89082  0.09499  0.32325  1.0000
  N   N67       1.0  0.89277  0.12913  0.37221  1.0000
  C   C117      1.0  0.92547  0.15320  0.37747  1.0000
  C   C118      1.0  0.92374  0.18843  0.43689  1.0000
  O   O17       1.0  0.95067  0.18577  0.51078  1.0000
  H   H63       1.0  0.89380  0.19275  0.46276  1.0000
  H   H64       1.0  0.93133  0.21476  0.39774  1.0000
  H   H65       1.0  0.94199  0.16381  0.54984  1.0000
  C   C119      1.0  0.04041  0.85913  0.32736  1.0000
  C   C120      1.0  0.11014  0.90467  0.31875  1.0000
  N   N68       1.0  0.10811  0.87033  0.36697  1.0000
  C   C121      1.0  0.07532  0.84639  0.37184  1.0000
  C   C122      1.0  0.07700  0.81086  0.43035  1.0000
  O   O18       1.0  0.05020  0.81324  0.50452  1.0000
  H   H66       1.0  0.10696  0.80631  0.45589  1.0000
  H   H67       1.0  0.06928  0.78475  0.39060  1.0000
  H   H68       1.0  0.05901  0.83497  0.54407  1.0000
  N   N69       1.0  0.39559  0.54298  0.39120  1.0000
  C   C123      1.0  0.41900  0.57520  0.39872  1.0000
  H   H69       1.0  0.44477  0.57265  0.43404  1.0000
  N   N70       1.0  0.60690  0.45680  0.39236  1.0000
  C   C124      1.0  0.58351  0.42451  0.39858  1.0000
  H   H70       1.0  0.55764  0.42683  0.43359  1.0000
  N   N71       1.0  0.54657  0.60825  0.39807  1.0000
  C   C125      1.0  0.57886  0.58528  0.40525  1.0000
  H   H71       1.0  0.57690  0.55988  0.44260  1.0000
  N   N72       1.0  0.45595  0.39182  0.39369  1.0000
  C   C126      1.0  0.42364  0.41472  0.40111  1.0000
  H   H72       1.0  0.42558  0.44005  0.43871  1.0000
