data_image0
_chemical_formula_structural       C6SiC8H12C4NC2NH2C2H3OC10H4C2H2OC6N2HC6SiC8H12C4NC2NH2C2H3OC10H4C2H2OC6N2HC6SiC8H12C4NC2NH2C2H3OC10H4C2H2OC6N2HC6SiC8H12C4NC2NH2C2H3OC10H4C2H2OC6N2HC6SiC8H12C4NC2NH2C2H3OC10H4C2H2OC6N2HC6SiC8H12C4NC2NH2C2H3OC10H4C2H2OC6N2HC6SiC8H12C4NC2NH2C2H3OC10H4C2H2OC6N2HC6SiC8H12C4NC2NH2C2H3OC10H4C2H2OC6N2HC6SiC8H12C4NC2NH2C2H3OC10H4C2H2OC6N2H
_chemical_formula_sum              "C360 Si9 H216 N36 O18"
_cell_length_a       36.4469
_cell_length_b       36.4478
_cell_length_c       15.0923
_cell_angle_alpha    90
_cell_angle_beta     90
_cell_angle_gamma    89.9302

_space_group_name_H-M_alt    "P 1"
_space_group_IT_number       1

loop_
  _space_group_symop_operation_xyz
  'x, y, z'

loop_
  _atom_site_type_symbol
  _atom_site_label
  _atom_site_symmetry_multiplicity
  _atom_site_fract_x
  _atom_site_fract_y
  _atom_site_fract_z
  _atom_site_occupancy
  C   C1        1.0  0.99761  0.23988  0.29512  1.0000
  C   C2        1.0  0.03104  0.25642  0.27008  1.0000
  C   C3        1.0  0.03080  0.28512  0.20819  1.0000
  C   C4        1.0  0.99730  0.29749  0.17109  1.0000
  C   C5        1.0  0.29730  0.28526  0.20914  1.0000
  C   C6        1.0  0.29738  0.25635  0.27042  1.0000
  Si  Si1       1.0  0.99712  0.99836  0.09959  1.0000
  C   C7        1.0  0.99703  0.03226  0.17202  1.0000
  C   C8        1.0  0.29699  0.04339  0.21185  1.0000
  C   C9        1.0  0.29690  0.06981  0.27942  1.0000
  C   C10       1.0  0.99697  0.08568  0.30718  1.0000
  C   C11       1.0  0.03046  0.06968  0.27986  1.0000
  C   C12       1.0  0.03038  0.04340  0.21190  1.0000
  C   C13       1.0  0.03152  0.99822  0.02829  1.0000
  C   C14       1.0  0.29592  0.33142  0.02870  1.0000
  H   H1        1.0  0.29252  0.05619  0.01324  1.0000
  H   H2        1.0  0.29362  0.27321  0.01345  1.0000
  H   H3        1.0  0.03376  0.27338  0.01207  1.0000
  H   H4        1.0  0.03492  0.05634  0.01369  1.0000
  H   H5        1.0  0.05520  0.03453  0.18836  1.0000
  H   H6        1.0  0.05494  0.08191  0.29524  1.0000
  H   H7        1.0  0.27241  0.08194  0.29560  1.0000
  H   H8        1.0  0.27218  0.03443  0.18854  1.0000
  H   H9        1.0  0.27244  0.29472  0.18725  1.0000
  H   H10       1.0  0.05554  0.29457  0.18567  1.0000
  H   H11       1.0  0.05553  0.24371  0.28315  1.0000
  H   H12       1.0  0.27291  0.24386  0.28472  1.0000
  C   C15       1.0  0.33078  0.20140  0.29844  1.0000
  C   C16       1.0  0.33065  0.18111  0.21760  1.0000
  C   C17       1.0  0.99714  0.14238  0.22278  1.0000
  C   C18       1.0  0.99712  0.12432  0.30615  1.0000
  N   N1        1.0  0.99700  0.12300  0.14545  1.0000
  C   C19       1.0  0.99702  0.13817  0.06389  1.0000
  C   C20       1.0  0.33052  0.17645  0.05798  1.0000
  N   N2        1.0  0.33067  0.19639  0.13406  1.0000
  H   H13       1.0  0.99690  0.12201  0.00863  1.0000
  H   H14       1.0  0.33078  0.22267  0.12631  1.0000
  C   C21       1.0  0.18451  0.33061  0.31421  1.0000
  C   C22       1.0  0.14597  0.33067  0.31213  1.0000
  H   H15       1.0  0.19953  0.33064  0.25707  1.0000
  H   H16       1.0  0.13121  0.33022  0.02672  1.0000
  H   H17       1.0  0.19565  0.33006  0.02755  1.0000
  O   O1        1.0  0.12817  0.33074  0.23343  1.0000
  C   C23       1.0  0.28351  0.03132  0.65720  1.0000
  C   C24       1.0  0.25595  0.03108  0.59229  1.0000
  C   C25       1.0  0.24083  0.33084  0.56320  1.0000
  C   C26       1.0  0.25673  0.29755  0.59208  1.0000
  C   C27       1.0  0.28414  0.29792  0.65736  1.0000
  C   C28       1.0  0.04317  0.29813  0.65618  1.0000
  C   C29       1.0  0.07056  0.29787  0.59087  1.0000
  C   C30       1.0  0.08653  0.99785  0.56250  1.0000
  C   C31       1.0  0.07122  0.03137  0.59169  1.0000
  C   C32       1.0  0.04387  0.03150  0.65712  1.0000
  H   H18       1.0  0.24365  0.05545  0.57595  1.0000
  H   H19       1.0  0.24485  0.27293  0.57642  1.0000
  H   H20       1.0  0.08244  0.27327  0.57472  1.0000
  H   H21       1.0  0.08367  0.05573  0.57621  1.0000
  C   C33       1.0  0.99726  0.14489  0.38510  1.0000
  C   C34       1.0  0.33075  0.18339  0.38122  1.0000
  H   H22       1.0  0.33084  0.19809  0.43899  1.0000
  H   H23       1.0  0.99724  0.13208  0.44544  1.0000
  O   O2        1.0  0.33053  0.19298  0.64434  1.0000
  C   C35       1.0  0.12494  0.33053  0.55263  1.0000
  C   C36       1.0  0.14416  0.33053  0.47070  1.0000
  C   C37       1.0  0.18333  0.33045  0.47214  1.0000
  C   C38       1.0  0.20241  0.33034  0.55377  1.0000
  C   C39       1.0  0.18257  0.33009  0.63403  1.0000
  C   C40       1.0  0.14449  0.33020  0.63346  1.0000
  N   N3        1.0  0.20173  0.33053  0.39376  1.0000
  N   N4        1.0  0.12701  0.33066  0.38991  1.0000
  H   H24       1.0  0.10031  0.33070  0.38670  1.0000
  C   C41       1.0  0.99761  0.57321  0.29512  1.0000
  C   C42       1.0  0.03104  0.58975  0.27008  1.0000
  C   C43       1.0  0.03080  0.61845  0.20819  1.0000
  C   C44       1.0  0.99730  0.63082  0.17109  1.0000
  C   C45       1.0  0.29730  0.61859  0.20914  1.0000
  C   C46       1.0  0.29738  0.58969  0.27042  1.0000
  Si  Si2       1.0  0.99712  0.33170  0.09959  1.0000
  C   C47       1.0  0.99703  0.36559  0.17202  1.0000
  C   C48       1.0  0.29699  0.37672  0.21185  1.0000
  C   C49       1.0  0.29690  0.40315  0.27942  1.0000
  C   C50       1.0  0.99697  0.41901  0.30718  1.0000
  C   C51       1.0  0.03046  0.40302  0.27986  1.0000
  C   C52       1.0  0.03038  0.37673  0.21190  1.0000
  C   C53       1.0  0.03152  0.33155  0.02829  1.0000
  C   C54       1.0  0.29592  0.66475  0.02870  1.0000
  H   H25       1.0  0.29252  0.38953  0.01324  1.0000
  H   H26       1.0  0.29362  0.60654  0.01345  1.0000
  H   H27       1.0  0.03376  0.60671  0.01207  1.0000
  H   H28       1.0  0.03492  0.38967  0.01369  1.0000
  H   H29       1.0  0.05520  0.36786  0.18836  1.0000
  H   H30       1.0  0.05494  0.41525  0.29524  1.0000
  H   H31       1.0  0.27241  0.41527  0.29560  1.0000
  H   H32       1.0  0.27218  0.36776  0.18854  1.0000
  H   H33       1.0  0.27244  0.62805  0.18725  1.0000
  H   H34       1.0  0.05554  0.62790  0.18567  1.0000
  H   H35       1.0  0.05553  0.57704  0.28315  1.0000
  H   H36       1.0  0.27291  0.57719  0.28472  1.0000
  C   C55       1.0  0.33078  0.53473  0.29844  1.0000
  C   C56       1.0  0.33065  0.51445  0.21760  1.0000
  C   C57       1.0  0.99714  0.47572  0.22278  1.0000
  C   C58       1.0  0.99712  0.45765  0.30615  1.0000
  N   N5        1.0  0.99700  0.45633  0.14545  1.0000
  C   C59       1.0  0.99702  0.47151  0.06389  1.0000
  C   C60       1.0  0.33052  0.50978  0.05798  1.0000
  N   N6        1.0  0.33067  0.52972  0.13406  1.0000
  H   H37       1.0  0.99690  0.45534  0.00863  1.0000
  H   H38       1.0  0.33078  0.55601  0.12631  1.0000
  C   C61       1.0  0.18451  0.66395  0.31421  1.0000
  C   C62       1.0  0.14597  0.66400  0.31213  1.0000
  H   H39       1.0  0.19953  0.66397  0.25707  1.0000
  H   H40       1.0  0.13121  0.66355  0.02672  1.0000
  H   H41       1.0  0.19565  0.66339  0.02755  1.0000
  O   O3        1.0  0.12817  0.66407  0.23343  1.0000
  C   C63       1.0  0.28351  0.36466  0.65720  1.0000
  C   C64       1.0  0.25595  0.36441  0.59229  1.0000
  C   C65       1.0  0.24083  0.66417  0.56320  1.0000
  C   C66       1.0  0.25673  0.63089  0.59208  1.0000
  C   C67       1.0  0.28414  0.63126  0.65736  1.0000
  C   C68       1.0  0.04317  0.63147  0.65618  1.0000
  C   C69       1.0  0.07056  0.63121  0.59087  1.0000
  C   C70       1.0  0.08653  0.33118  0.56250  1.0000
  C   C71       1.0  0.07122  0.36471  0.59169  1.0000
  C   C72       1.0  0.04387  0.36484  0.65712  1.0000
  H   H42       1.0  0.24365  0.38878  0.57595  1.0000
  H   H43       1.0  0.24485  0.60626  0.57642  1.0000
  H   H44       1.0  0.08244  0.60660  0.57472  1.0000
  H   H45       1.0  0.08367  0.38906  0.57621  1.0000
  C   C73       1.0  0.99726  0.47822  0.38510  1.0000
  C   C74       1.0  0.33075  0.51672  0.38122  1.0000
  H   H46       1.0  0.33084  0.53142  0.43899  1.0000
  H   H47       1.0  0.99724  0.46541  0.44544  1.0000
  O   O4        1.0  0.33053  0.52631  0.64434  1.0000
  C   C75       1.0  0.12494  0.66386  0.55263  1.0000
  C   C76       1.0  0.14416  0.66386  0.47070  1.0000
  C   C77       1.0  0.18333  0.66379  0.47214  1.0000
  C   C78       1.0  0.20241  0.66367  0.55377  1.0000
  C   C79       1.0  0.18257  0.66343  0.63403  1.0000
  C   C80       1.0  0.14449  0.66353  0.63346  1.0000
  N   N7        1.0  0.20173  0.66386  0.39376  1.0000
  N   N8        1.0  0.12701  0.66400  0.38991  1.0000
  H   H48       1.0  0.10031  0.66403  0.38670  1.0000
  C   C81       1.0  0.99761  0.90654  0.29512  1.0000
  C   C82       1.0  0.03104  0.92308  0.27008  1.0000
  C   C83       1.0  0.03080  0.95178  0.20819  1.0000
  C   C84       1.0  0.99730  0.96415  0.17109  1.0000
  C   C85       1.0  0.29730  0.95193  0.20914  1.0000
  C   C86       1.0  0.29738  0.92302  0.27042  1.0000
  Si  Si3       1.0  0.99712  0.66503  0.09959  1.0000
  C   C87       1.0  0.99703  0.69892  0.17202  1.0000
  C   C88       1.0  0.29699  0.71006  0.21185  1.0000
  C   C89       1.0  0.29690  0.73648  0.27942  1.0000
  C   C90       1.0  0.99697  0.75234  0.30718  1.0000
  C   C91       1.0  0.03046  0.73635  0.27986  1.0000
  C   C92       1.0  0.03038  0.71007  0.21190  1.0000
  C   C93       1.0  0.03152  0.66488  0.02829  1.0000
  C   C94       1.0  0.29592  0.99808  0.02870  1.0000
  H   H49       1.0  0.29252  0.72286  0.01324  1.0000
  H   H50       1.0  0.29362  0.93988  0.01345  1.0000
  H   H51       1.0  0.03376  0.94005  0.01207  1.0000
  H   H52       1.0  0.03492  0.72301  0.01369  1.0000
  H   H53       1.0  0.05520  0.70119  0.18836  1.0000
  H   H54       1.0  0.05494  0.74858  0.29524  1.0000
  H   H55       1.0  0.27241  0.74860  0.29560  1.0000
  H   H56       1.0  0.27218  0.70109  0.18854  1.0000
  H   H57       1.0  0.27244  0.96138  0.18725  1.0000
  H   H58       1.0  0.05554  0.96123  0.18567  1.0000
  H   H59       1.0  0.05553  0.91038  0.28315  1.0000
  H   H60       1.0  0.27291  0.91052  0.28472  1.0000
  C   C95       1.0  0.33078  0.86807  0.29844  1.0000
  C   C96       1.0  0.33065  0.84778  0.21760  1.0000
  C   C97       1.0  0.99714  0.80905  0.22278  1.0000
  C   C98       1.0  0.99712  0.79099  0.30615  1.0000
  N   N9        1.0  0.99700  0.78967  0.14545  1.0000
  C   C99       1.0  0.99702  0.80484  0.06389  1.0000
  C   C100      1.0  0.33052  0.84311  0.05798  1.0000
  N   N10       1.0  0.33067  0.86306  0.13406  1.0000
  H   H61       1.0  0.99690  0.78868  0.00863  1.0000
  H   H62       1.0  0.33078  0.88934  0.12631  1.0000
  C   C101      1.0  0.18451  0.99728  0.31421  1.0000
  C   C102      1.0  0.14597  0.99734  0.31213  1.0000
  H   H63       1.0  0.19953  0.99731  0.25707  1.0000
  H   H64       1.0  0.13121  0.99689  0.02672  1.0000
  H   H65       1.0  0.19565  0.99672  0.02755  1.0000
  O   O5        1.0  0.12817  0.99740  0.23343  1.0000
  C   C103      1.0  0.28351  0.69799  0.65720  1.0000
  C   C104      1.0  0.25595  0.69774  0.59229  1.0000
  C   C105      1.0  0.24083  0.99750  0.56320  1.0000
  C   C106      1.0  0.25673  0.96422  0.59208  1.0000
  C   C107      1.0  0.28414  0.96459  0.65736  1.0000
  C   C108      1.0  0.04317  0.96480  0.65618  1.0000
  C   C109      1.0  0.07056  0.96454  0.59087  1.0000
  C   C110      1.0  0.08653  0.66452  0.56250  1.0000
  C   C111      1.0  0.07122  0.69804  0.59169  1.0000
  C   C112      1.0  0.04387  0.69817  0.65712  1.0000
  H   H66       1.0  0.24365  0.72211  0.57595  1.0000
  H   H67       1.0  0.24485  0.93959  0.57642  1.0000
  H   H68       1.0  0.08244  0.93994  0.57472  1.0000
  H   H69       1.0  0.08367  0.72239  0.57621  1.0000
  C   C113      1.0  0.99726  0.81156  0.38510  1.0000
  C   C114      1.0  0.33075  0.85005  0.38122  1.0000
  H   H70       1.0  0.33084  0.86476  0.43899  1.0000
  H   H71       1.0  0.99724  0.79875  0.44544  1.0000
  O   O6        1.0  0.33053  0.85964  0.64434  1.0000
  C   C115      1.0  0.12494  0.99719  0.55263  1.0000
  C   C116      1.0  0.14416  0.99720  0.47070  1.0000
  C   C117      1.0  0.18333  0.99712  0.47214  1.0000
  C   C118      1.0  0.20241  0.99700  0.55377  1.0000
  C   C119      1.0  0.18257  0.99676  0.63403  1.0000
  C   C120      1.0  0.14449  0.99687  0.63346  1.0000
  N   N11       1.0  0.20173  0.99719  0.39376  1.0000
  N   N12       1.0  0.12701  0.99733  0.38991  1.0000
  H   H72       1.0  0.10031  0.99737  0.38670  1.0000
  C   C121      1.0  0.33095  0.23988  0.29512  1.0000
  C   C122      1.0  0.36437  0.25642  0.27008  1.0000
  C   C123      1.0  0.36413  0.28512  0.20819  1.0000
  C   C124      1.0  0.33064  0.29749  0.17109  1.0000
  C   C125      1.0  0.63064  0.28526  0.20914  1.0000
  C   C126      1.0  0.63071  0.25635  0.27042  1.0000
  Si  Si4       1.0  0.33045  0.99836  0.09959  1.0000
  C   C127      1.0  0.33037  0.03226  0.17202  1.0000
  C   C128      1.0  0.63032  0.04339  0.21185  1.0000
  C   C129      1.0  0.63023  0.06981  0.27942  1.0000
  C   C130      1.0  0.33031  0.08568  0.30718  1.0000
  C   C131      1.0  0.36379  0.06968  0.27986  1.0000
  C   C132      1.0  0.36372  0.04340  0.21190  1.0000
  C   C133      1.0  0.36485  0.99822  0.02829  1.0000
  C   C134      1.0  0.62925  0.33142  0.02870  1.0000
  H   H73       1.0  0.62586  0.05619  0.01324  1.0000
  H   H74       1.0  0.62695  0.27321  0.01345  1.0000
  H   H75       1.0  0.36710  0.27338  0.01207  1.0000
  H   H76       1.0  0.36826  0.05634  0.01369  1.0000
  H   H77       1.0  0.38853  0.03453  0.18836  1.0000
  H   H78       1.0  0.38828  0.08191  0.29524  1.0000
  H   H79       1.0  0.60574  0.08194  0.29560  1.0000
  H   H80       1.0  0.60552  0.03443  0.18854  1.0000
  H   H81       1.0  0.60577  0.29472  0.18725  1.0000
  H   H82       1.0  0.38887  0.29457  0.18567  1.0000
  H   H83       1.0  0.38887  0.24371  0.28315  1.0000
  H   H84       1.0  0.60625  0.24386  0.28472  1.0000
  C   C135      1.0  0.66412  0.20140  0.29844  1.0000
  C   C136      1.0  0.66399  0.18111  0.21760  1.0000
  C   C137      1.0  0.33048  0.14238  0.22278  1.0000
  C   C138      1.0  0.33045  0.12432  0.30615  1.0000
  N   N13       1.0  0.33034  0.12300  0.14545  1.0000
  C   C139      1.0  0.33035  0.13817  0.06389  1.0000
  C   C140      1.0  0.66385  0.17645  0.05798  1.0000
  N   N14       1.0  0.66400  0.19639  0.13406  1.0000
  H   H85       1.0  0.33024  0.12201  0.00863  1.0000
  H   H86       1.0  0.66412  0.22267  0.12631  1.0000
  C   C141      1.0  0.51784  0.33061  0.31421  1.0000
  C   C142      1.0  0.47930  0.33067  0.31213  1.0000
  H   H87       1.0  0.53286  0.33064  0.25707  1.0000
  H   H88       1.0  0.46455  0.33022  0.02672  1.0000
  H   H89       1.0  0.52898  0.33006  0.02755  1.0000
  O   O7        1.0  0.46150  0.33074  0.23343  1.0000
  C   C143      1.0  0.61684  0.03132  0.65720  1.0000
  C   C144      1.0  0.58928  0.03108  0.59229  1.0000
  C   C145      1.0  0.57417  0.33084  0.56320  1.0000
  C   C146      1.0  0.59006  0.29755  0.59208  1.0000
  C   C147      1.0  0.61747  0.29792  0.65736  1.0000
  C   C148      1.0  0.37650  0.29813  0.65618  1.0000
  C   C149      1.0  0.40389  0.29787  0.59087  1.0000
  C   C150      1.0  0.41986  0.99785  0.56250  1.0000
  C   C151      1.0  0.40456  0.03137  0.59169  1.0000
  C   C152      1.0  0.37720  0.03150  0.65712  1.0000
  H   H90       1.0  0.57698  0.05545  0.57595  1.0000
  H   H91       1.0  0.57818  0.27293  0.57642  1.0000
  H   H92       1.0  0.41577  0.27327  0.57472  1.0000
  H   H93       1.0  0.41701  0.05573  0.57621  1.0000
  C   C153      1.0  0.33059  0.14489  0.38510  1.0000
  C   C154      1.0  0.66408  0.18339  0.38122  1.0000
  H   H94       1.0  0.66418  0.19809  0.43899  1.0000
  H   H95       1.0  0.33057  0.13208  0.44544  1.0000
  O   O8        1.0  0.66386  0.19298  0.64434  1.0000
  C   C155      1.0  0.45827  0.33053  0.55263  1.0000
  C   C156      1.0  0.47749  0.33053  0.47070  1.0000
  C   C157      1.0  0.51667  0.33045  0.47214  1.0000
  C   C158      1.0  0.53574  0.33034  0.55377  1.0000
  C   C159      1.0  0.51590  0.33009  0.63403  1.0000
  C   C160      1.0  0.47783  0.33020  0.63346  1.0000
  N   N15       1.0  0.53506  0.33053  0.39376  1.0000
  N   N16       1.0  0.46034  0.33066  0.38991  1.0000
  H   H96       1.0  0.43365  0.33070  0.38670  1.0000
  C   C161      1.0  0.33095  0.57321  0.29512  1.0000
  C   C162      1.0  0.36437  0.58975  0.27008  1.0000
  C   C163      1.0  0.36413  0.61845  0.20819  1.0000
  C   C164      1.0  0.33064  0.63082  0.17109  1.0000
  C   C165      1.0  0.63064  0.61859  0.20914  1.0000
  C   C166      1.0  0.63071  0.58969  0.27042  1.0000
  Si  Si5       1.0  0.33045  0.33170  0.09959  1.0000
  C   C167      1.0  0.33037  0.36559  0.17202  1.0000
  C   C168      1.0  0.63032  0.37672  0.21185  1.0000
  C   C169      1.0  0.63023  0.40315  0.27942  1.0000
  C   C170      1.0  0.33031  0.41901  0.30718  1.0000
  C   C171      1.0  0.36379  0.40302  0.27986  1.0000
  C   C172      1.0  0.36372  0.37673  0.21190  1.0000
  C   C173      1.0  0.36485  0.33155  0.02829  1.0000
  C   C174      1.0  0.62925  0.66475  0.02870  1.0000
  H   H97       1.0  0.62586  0.38953  0.01324  1.0000
  H   H98       1.0  0.62695  0.60654  0.01345  1.0000
  H   H99       1.0  0.36710  0.60671  0.01207  1.0000
  H   H100      1.0  0.36826  0.38967  0.01369  1.0000
  H   H101      1.0  0.38853  0.36786  0.18836  1.0000
  H   H102      1.0  0.38828  0.41525  0.29524  1.0000
  H   H103      1.0  0.60574  0.41527  0.29560  1.0000
  H   H104      1.0  0.60552  0.36776  0.18854  1.0000
  H   H105      1.0  0.60577  0.62805  0.18725  1.0000
  H   H106      1.0  0.38887  0.62790  0.18567  1.0000
  H   H107      1.0  0.38887  0.57704  0.28315  1.0000
  H   H108      1.0  0.60625  0.57719  0.28472  1.0000
  C   C175      1.0  0.66412  0.53473  0.29844  1.0000
  C   C176      1.0  0.66399  0.51445  0.21760  1.0000
  C   C177      1.0  0.33048  0.47572  0.22278  1.0000
  C   C178      1.0  0.33045  0.45765  0.30615  1.0000
  N   N17       1.0  0.33034  0.45633  0.14545  1.0000
  C   C179      1.0  0.33035  0.47151  0.06389  1.0000
  C   C180      1.0  0.66385  0.50978  0.05798  1.0000
  N   N18       1.0  0.66400  0.52972  0.13406  1.0000
  H   H109      1.0  0.33024  0.45534  0.00863  1.0000
  H   H110      1.0  0.66412  0.55601  0.12631  1.0000
  C   C181      1.0  0.51784  0.66395  0.31421  1.0000
  C   C182      1.0  0.47930  0.66400  0.31213  1.0000
  H   H111      1.0  0.53286  0.66397  0.25707  1.0000
  H   H112      1.0  0.46455  0.66355  0.02672  1.0000
  H   H113      1.0  0.52898  0.66339  0.02755  1.0000
  O   O9        1.0  0.46150  0.66407  0.23343  1.0000
  C   C183      1.0  0.61684  0.36466  0.65720  1.0000
  C   C184      1.0  0.58928  0.36441  0.59229  1.0000
  C   C185      1.0  0.57417  0.66417  0.56320  1.0000
  C   C186      1.0  0.59006  0.63089  0.59208  1.0000
  C   C187      1.0  0.61747  0.63126  0.65736  1.0000
  C   C188      1.0  0.37650  0.63147  0.65618  1.0000
  C   C189      1.0  0.40389  0.63121  0.59087  1.0000
  C   C190      1.0  0.41986  0.33118  0.56250  1.0000
  C   C191      1.0  0.40456  0.36471  0.59169  1.0000
  C   C192      1.0  0.37720  0.36484  0.65712  1.0000
  H   H114      1.0  0.57698  0.38878  0.57595  1.0000
  H   H115      1.0  0.57818  0.60626  0.57642  1.0000
  H   H116      1.0  0.41577  0.60660  0.57472  1.0000
  H   H117      1.0  0.41701  0.38906  0.57621  1.0000
  C   C193      1.0  0.33059  0.47822  0.38510  1.0000
  C   C194      1.0  0.66408  0.51672  0.38122  1.0000
  H   H118      1.0  0.66418  0.53142  0.43899  1.0000
  H   H119      1.0  0.33057  0.46541  0.44544  1.0000
  O   O10       1.0  0.66386  0.52631  0.64434  1.0000
  C   C195      1.0  0.45827  0.66386  0.55263  1.0000
  C   C196      1.0  0.47749  0.66386  0.47070  1.0000
  C   C197      1.0  0.51667  0.66379  0.47214  1.0000
  C   C198      1.0  0.53574  0.66367  0.55377  1.0000
  C   C199      1.0  0.51590  0.66343  0.63403  1.0000
  C   C200      1.0  0.47783  0.66353  0.63346  1.0000
  N   N19       1.0  0.53506  0.66386  0.39376  1.0000
  N   N20       1.0  0.46034  0.66400  0.38991  1.0000
  H   H120      1.0  0.43365  0.66403  0.38670  1.0000
  C   C201      1.0  0.33095  0.90654  0.29512  1.0000
  C   C202      1.0  0.36437  0.92308  0.27008  1.0000
  C   C203      1.0  0.36413  0.95178  0.20819  1.0000
  C   C204      1.0  0.33064  0.96415  0.17109  1.0000
  C   C205      1.0  0.63064  0.95193  0.20914  1.0000
  C   C206      1.0  0.63071  0.92302  0.27042  1.0000
  Si  Si6       1.0  0.33045  0.66503  0.09959  1.0000
  C   C207      1.0  0.33037  0.69892  0.17202  1.0000
  C   C208      1.0  0.63032  0.71006  0.21185  1.0000
  C   C209      1.0  0.63023  0.73648  0.27942  1.0000
  C   C210      1.0  0.33031  0.75234  0.30718  1.0000
  C   C211      1.0  0.36379  0.73635  0.27986  1.0000
  C   C212      1.0  0.36372  0.71007  0.21190  1.0000
  C   C213      1.0  0.36485  0.66488  0.02829  1.0000
  C   C214      1.0  0.62925  0.99808  0.02870  1.0000
  H   H121      1.0  0.62586  0.72286  0.01324  1.0000
  H   H122      1.0  0.62695  0.93988  0.01345  1.0000
  H   H123      1.0  0.36710  0.94005  0.01207  1.0000
  H   H124      1.0  0.36826  0.72301  0.01369  1.0000
  H   H125      1.0  0.38853  0.70119  0.18836  1.0000
  H   H126      1.0  0.38828  0.74858  0.29524  1.0000
  H   H127      1.0  0.60574  0.74860  0.29560  1.0000
  H   H128      1.0  0.60552  0.70109  0.18854  1.0000
  H   H129      1.0  0.60577  0.96138  0.18725  1.0000
  H   H130      1.0  0.38887  0.96123  0.18567  1.0000
  H   H131      1.0  0.38887  0.91038  0.28315  1.0000
  H   H132      1.0  0.60625  0.91052  0.28472  1.0000
  C   C215      1.0  0.66412  0.86807  0.29844  1.0000
  C   C216      1.0  0.66399  0.84778  0.21760  1.0000
  C   C217      1.0  0.33048  0.80905  0.22278  1.0000
  C   C218      1.0  0.33045  0.79099  0.30615  1.0000
  N   N21       1.0  0.33034  0.78967  0.14545  1.0000
  C   C219      1.0  0.33035  0.80484  0.06389  1.0000
  C   C220      1.0  0.66385  0.84311  0.05798  1.0000
  N   N22       1.0  0.66400  0.86306  0.13406  1.0000
  H   H133      1.0  0.33024  0.78868  0.00863  1.0000
  H   H134      1.0  0.66412  0.88934  0.12631  1.0000
  C   C221      1.0  0.51784  0.99728  0.31421  1.0000
  C   C222      1.0  0.47930  0.99734  0.31213  1.0000
  H   H135      1.0  0.53286  0.99731  0.25707  1.0000
  H   H136      1.0  0.46455  0.99689  0.02672  1.0000
  H   H137      1.0  0.52898  0.99672  0.02755  1.0000
  O   O11       1.0  0.46150  0.99740  0.23343  1.0000
  C   C223      1.0  0.61684  0.69799  0.65720  1.0000
  C   C224      1.0  0.58928  0.69774  0.59229  1.0000
  C   C225      1.0  0.57417  0.99750  0.56320  1.0000
  C   C226      1.0  0.59006  0.96422  0.59208  1.0000
  C   C227      1.0  0.61747  0.96459  0.65736  1.0000
  C   C228      1.0  0.37650  0.96480  0.65618  1.0000
  C   C229      1.0  0.40389  0.96454  0.59087  1.0000
  C   C230      1.0  0.41986  0.66452  0.56250  1.0000
  C   C231      1.0  0.40456  0.69804  0.59169  1.0000
  C   C232      1.0  0.37720  0.69817  0.65712  1.0000
  H   H138      1.0  0.57698  0.72211  0.57595  1.0000
  H   H139      1.0  0.57818  0.93959  0.57642  1.0000
  H   H140      1.0  0.41577  0.93994  0.57472  1.0000
  H   H141      1.0  0.41701  0.72239  0.57621  1.0000
  C   C233      1.0  0.33059  0.81156  0.38510  1.0000
  C   C234      1.0  0.66408  0.85005  0.38122  1.0000
  H   H142      1.0  0.66418  0.86476  0.43899  1.0000
  H   H143      1.0  0.33057  0.79875  0.44544  1.0000
  O   O12       1.0  0.66386  0.85964  0.64434  1.0000
  C   C235      1.0  0.45827  0.99719  0.55263  1.0000
  C   C236      1.0  0.47749  0.99720  0.47070  1.0000
  C   C237      1.0  0.51667  0.99712  0.47214  1.0000
  C   C238      1.0  0.53574  0.99700  0.55377  1.0000
  C   C239      1.0  0.51590  0.99676  0.63403  1.0000
  C   C240      1.0  0.47783  0.99687  0.63346  1.0000
  N   N23       1.0  0.53506  0.99719  0.39376  1.0000
  N   N24       1.0  0.46034  0.99733  0.38991  1.0000
  H   H144      1.0  0.43365  0.99737  0.38670  1.0000
  C   C241      1.0  0.66428  0.23988  0.29512  1.0000
  C   C242      1.0  0.69771  0.25642  0.27008  1.0000
  C   C243      1.0  0.69746  0.28512  0.20819  1.0000
  C   C244      1.0  0.66397  0.29749  0.17109  1.0000
  C   C245      1.0  0.96397  0.28526  0.20914  1.0000
  C   C246      1.0  0.96405  0.25635  0.27042  1.0000
  Si  Si7       1.0  0.66379  0.99836  0.09959  1.0000
  C   C247      1.0  0.66370  0.03226  0.17202  1.0000
  C   C248      1.0  0.96366  0.04339  0.21185  1.0000
  C   C249      1.0  0.96356  0.06981  0.27942  1.0000
  C   C250      1.0  0.66364  0.08568  0.30718  1.0000
  C   C251      1.0  0.69713  0.06968  0.27986  1.0000
  C   C252      1.0  0.69705  0.04340  0.21190  1.0000
  C   C253      1.0  0.69819  0.99822  0.02829  1.0000
  C   C254      1.0  0.96259  0.33142  0.02870  1.0000
  H   H145      1.0  0.95919  0.05619  0.01324  1.0000
  H   H146      1.0  0.96029  0.27321  0.01345  1.0000
  H   H147      1.0  0.70043  0.27338  0.01207  1.0000
  H   H148      1.0  0.70159  0.05634  0.01369  1.0000
  H   H149      1.0  0.72187  0.03453  0.18836  1.0000
  H   H150      1.0  0.72161  0.08191  0.29524  1.0000
  H   H151      1.0  0.93907  0.08194  0.29560  1.0000
  H   H152      1.0  0.93885  0.03443  0.18854  1.0000
  H   H153      1.0  0.93911  0.29472  0.18725  1.0000
  H   H154      1.0  0.72220  0.29457  0.18567  1.0000
  H   H155      1.0  0.72220  0.24371  0.28315  1.0000
  H   H156      1.0  0.93958  0.24386  0.28472  1.0000
  C   C255      1.0  0.99745  0.20140  0.29844  1.0000
  C   C256      1.0  0.99732  0.18111  0.21760  1.0000
  C   C257      1.0  0.66381  0.14238  0.22278  1.0000
  C   C258      1.0  0.66379  0.12432  0.30615  1.0000
  N   N25       1.0  0.66367  0.12300  0.14545  1.0000
  C   C259      1.0  0.66368  0.13817  0.06389  1.0000
  C   C260      1.0  0.99718  0.17645  0.05798  1.0000
  N   N26       1.0  0.99733  0.19639  0.13406  1.0000
  H   H157      1.0  0.66357  0.12201  0.00863  1.0000
  H   H158      1.0  0.99745  0.22267  0.12631  1.0000
  C   C261      1.0  0.85118  0.33061  0.31421  1.0000
  C   C262      1.0  0.81263  0.33067  0.31213  1.0000
  H   H159      1.0  0.86620  0.33064  0.25707  1.0000
  H   H160      1.0  0.79788  0.33022  0.02672  1.0000
  H   H161      1.0  0.86231  0.33006  0.02755  1.0000
  O   O13       1.0  0.79483  0.33074  0.23343  1.0000
  C   C263      1.0  0.95018  0.03132  0.65720  1.0000
  C   C264      1.0  0.92262  0.03108  0.59229  1.0000
  C   C265      1.0  0.90750  0.33084  0.56320  1.0000
  C   C266      1.0  0.92340  0.29755  0.59208  1.0000
  C   C267      1.0  0.95080  0.29792  0.65736  1.0000
  C   C268      1.0  0.70984  0.29813  0.65618  1.0000
  C   C269      1.0  0.73722  0.29787  0.59087  1.0000
  C   C270      1.0  0.75319  0.99785  0.56250  1.0000
  C   C271      1.0  0.73789  0.03137  0.59169  1.0000
  C   C272      1.0  0.71053  0.03150  0.65712  1.0000
  H   H162      1.0  0.91031  0.05545  0.57595  1.0000
  H   H163      1.0  0.91151  0.27293  0.57642  1.0000
  H   H164      1.0  0.74911  0.27327  0.57472  1.0000
  H   H165      1.0  0.75034  0.05573  0.57621  1.0000
  C   C273      1.0  0.66392  0.14489  0.38510  1.0000
  C   C274      1.0  0.99742  0.18339  0.38122  1.0000
  H   H166      1.0  0.99751  0.19809  0.43899  1.0000
  H   H167      1.0  0.66391  0.13208  0.44544  1.0000
  O   O14       1.0  0.99719  0.19298  0.64434  1.0000
  C   C275      1.0  0.79160  0.33053  0.55263  1.0000
  C   C276      1.0  0.81082  0.33053  0.47070  1.0000
  C   C277      1.0  0.85000  0.33045  0.47214  1.0000
  C   C278      1.0  0.86907  0.33034  0.55377  1.0000
  C   C279      1.0  0.84924  0.33009  0.63403  1.0000
  C   C280      1.0  0.81116  0.33020  0.63346  1.0000
  N   N27       1.0  0.86840  0.33053  0.39376  1.0000
  N   N28       1.0  0.79367  0.33066  0.38991  1.0000
  H   H168      1.0  0.76698  0.33070  0.38670  1.0000
  C   C281      1.0  0.66428  0.57321  0.29512  1.0000
  C   C282      1.0  0.69771  0.58975  0.27008  1.0000
  C   C283      1.0  0.69746  0.61845  0.20819  1.0000
  C   C284      1.0  0.66397  0.63082  0.17109  1.0000
  C   C285      1.0  0.96397  0.61859  0.20914  1.0000
  C   C286      1.0  0.96405  0.58969  0.27042  1.0000
  Si  Si8       1.0  0.66379  0.33170  0.09959  1.0000
  C   C287      1.0  0.66370  0.36559  0.17202  1.0000
  C   C288      1.0  0.96366  0.37672  0.21185  1.0000
  C   C289      1.0  0.96356  0.40315  0.27942  1.0000
  C   C290      1.0  0.66364  0.41901  0.30718  1.0000
  C   C291      1.0  0.69713  0.40302  0.27986  1.0000
  C   C292      1.0  0.69705  0.37673  0.21190  1.0000
  C   C293      1.0  0.69819  0.33155  0.02829  1.0000
  C   C294      1.0  0.96259  0.66475  0.02870  1.0000
  H   H169      1.0  0.95919  0.38953  0.01324  1.0000
  H   H170      1.0  0.96029  0.60654  0.01345  1.0000
  H   H171      1.0  0.70043  0.60671  0.01207  1.0000
  H   H172      1.0  0.70159  0.38967  0.01369  1.0000
  H   H173      1.0  0.72187  0.36786  0.18836  1.0000
  H   H174      1.0  0.72161  0.41525  0.29524  1.0000
  H   H175      1.0  0.93907  0.41527  0.29560  1.0000
  H   H176      1.0  0.93885  0.36776  0.18854  1.0000
  H   H177      1.0  0.93911  0.62805  0.18725  1.0000
  H   H178      1.0  0.72220  0.62790  0.18567  1.0000
  H   H179      1.0  0.72220  0.57704  0.28315  1.0000
  H   H180      1.0  0.93958  0.57719  0.28472  1.0000
  C   C295      1.0  0.99745  0.53473  0.29844  1.0000
  C   C296      1.0  0.99732  0.51445  0.21760  1.0000
  C   C297      1.0  0.66381  0.47572  0.22278  1.0000
  C   C298      1.0  0.66379  0.45765  0.30615  1.0000
  N   N29       1.0  0.66367  0.45633  0.14545  1.0000
  C   C299      1.0  0.66368  0.47151  0.06389  1.0000
  C   C300      1.0  0.99718  0.50978  0.05798  1.0000
  N   N30       1.0  0.99733  0.52972  0.13406  1.0000
  H   H181      1.0  0.66357  0.45534  0.00863  1.0000
  H   H182      1.0  0.99745  0.55601  0.12631  1.0000
  C   C301      1.0  0.85118  0.66395  0.31421  1.0000
  C   C302      1.0  0.81263  0.66400  0.31213  1.0000
  H   H183      1.0  0.86620  0.66397  0.25707  1.0000
  H   H184      1.0  0.79788  0.66355  0.02672  1.0000
  H   H185      1.0  0.86231  0.66339  0.02755  1.0000
  O   O15       1.0  0.79483  0.66407  0.23343  1.0000
  C   C303      1.0  0.95018  0.36466  0.65720  1.0000
  C   C304      1.0  0.92262  0.36441  0.59229  1.0000
  C   C305      1.0  0.90750  0.66417  0.56320  1.0000
  C   C306      1.0  0.92340  0.63089  0.59208  1.0000
  C   C307      1.0  0.95080  0.63126  0.65736  1.0000
  C   C308      1.0  0.70984  0.63147  0.65618  1.0000
  C   C309      1.0  0.73722  0.63121  0.59087  1.0000
  C   C310      1.0  0.75319  0.33118  0.56250  1.0000
  C   C311      1.0  0.73789  0.36471  0.59169  1.0000
  C   C312      1.0  0.71053  0.36484  0.65712  1.0000
  H   H186      1.0  0.91031  0.38878  0.57595  1.0000
  H   H187      1.0  0.91151  0.60626  0.57642  1.0000
  H   H188      1.0  0.74911  0.60660  0.57472  1.0000
  H   H189      1.0  0.75034  0.38906  0.57621  1.0000
  C   C313      1.0  0.66392  0.47822  0.38510  1.0000
  C   C314      1.0  0.99742  0.51672  0.38122  1.0000
  H   H190      1.0  0.99751  0.53142  0.43899  1.0000
  H   H191      1.0  0.66391  0.46541  0.44544  1.0000
  O   O16       1.0  0.99719  0.52631  0.64434  1.0000
  C   C315      1.0  0.79160  0.66386  0.55263  1.0000
  C   C316      1.0  0.81082  0.66386  0.47070  1.0000
  C   C317      1.0  0.85000  0.66379  0.47214  1.0000
  C   C318      1.0  0.86907  0.66367  0.55377  1.0000
  C   C319      1.0  0.84924  0.66343  0.63403  1.0000
  C   C320      1.0  0.81116  0.66353  0.63346  1.0000
  N   N31       1.0  0.86840  0.66386  0.39376  1.0000
  N   N32       1.0  0.79367  0.66400  0.38991  1.0000
  H   H192      1.0  0.76698  0.66403  0.38670  1.0000
  C   C321      1.0  0.66428  0.90654  0.29512  1.0000
  C   C322      1.0  0.69771  0.92308  0.27008  1.0000
  C   C323      1.0  0.69746  0.95178  0.20819  1.0000
  C   C324      1.0  0.66397  0.96415  0.17109  1.0000
  C   C325      1.0  0.96397  0.95193  0.20914  1.0000
  C   C326      1.0  0.96405  0.92302  0.27042  1.0000
  Si  Si9       1.0  0.66379  0.66503  0.09959  1.0000
  C   C327      1.0  0.66370  0.69892  0.17202  1.0000
  C   C328      1.0  0.96366  0.71006  0.21185  1.0000
  C   C329      1.0  0.96356  0.73648  0.27942  1.0000
  C   C330      1.0  0.66364  0.75234  0.30718  1.0000
  C   C331      1.0  0.69713  0.73635  0.27986  1.0000
  C   C332      1.0  0.69705  0.71007  0.21190  1.0000
  C   C333      1.0  0.69819  0.66488  0.02829  1.0000
  C   C334      1.0  0.96259  0.99808  0.02870  1.0000
  H   H193      1.0  0.95919  0.72286  0.01324  1.0000
  H   H194      1.0  0.96029  0.93988  0.01345  1.0000
  H   H195      1.0  0.70043  0.94005  0.01207  1.0000
  H   H196      1.0  0.70159  0.72301  0.01369  1.0000
  H   H197      1.0  0.72187  0.70119  0.18836  1.0000
  H   H198      1.0  0.72161  0.74858  0.29524  1.0000
  H   H199      1.0  0.93907  0.74860  0.29560  1.0000
  H   H200      1.0  0.93885  0.70109  0.18854  1.0000
  H   H201      1.0  0.93911  0.96138  0.18725  1.0000
  H   H202      1.0  0.72220  0.96123  0.18567  1.0000
  H   H203      1.0  0.72220  0.91038  0.28315  1.0000
  H   H204      1.0  0.93958  0.91052  0.28472  1.0000
  C   C335      1.0  0.99745  0.86807  0.29844  1.0000
  C   C336      1.0  0.99732  0.84778  0.21760  1.0000
  C   C337      1.0  0.66381  0.80905  0.22278  1.0000
  C   C338      1.0  0.66379  0.79099  0.30615  1.0000
  N   N33       1.0  0.66367  0.78967  0.14545  1.0000
  C   C339      1.0  0.66368  0.80484  0.06389  1.0000
  C   C340      1.0  0.99718  0.84311  0.05798  1.0000
  N   N34       1.0  0.99733  0.86306  0.13406  1.0000
  H   H205      1.0  0.66357  0.78868  0.00863  1.0000
  H   H206      1.0  0.99745  0.88934  0.12631  1.0000
  C   C341      1.0  0.85118  0.99728  0.31421  1.0000
  C   C342      1.0  0.81263  0.99734  0.31213  1.0000
  H   H207      1.0  0.86620  0.99731  0.25707  1.0000
  H   H208      1.0  0.79788  0.99689  0.02672  1.0000
  H   H209      1.0  0.86231  0.99672  0.02755  1.0000
  O   O17       1.0  0.79483  0.99740  0.23343  1.0000
  C   C343      1.0  0.95018  0.69799  0.65720  1.0000
  C   C344      1.0  0.92262  0.69774  0.59229  1.0000
  C   C345      1.0  0.90750  0.99750  0.56320  1.0000
  C   C346      1.0  0.92340  0.96422  0.59208  1.0000
  C   C347      1.0  0.95080  0.96459  0.65736  1.0000
  C   C348      1.0  0.70984  0.96480  0.65618  1.0000
  C   C349      1.0  0.73722  0.96454  0.59087  1.0000
  C   C350      1.0  0.75319  0.66452  0.56250  1.0000
  C   C351      1.0  0.73789  0.69804  0.59169  1.0000
  C   C352      1.0  0.71053  0.69817  0.65712  1.0000
  H   H210      1.0  0.91031  0.72211  0.57595  1.0000
  H   H211      1.0  0.91151  0.93959  0.57642  1.0000
  H   H212      1.0  0.74911  0.93994  0.57472  1.0000
  H   H213      1.0  0.75034  0.72239  0.57621  1.0000
  C   C353      1.0  0.66392  0.81156  0.38510  1.0000
  C   C354      1.0  0.99742  0.85005  0.38122  1.0000
  H   H214      1.0  0.99751  0.86476  0.43899  1.0000
  H   H215      1.0  0.66391  0.79875  0.44544  1.0000
  O   O18       1.0  0.99719  0.85964  0.64434  1.0000
  C   C355      1.0  0.79160  0.99719  0.55263  1.0000
  C   C356      1.0  0.81082  0.99720  0.47070  1.0000
  C   C357      1.0  0.85000  0.99712  0.47214  1.0000
  C   C358      1.0  0.86907  0.99700  0.55377  1.0000
  C   C359      1.0  0.84924  0.99676  0.63403  1.0000
  C   C360      1.0  0.81116  0.99687  0.63346  1.0000
  N   N35       1.0  0.86840  0.99719  0.39376  1.0000
  N   N36       1.0  0.79367  0.99733  0.38991  1.0000
  H   H216      1.0  0.76698  0.99737  0.38670  1.0000
