data_image0
_chemical_formula_structural       C18NC3H3NHNC3H3NHNC3H3NHNC3H3NHNC3H3NHNC3H3NHCNCHNHCNCHNHCNCHNHCNCHNHCNCHNHCNCHNHNC3H3NHNC3H3NHNC3H3NHNC3H3NHNC3H3NHNC3H3NHCN2CNC2O3CN2CNC2O3CN2CNC2O3CN2CNC2O3CN2CNC2O3CN2CNC2O3NCNCNC3O3NCNCNC3O3NCNCNC3O3NCNCNC3O3NCNCNC3O3NCNCNC3O3CNCHNHCNCHNHCNCHNHCNCHNHCNCHNHCNCHNHNC3H3NHNC3H3NHNC3H3NHNC3H3NHNC3H3NHNC3H3NHCNCHNHCNCHNHCNCHNHCNCHNHCNCHNHCNCHNH
_chemical_formula_sum              "C162 N108 H108 O36"
_cell_length_a       58.1005
_cell_length_b       58.1005
_cell_length_c       15.0542
_cell_angle_alpha    90
_cell_angle_beta     90
_cell_angle_gamma    120

_space_group_name_H-M_alt    "P 1"
_space_group_IT_number       1

loop_
  _space_group_symop_operation_xyz
  'x, y, z'

loop_
  _atom_site_type_symbol
  _atom_site_label
  _atom_site_symmetry_multiplicity
  _atom_site_fract_x
  _atom_site_fract_y
  _atom_site_fract_z
  _atom_site_occupancy
  C   C1        1.0  0.10202  0.44694  0.32122  1.0000
  C   C2        1.0  0.17166  0.46442  0.30556  1.0000
  C   C3        1.0  0.56735  0.67325  0.32158  1.0000
  C   C4        1.0  0.54987  0.72541  0.30636  1.0000
  C   C5        1.0  0.34118  0.91207  0.32147  1.0000
  C   C6        1.0  0.28906  0.84242  0.30648  1.0000
  C   C7        1.0  0.90489  0.57447  0.32182  1.0000
  C   C8        1.0  0.83527  0.55704  0.30651  1.0000
  C   C9        1.0  0.43980  0.34833  0.32088  1.0000
  C   C10       1.0  0.45736  0.29621  0.30677  1.0000
  C   C11       1.0  0.66613  0.10941  0.32153  1.0000
  C   C12       1.0  0.71822  0.17909  0.30684  1.0000
  C   C13       1.0  0.47825  0.13545  0.37196  1.0000
  C   C14       1.0  0.65374  0.53609  0.37243  1.0000
  C   C15       1.0  0.87873  0.36054  0.37181  1.0000
  C   C16       1.0  0.52888  0.88571  0.37220  1.0000
  C   C17       1.0  0.35349  0.48567  0.37243  1.0000
  C   C18       1.0  0.12847  0.66096  0.37184  1.0000
  N   N1        1.0  0.20771  0.44744  0.23466  1.0000
  C   C19       1.0  0.22986  0.44590  0.21789  1.0000
  C   C20       1.0  0.23785  0.43380  0.28340  1.0000
  C   C21       1.0  0.24403  0.45642  0.13289  1.0000
  H   H1        1.0  0.23368  0.46368  0.09092  1.0000
  H   H2        1.0  0.24517  0.44070  0.09709  1.0000
  H   H3        1.0  0.26410  0.47283  0.14452  1.0000
  N   N2        1.0  0.26184  0.43512  0.28356  1.0000
  H   H4        1.0  0.26155  0.41841  0.29371  1.0000
  N   N3        1.0  0.56702  0.77829  0.23377  1.0000
  C   C22       1.0  0.56863  0.80197  0.21609  1.0000
  C   C23       1.0  0.58068  0.82219  0.28119  1.0000
  C   C24       1.0  0.55819  0.80546  0.13067  1.0000
  H   H5        1.0  0.55090  0.78774  0.08922  1.0000
  H   H6        1.0  0.57398  0.82221  0.09460  1.0000
  H   H7        1.0  0.54183  0.80923  0.14171  1.0000
  N   N4        1.0  0.57949  0.84493  0.28017  1.0000
  H   H8        1.0  0.59610  0.86133  0.29151  1.0000
  N   N5        1.0  0.23613  0.80661  0.23436  1.0000
  C   C25       1.0  0.21243  0.78454  0.21695  1.0000
  C   C26       1.0  0.19224  0.77646  0.28215  1.0000
  C   C27       1.0  0.20887  0.77053  0.13166  1.0000
  H   H9        1.0  0.22656  0.78091  0.09006  1.0000
  H   H10       1.0  0.19210  0.76954  0.09566  1.0000
  H   H11       1.0  0.20511  0.75041  0.14287  1.0000
  N   N6        1.0  0.16951  0.75253  0.28162  1.0000
  H   H12       1.0  0.15308  0.75272  0.29237  1.0000
  N   N7        1.0  0.79944  0.57421  0.23484  1.0000
  C   C28       1.0  0.77736  0.57583  0.21765  1.0000
  C   C29       1.0  0.76928  0.58788  0.28308  1.0000
  C   C30       1.0  0.76333  0.56543  0.13236  1.0000
  H   H13       1.0  0.77371  0.55817  0.09057  1.0000
  H   H14       1.0  0.76232  0.58123  0.09657  1.0000
  H   H15       1.0  0.74321  0.54906  0.14355  1.0000
  N   N8        1.0  0.74534  0.58667  0.28270  1.0000
  H   H16       1.0  0.74554  0.60330  0.29357  1.0000
  N   N9        1.0  0.44023  0.24323  0.23514  1.0000
  C   C31       1.0  0.43863  0.21953  0.21799  1.0000
  C   C32       1.0  0.42660  0.19941  0.28344  1.0000
  C   C33       1.0  0.44904  0.21591  0.13269  1.0000
  H   H17       1.0  0.45626  0.23355  0.09086  1.0000
  H   H18       1.0  0.43326  0.19908  0.09696  1.0000
  H   H19       1.0  0.46545  0.21222  0.14385  1.0000
  N   N10       1.0  0.42784  0.17669  0.28307  1.0000
  H   H20       1.0  0.41112  0.16030  0.29352  1.0000
  N   N11       1.0  0.77112  0.21481  0.23439  1.0000
  C   C34       1.0  0.79480  0.23689  0.21678  1.0000
  C   C35       1.0  0.81496  0.24511  0.28211  1.0000
  C   C36       1.0  0.79834  0.25077  0.13123  1.0000
  H   H21       1.0  0.78066  0.24029  0.08962  1.0000
  H   H22       1.0  0.81513  0.25175  0.09544  1.0000
  H   H23       1.0  0.80205  0.27089  0.14203  1.0000
  N   N12       1.0  0.83771  0.26906  0.28108  1.0000
  H   H24       1.0  0.85404  0.26869  0.29220  1.0000
  C   C37       1.0  0.14941  0.61117  0.33613  1.0000
  N   N13       1.0  0.15441  0.57799  0.25950  1.0000
  C   C38       1.0  0.15424  0.60122  0.25713  1.0000
  H   H25       1.0  0.15666  0.61066  0.19773  1.0000
  N   N14       1.0  0.14840  0.63415  0.33634  1.0000
  H   H26       1.0  0.15901  0.64732  0.29133  1.0000
  C   C39       1.0  0.40314  0.55644  0.33700  1.0000
  N   N15       1.0  0.43616  0.59470  0.26020  1.0000
  C   C40       1.0  0.41294  0.57129  0.25802  1.0000
  H   H27       1.0  0.40339  0.56429  0.19876  1.0000
  N   N16       1.0  0.38017  0.53244  0.33738  1.0000
  H   H28       1.0  0.36694  0.52991  0.29266  1.0000
  C   C41       1.0  0.45812  0.86477  0.33693  1.0000
  N   N17       1.0  0.41988  0.85973  0.26055  1.0000
  C   C42       1.0  0.44328  0.85992  0.25801  1.0000
  H   H29       1.0  0.45026  0.85745  0.19859  1.0000
  N   N18       1.0  0.48214  0.86583  0.33690  1.0000
  H   H30       1.0  0.48466  0.85519  0.29191  1.0000
  C   C43       1.0  0.85789  0.41041  0.33567  1.0000
  N   N19       1.0  0.85270  0.44352  0.25931  1.0000
  C   C44       1.0  0.85300  0.42037  0.25675  1.0000
  H   H31       1.0  0.85056  0.41093  0.19731  1.0000
  N   N20       1.0  0.85900  0.38748  0.33566  1.0000
  H   H32       1.0  0.84840  0.37432  0.29061  1.0000
  C   C45       1.0  0.60398  0.46536  0.33679  1.0000
  N   N21       1.0  0.57077  0.42718  0.26019  1.0000
  C   C46       1.0  0.59398  0.45059  0.25776  1.0000
  H   H33       1.0  0.60342  0.45763  0.19834  1.0000
  N   N22       1.0  0.62697  0.48935  0.33700  1.0000
  H   H34       1.0  0.64012  0.49190  0.29195  1.0000
  C   C47       1.0  0.54898  0.15636  0.33632  1.0000
  N   N23       1.0  0.58725  0.16148  0.25999  1.0000
  C   C48       1.0  0.56381  0.16122  0.25741  1.0000
  H   H35       1.0  0.55681  0.16365  0.19796  1.0000
  N   N24       1.0  0.52497  0.15531  0.33638  1.0000
  H   H36       1.0  0.52245  0.16595  0.29138  1.0000
  N   N25       1.0  0.98362  0.37547  0.29552  1.0000
  C   C49       1.0  0.00863  0.38972  0.26230  1.0000
  C   C50       1.0  0.02961  0.40386  0.32341  1.0000
  C   C51       1.0  0.01260  0.39021  0.16523  1.0000
  H   H37       1.0  0.99390  0.37738  0.13094  1.0000
  H   H38       1.0  0.02648  0.38328  0.14999  1.0000
  H   H39       1.0  0.02059  0.41040  0.14003  1.0000
  N   N26       1.0  0.05468  0.42194  0.29760  1.0000
  H   H40       1.0  0.05641  0.43502  0.25354  1.0000
  N   N27       1.0  0.63867  0.62618  0.29444  1.0000
  C   C52       1.0  0.62451  0.63706  0.26140  1.0000
  C   C53       1.0  0.61034  0.64383  0.32261  1.0000
  C   C54       1.0  0.62415  0.64075  0.16440  1.0000
  H   H41       1.0  0.63697  0.63489  0.13001  1.0000
  H   H42       1.0  0.63117  0.66161  0.14963  1.0000
  H   H43       1.0  0.60398  0.62867  0.13890  1.0000
  N   N28       1.0  0.59238  0.65099  0.29683  1.0000
  H   H44       1.0  0.57922  0.63962  0.25299  1.0000
  N   N29       1.0  0.38812  0.03045  0.29449  1.0000
  C   C55       1.0  0.37728  0.00543  0.26139  1.0000
  C   C56       1.0  0.37045  0.98447  0.32257  1.0000
  C   C57       1.0  0.37372  0.00140  0.16435  1.0000
  H   H45       1.0  0.37960  0.02009  0.12997  1.0000
  H   H46       1.0  0.35288  0.98756  0.14931  1.0000
  H   H47       1.0  0.38585  0.99335  0.13910  1.0000
  N   N30       1.0  0.36342  0.95938  0.29693  1.0000
  H   H48       1.0  0.37481  0.95761  0.25312  1.0000
  N   N31       1.0  0.02327  0.64592  0.29448  1.0000
  C   C58       1.0  0.99821  0.63171  0.26161  1.0000
  C   C59       1.0  0.97732  0.61757  0.32299  1.0000
  C   C60       1.0  0.99411  0.63126  0.16463  1.0000
  H   H49       1.0  0.01276  0.64409  0.13010  1.0000
  H   H50       1.0  0.98022  0.63823  0.14984  1.0000
  H   H51       1.0  0.98606  0.61108  0.13930  1.0000
  N   N32       1.0  0.95221  0.59948  0.29758  1.0000
  H   H52       1.0  0.95042  0.58644  0.25326  1.0000
  N   N33       1.0  0.36847  0.39538  0.29328  1.0000
  C   C61       1.0  0.38258  0.38444  0.26032  1.0000
  C   C62       1.0  0.39674  0.37767  0.32156  1.0000
  C   C63       1.0  0.38291  0.38069  0.16335  1.0000
  H   H53       1.0  0.37009  0.38655  0.12891  1.0000
  H   H54       1.0  0.37585  0.35981  0.14872  1.0000
  H   H55       1.0  0.40307  0.39274  0.13778  1.0000
  N   N34       1.0  0.41474  0.37056  0.29600  1.0000
  H   H56       1.0  0.42781  0.38181  0.25174  1.0000
  N   N35       1.0  0.61917  0.99106  0.29353  1.0000
  C   C64       1.0  0.63016  0.01613  0.26066  1.0000
  C   C65       1.0  0.63684  0.03703  0.32194  1.0000
  C   C66       1.0  0.63406  0.02025  0.16375  1.0000
  H   H57       1.0  0.62825  0.00160  0.12929  1.0000
  H   H58       1.0  0.65497  0.03408  0.14948  1.0000
  H   H59       1.0  0.62207  0.02839  0.13790  1.0000
  N   N36       1.0  0.64398  0.06216  0.29632  1.0000
  H   H60       1.0  0.63268  0.06397  0.25229  1.0000
  C   C67       1.0  0.12848  0.49342  0.30117  1.0000
  N   N37       1.0  0.10435  0.47120  0.31001  1.0000
  N   N38       1.0  0.12435  0.44507  0.32275  1.0000
  C   C68       1.0  0.14877  0.46686  0.31217  1.0000
  N   N39       1.0  0.15051  0.49093  0.30194  1.0000
  C   C69       1.0  0.07698  0.42439  0.33557  1.0000
  C   C70       1.0  0.13039  0.51848  0.29375  1.0000
  O   O1        1.0  0.19443  0.48628  0.27940  1.0000
  O   O2        1.0  0.10913  0.51922  0.26011  1.0000
  O   O3        1.0  0.07569  0.40484  0.38808  1.0000
  C   C71       1.0  0.52085  0.65324  0.30194  1.0000
  N   N40       1.0  0.54308  0.65132  0.31046  1.0000
  N   N41       1.0  0.56923  0.69745  0.32331  1.0000
  C   C72       1.0  0.54744  0.70008  0.31302  1.0000
  N   N42       1.0  0.52336  0.67777  0.30285  1.0000
  C   C73       1.0  0.58991  0.67075  0.33549  1.0000
  C   C74       1.0  0.49577  0.63012  0.29441  1.0000
  O   O4        1.0  0.52802  0.72633  0.28017  1.0000
  O   O5        1.0  0.49505  0.60809  0.26109  1.0000
  O   O6        1.0  0.60949  0.68895  0.38803  1.0000
  C   C75       1.0  0.36123  0.88562  0.30210  1.0000
  N   N43       1.0  0.36313  0.90976  0.31047  1.0000
  N   N44       1.0  0.31700  0.88973  0.32321  1.0000
  C   C76       1.0  0.31439  0.86532  0.31309  1.0000
  N   N45       1.0  0.33673  0.86358  0.30306  1.0000
  C   C77       1.0  0.34362  0.93711  0.33530  1.0000
  C   C78       1.0  0.38439  0.88373  0.29477  1.0000
  O   O7        1.0  0.28814  0.81965  0.28029  1.0000
  O   O8        1.0  0.40637  0.90495  0.26085  1.0000
  O   O9        1.0  0.32537  0.93845  0.38767  1.0000
  C   C79       1.0  0.87840  0.52801  0.30145  1.0000
  N   N46       1.0  0.90255  0.55022  0.31029  1.0000
  N   N47       1.0  0.88257  0.57635  0.32363  1.0000
  C   C80       1.0  0.85815  0.55458  0.31305  1.0000
  N   N48       1.0  0.85639  0.53051  0.30250  1.0000
  C   C81       1.0  0.92995  0.59701  0.33604  1.0000
  C   C82       1.0  0.87647  0.50294  0.29355  1.0000
  O   O10       1.0  0.81250  0.53523  0.28005  1.0000
  O   O11       1.0  0.89773  0.50227  0.25962  1.0000
  O   O12       1.0  0.93131  0.61652  0.38887  1.0000
  C   C83       1.0  0.48630  0.36837  0.30130  1.0000
  N   N49       1.0  0.46406  0.37027  0.30959  1.0000
  N   N50       1.0  0.43796  0.32415  0.32303  1.0000
  C   C84       1.0  0.45977  0.32154  0.31299  1.0000
  N   N51       1.0  0.48384  0.34387  0.30266  1.0000
  C   C85       1.0  0.41722  0.35081  0.33470  1.0000
  C   C86       1.0  0.51136  0.39152  0.29376  1.0000
  O   O13       1.0  0.47920  0.29527  0.28066  1.0000
  O   O14       1.0  0.51208  0.41346  0.25960  1.0000
  O   O15       1.0  0.39771  0.33269  0.38763  1.0000
  C   C87       1.0  0.64607  0.13585  0.30173  1.0000
  N   N52       1.0  0.64418  0.11171  0.31019  1.0000
  N   N53       1.0  0.69030  0.13176  0.32352  1.0000
  C   C88       1.0  0.69290  0.15617  0.31331  1.0000
  N   N54       1.0  0.67057  0.15790  0.30294  1.0000
  C   C89       1.0  0.66366  0.08437  0.33534  1.0000
  C   C90       1.0  0.62292  0.13775  0.29399  1.0000
  O   O16       1.0  0.71913  0.20185  0.28061  1.0000
  O   O17       1.0  0.60100  0.11650  0.25989  1.0000
  O   O18       1.0  0.68180  0.08298  0.38820  1.0000
  N   N55       1.0  0.45561  0.11166  0.38124  1.0000
  C   C91       1.0  0.43135  0.10879  0.36365  1.0000
  N   N56       1.0  0.43006  0.13026  0.33506  1.0000
  C   C92       1.0  0.45227  0.15444  0.32651  1.0000
  N   N57       1.0  0.47616  0.15657  0.34446  1.0000
  C   C93       1.0  0.40846  0.08339  0.36326  1.0000
  C   C94       1.0  0.45108  0.17719  0.30108  1.0000
  C   C95       1.0  0.50338  0.13772  0.38444  1.0000
  O   O19       1.0  0.47420  0.20071  0.30509  1.0000
  O   O20       1.0  0.50431  0.11872  0.43389  1.0000
  O   O21       1.0  0.38856  0.07942  0.30719  1.0000
  N   N58       1.0  0.65250  0.55869  0.38149  1.0000
  C   C96       1.0  0.67383  0.58297  0.36377  1.0000
  N   N59       1.0  0.69663  0.58432  0.33523  1.0000
  C   C97       1.0  0.69869  0.56216  0.32691  1.0000
  N   N60       1.0  0.67698  0.53824  0.34500  1.0000
  C   C98       1.0  0.67121  0.60579  0.36315  1.0000
  C   C99       1.0  0.72266  0.56342  0.30146  1.0000
  C   C100      1.0  0.63093  0.51092  0.38507  1.0000
  O   O22       1.0  0.72310  0.54031  0.30512  1.0000
  O   O23       1.0  0.61096  0.51000  0.43432  1.0000
  O   O24       1.0  0.68721  0.62577  0.30744  1.0000
  N   N61       1.0  0.90249  0.36166  0.38171  1.0000
  C   C101      1.0  0.90538  0.34028  0.36422  1.0000
  N   N62       1.0  0.88396  0.31756  0.33506  1.0000
  C   C102      1.0  0.85980  0.31562  0.32586  1.0000
  N   N63       1.0  0.85766  0.33738  0.34376  1.0000
  C   C103      1.0  0.93075  0.34275  0.36437  1.0000
  C   C104      1.0  0.83711  0.29172  0.29987  1.0000
  C   C105      1.0  0.87647  0.38342  0.38417  1.0000
  O   O25       1.0  0.81359  0.29134  0.30306  1.0000
  O   O26       1.0  0.89535  0.40327  0.43416  1.0000
  O   O27       1.0  0.93478  0.32682  0.30847  1.0000
  N   N64       1.0  0.55147  0.90956  0.38119  1.0000
  C   C106      1.0  0.57574  0.91256  0.36303  1.0000
  N   N65       1.0  0.57709  0.89115  0.33407  1.0000
  C   C107      1.0  0.55494  0.86691  0.32576  1.0000
  N   N66       1.0  0.53103  0.86466  0.34431  1.0000
  C   C108      1.0  0.59855  0.93802  0.36218  1.0000
  C   C109      1.0  0.55623  0.84426  0.29970  1.0000
  C   C110      1.0  0.50372  0.88336  0.38510  1.0000
  O   O28       1.0  0.53313  0.82069  0.30337  1.0000
  O   O29       1.0  0.50280  0.90232  0.43477  1.0000
  O   O30       1.0  0.61846  0.94201  0.30613  1.0000
  N   N67       1.0  0.35475  0.46307  0.38103  1.0000
  C   C111      1.0  0.33341  0.43880  0.36327  1.0000
  N   N68       1.0  0.31058  0.43745  0.33516  1.0000
  C   C112      1.0  0.30849  0.45961  0.32730  1.0000
  N   N69       1.0  0.33022  0.48352  0.34539  1.0000
  C   C113      1.0  0.33604  0.41598  0.36210  1.0000
  C   C114      1.0  0.28451  0.45837  0.30219  1.0000
  C   C115      1.0  0.37633  0.51082  0.38491  1.0000
  O   O31       1.0  0.28403  0.48144  0.30639  1.0000
  O   O32       1.0  0.39634  0.51177  0.43391  1.0000
  O   O33       1.0  0.32006  0.39608  0.30615  1.0000
  N   N70       1.0  0.10465  0.65975  0.38103  1.0000
  C   C116      1.0  0.10171  0.68108  0.36325  1.0000
  N   N71       1.0  0.12315  0.70385  0.33452  1.0000
  C   C117      1.0  0.14736  0.70590  0.32606  1.0000
  N   N72       1.0  0.14955  0.68417  0.34422  1.0000
  C   C118      1.0  0.07628  0.67849  0.36276  1.0000
  C   C119      1.0  0.17007  0.72984  0.30042  1.0000
  C   C120      1.0  0.13081  0.63814  0.38448  1.0000
  O   O34       1.0  0.19361  0.73028  0.30437  1.0000
  O   O35       1.0  0.11178  0.61819  0.43378  1.0000
  O   O36       1.0  0.07228  0.69444  0.30690  1.0000
  C   C121      1.0  0.19256  0.43772  0.30905  1.0000
  N   N73       1.0  0.22230  0.42329  0.35655  1.0000
  C   C122      1.0  0.19964  0.42401  0.37039  1.0000
  H   H61       1.0  0.18913  0.41634  0.42769  1.0000
  N   N74       1.0  0.17137  0.44125  0.32271  1.0000
  H   H62       1.0  0.15580  0.42675  0.35122  1.0000
  C   C123      1.0  0.57664  0.77300  0.30866  1.0000
  N   N75       1.0  0.59113  0.81730  0.35484  1.0000
  C   C124      1.0  0.59033  0.79392  0.36958  1.0000
  H   H63       1.0  0.59795  0.79118  0.42720  1.0000
  N   N76       1.0  0.57307  0.74830  0.32313  1.0000
  H   H64       1.0  0.58760  0.74726  0.35160  1.0000
  C   C125      1.0  0.24147  0.82161  0.30908  1.0000
  N   N77       1.0  0.19719  0.79188  0.35560  1.0000
  C   C126      1.0  0.22058  0.81448  0.37004  1.0000
  H   H65       1.0  0.22338  0.82487  0.42759  1.0000
  N   N78       1.0  0.26618  0.84275  0.32325  1.0000
  H   H66       1.0  0.26723  0.85830  0.35188  1.0000
  C   C127      1.0  0.81446  0.58381  0.30955  1.0000
  N   N79       1.0  0.78471  0.59830  0.35653  1.0000
  C   C128      1.0  0.80733  0.59752  0.37076  1.0000
  H   H67       1.0  0.81773  0.60507  0.42832  1.0000
  N   N80       1.0  0.83561  0.58024  0.32349  1.0000
  H   H68       1.0  0.85114  0.59470  0.35237  1.0000
  C   C129      1.0  0.43060  0.24863  0.30981  1.0000
  N   N81       1.0  0.41614  0.20440  0.35682  1.0000
  C   C130      1.0  0.41689  0.22779  0.37101  1.0000
  H   H69       1.0  0.40932  0.23063  0.42853  1.0000
  N   N82       1.0  0.43416  0.27334  0.32372  1.0000
  H   H70       1.0  0.41965  0.27441  0.35227  1.0000
  C   C131      1.0  0.76580  0.19993  0.30938  1.0000
  N   N83       1.0  0.81005  0.22979  0.35580  1.0000
  C   C132      1.0  0.78669  0.20717  0.37043  1.0000
  H   H71       1.0  0.78390  0.19686  0.42816  1.0000
  N   N84       1.0  0.74111  0.17879  0.32372  1.0000
  H   H72       1.0  0.74007  0.16323  0.35232  1.0000
  N   N85       1.0  0.14616  0.59714  0.41204  1.0000
  C   C133      1.0  0.14704  0.57420  0.41602  1.0000
  C   C134      1.0  0.15105  0.56405  0.33553  1.0000
  C   C135      1.0  0.14273  0.56050  0.50223  1.0000
  H   H73       1.0  0.13947  0.57137  0.55527  1.0000
  H   H74       1.0  0.16009  0.55884  0.51928  1.0000
  H   H75       1.0  0.12534  0.54063  0.49825  1.0000
  N   N86       1.0  0.15096  0.54066  0.33024  1.0000
  H   H76       1.0  0.16390  0.53894  0.36666  1.0000
  N   N87       1.0  0.41730  0.56719  0.41271  1.0000
  C   C136      1.0  0.44023  0.59101  0.41651  1.0000
  C   C137      1.0  0.45023  0.60524  0.33603  1.0000
  C   C138      1.0  0.45409  0.60038  0.50250  1.0000
  H   H77       1.0  0.44332  0.58620  0.55557  1.0000
  H   H78       1.0  0.45574  0.61938  0.51991  1.0000
  H   H79       1.0  0.47396  0.60289  0.49797  1.0000
  N   N88       1.0  0.47357  0.62857  0.33047  1.0000
  H   H80       1.0  0.47531  0.64319  0.36715  1.0000
  N   N89       1.0  0.44738  0.86805  0.41290  1.0000
  C   C139      1.0  0.42357  0.86716  0.41704  1.0000
  C   C140      1.0  0.40934  0.86311  0.33665  1.0000
  C   C141      1.0  0.41422  0.87151  0.50329  1.0000
  H   H81       1.0  0.42840  0.87480  0.55625  1.0000
  H   H82       1.0  0.39521  0.85414  0.52051  1.0000
  H   H83       1.0  0.41174  0.88890  0.49931  1.0000
  N   N90       1.0  0.38604  0.86320  0.33150  1.0000
  H   H84       1.0  0.37140  0.85030  0.36807  1.0000
  N   N91       1.0  0.86109  0.42439  0.41165  1.0000
  C   C142      1.0  0.86010  0.44727  0.41581  1.0000
  C   C143      1.0  0.85601  0.45742  0.33542  1.0000
  C   C144      1.0  0.86438  0.46093  0.50210  1.0000
  H   H85       1.0  0.86772  0.45008  0.55503  1.0000
  H   H86       1.0  0.84696  0.46248  0.51930  1.0000
  H   H87       1.0  0.88171  0.48084  0.49816  1.0000
  N   N92       1.0  0.85597  0.48074  0.33029  1.0000
  H   H88       1.0  0.84318  0.48253  0.36729  1.0000
  N   N93       1.0  0.58999  0.45455  0.41275  1.0000
  C   C145      1.0  0.56706  0.43073  0.41676  1.0000
  C   C146      1.0  0.55687  0.41657  0.33626  1.0000
  C   C147      1.0  0.55341  0.42131  0.50304  1.0000
  H   H89       1.0  0.56430  0.43546  0.55606  1.0000
  H   H90       1.0  0.55179  0.40230  0.52001  1.0000
  H   H91       1.0  0.53352  0.41881  0.49922  1.0000
  N   N94       1.0  0.53350  0.39325  0.33106  1.0000
  H   H92       1.0  0.53174  0.37865  0.36791  1.0000
  N   N95       1.0  0.55975  0.15316  0.41234  1.0000
  C   C148      1.0  0.58360  0.15411  0.41651  1.0000
  C   C149      1.0  0.59782  0.15816  0.33612  1.0000
  C   C150      1.0  0.59297  0.14984  0.50282  1.0000
  H   H93       1.0  0.57878  0.14652  0.55575  1.0000
  H   H94       1.0  0.61195  0.16724  0.52001  1.0000
  H   H95       1.0  0.59552  0.13249  0.49894  1.0000
  N   N96       1.0  0.62118  0.15819  0.33102  1.0000
  H   H96       1.0  0.63575  0.17097  0.36810  1.0000
  C   C151      1.0  0.97740  0.37357  0.38339  1.0000
  N   N97       1.0  0.02348  0.40236  0.41127  1.0000
  C   C152      1.0  0.99846  0.38772  0.44342  1.0000
  H   H97       1.0  0.99506  0.38813  0.50983  1.0000
  N   N98       1.0  0.95153  0.36257  0.40922  1.0000
  H   H98       1.0  0.94770  0.37221  0.45450  1.0000
  C   C153      1.0  0.64042  0.62166  0.38223  1.0000
  N   N99       1.0  0.61174  0.63906  0.41040  1.0000
  C   C154      1.0  0.62628  0.62856  0.44239  1.0000
  H   H99       1.0  0.62582  0.62466  0.50874  1.0000
  N   N100      1.0  0.65140  0.60676  0.40799  1.0000
  H   H100      1.0  0.64171  0.59329  0.45323  1.0000
  C   C155      1.0  0.39253  0.03671  0.38233  1.0000
  N   N101      1.0  0.37517  0.99063  0.41038  1.0000
  C   C156      1.0  0.38560  0.01566  0.44244  1.0000
  H   H101      1.0  0.38950  0.01908  0.50879  1.0000
  N   N102      1.0  0.40746  0.06259  0.40805  1.0000
  H   H102      1.0  0.42088  0.06638  0.45350  1.0000
  C   C157      1.0  0.02962  0.64777  0.38223  1.0000
  N   N103      1.0  0.98356  0.61901  0.41071  1.0000
  C   C158      1.0  0.00862  0.63362  0.44251  1.0000
  H   H103      1.0  0.01210  0.63313  0.50881  1.0000
  N   N104      1.0  0.05551  0.65871  0.40775  1.0000
  H   H104      1.0  0.05934  0.64910  0.45316  1.0000
  C   C159      1.0  0.36674  0.39997  0.38102  1.0000
  N   N105      1.0  0.39541  0.38255  0.40929  1.0000
  C   C160      1.0  0.38093  0.39313  0.44121  1.0000
  H   H105      1.0  0.38143  0.39708  0.50753  1.0000
  N   N106      1.0  0.35587  0.41497  0.40668  1.0000
  H   H106      1.0  0.36544  0.42832  0.45239  1.0000
  C   C161      1.0  0.61444  0.98472  0.38122  1.0000
  N   N107      1.0  0.63183  0.03079  0.40961  1.0000
  C   C162      1.0  0.62120  0.00571  0.44144  1.0000
  H   H107      1.0  0.61716  0.00224  0.50771  1.0000
  N   N108      1.0  0.59945  0.95883  0.40665  1.0000
  H   H108      1.0  0.58612  0.95501  0.45244  1.0000
