data_image0
_chemical_formula_structural       C4N2O4C4N2O4C4N2O4C4N2O4C4N2O4C4N2O4C2H2C2H2C2H2C2H2C2H2C2H2C4N2O4C4N2O4C4N2O4C4N2O4C4N2O4C4N2O4C6H3C6H3C6H3C6H3C6H3C6H3C6H3C6H3C6H3C6H3C6H3C6H3C2H2C2H2C2H2C2H2C2H2C2H2C4N2O4C4N2O4C4N2O4C4N2O4C4N2O4C4N2O4C2H2C2H2C2H2C2H2C2H2C2H2
_chemical_formula_sum              "C180 N36 O72 H72"
_cell_length_a       39.8333
_cell_length_b       39.8334
_cell_length_c       14.8392
_cell_angle_alpha    90
_cell_angle_beta     90
_cell_angle_gamma    120

_space_group_name_H-M_alt    "P 1"
_space_group_IT_number       1

loop_
  _space_group_symop_operation_xyz
  'x, y, z'

loop_
  _atom_site_type_symbol
  _atom_site_label
  _atom_site_symmetry_multiplicity
  _atom_site_fract_x
  _atom_site_fract_y
  _atom_site_fract_z
  _atom_site_occupancy
  C   C1        1.0  0.19869  0.45861  0.33691  1.0000
  C   C2        1.0  0.27076  0.45865  0.33691  1.0000
  C   C3        1.0  0.25086  0.45509  0.25437  1.0000
  C   C4        1.0  0.21506  0.45508  0.25438  1.0000
  N   N1        1.0  0.26590  0.45296  0.16920  1.0000
  N   N2        1.0  0.19787  0.45294  0.16921  1.0000
  O   O1        1.0  0.29767  0.48275  0.15126  1.0000
  O   O2        1.0  0.16493  0.42338  0.16198  1.0000
  O   O3        1.0  0.26930  0.42341  0.16196  1.0000
  O   O4        1.0  0.19587  0.48272  0.15126  1.0000
  C   C5        1.0  0.57352  0.76136  0.33693  1.0000
  C   C6        1.0  0.57350  0.83339  0.33696  1.0000
  C   C7        1.0  0.57703  0.81704  0.25442  1.0000
  C   C8        1.0  0.57705  0.78125  0.25440  1.0000
  N   N3        1.0  0.57915  0.83421  0.16924  1.0000
  N   N4        1.0  0.57914  0.76619  0.16922  1.0000
  O   O5        1.0  0.54936  0.83620  0.15131  1.0000
  O   O6        1.0  0.60869  0.76278  0.16192  1.0000
  O   O7        1.0  0.60870  0.86716  0.16198  1.0000
  O   O8        1.0  0.54935  0.73442  0.15131  1.0000
  C   C9        1.0  0.27075  0.83344  0.33694  1.0000
  C   C10       1.0  0.19869  0.76138  0.33697  1.0000
  C   C11       1.0  0.21505  0.78128  0.25443  1.0000
  C   C12       1.0  0.25084  0.81709  0.25442  1.0000
  N   N5        1.0  0.19787  0.76624  0.16926  1.0000
  N   N6        1.0  0.26589  0.83425  0.16924  1.0000
  O   O9        1.0  0.19587  0.73447  0.15128  1.0000
  O   O10       1.0  0.26929  0.86721  0.16198  1.0000
  O   O11       1.0  0.16492  0.76286  0.16204  1.0000
  O   O12       1.0  0.29766  0.83624  0.15129  1.0000
  C   C13       1.0  0.82998  0.57700  0.33697  1.0000
  C   C14       1.0  0.75790  0.57695  0.33695  1.0000
  C   C15       1.0  0.77781  0.58051  0.25442  1.0000
  C   C16       1.0  0.81361  0.58052  0.25443  1.0000
  N   N7        1.0  0.76276  0.58263  0.16924  1.0000
  N   N8        1.0  0.83078  0.58265  0.16926  1.0000
  O   O13       1.0  0.73099  0.55284  0.15130  1.0000
  O   O14       1.0  0.86373  0.61222  0.16201  1.0000
  O   O15       1.0  0.75934  0.61217  0.16198  1.0000
  O   O16       1.0  0.83279  0.55288  0.15130  1.0000
  C   C17       1.0  0.45511  0.27425  0.33693  1.0000
  C   C18       1.0  0.45513  0.20219  0.33691  1.0000
  C   C19       1.0  0.45157  0.21855  0.25440  1.0000
  C   C20       1.0  0.45157  0.25435  0.25441  1.0000
  N   N9        1.0  0.44944  0.20138  0.16922  1.0000
  N   N10       1.0  0.44943  0.26939  0.16924  1.0000
  O   O17       1.0  0.47922  0.19939  0.15126  1.0000
  O   O18       1.0  0.41987  0.27277  0.16201  1.0000
  O   O19       1.0  0.41989  0.16842  0.16198  1.0000
  O   O20       1.0  0.47920  0.30117  0.15127  1.0000
  C   C21       1.0  0.75785  0.20215  0.33695  1.0000
  C   C22       1.0  0.82993  0.27420  0.33693  1.0000
  C   C23       1.0  0.81355  0.25430  0.25441  1.0000
  C   C24       1.0  0.77776  0.21850  0.25443  1.0000
  N   N11       1.0  0.83073  0.26934  0.16923  1.0000
  N   N12       1.0  0.76270  0.20134  0.16925  1.0000
  O   O21       1.0  0.83273  0.30111  0.15128  1.0000
  O   O22       1.0  0.75929  0.16838  0.16199  1.0000
  O   O23       1.0  0.86368  0.27272  0.16199  1.0000
  O   O24       1.0  0.73094  0.19936  0.15131  1.0000
  C   C25       1.0  0.14783  0.60218  0.26786  1.0000
  C   C26       1.0  0.14781  0.56695  0.26786  1.0000
  H   H1        1.0  0.14547  0.55345  0.20753  1.0000
  H   H2        1.0  0.14550  0.61335  0.20753  1.0000
  C   C27       1.0  0.42995  0.56695  0.26783  1.0000
  C   C28       1.0  0.46519  0.60217  0.26783  1.0000
  H   H3        1.0  0.47867  0.61335  0.20751  1.0000
  H   H4        1.0  0.41878  0.55346  0.20751  1.0000
  C   C29       1.0  0.46515  0.88423  0.26790  1.0000
  C   C30       1.0  0.42993  0.88426  0.26791  1.0000
  H   H5        1.0  0.41881  0.88667  0.20759  1.0000
  H   H6        1.0  0.47869  0.88667  0.20758  1.0000
  C   C31       1.0  0.88074  0.43337  0.26788  1.0000
  C   C32       1.0  0.88076  0.46861  0.26787  1.0000
  H   H7        1.0  0.88318  0.48215  0.20755  1.0000
  H   H8        1.0  0.88315  0.42226  0.20757  1.0000
  C   C33       1.0  0.59869  0.46866  0.26788  1.0000
  C   C34       1.0  0.56345  0.43345  0.26787  1.0000
  H   H9        1.0  0.54995  0.42229  0.20753  1.0000
  H   H10       1.0  0.60986  0.48216  0.20755  1.0000
  C   C35       1.0  0.56346  0.15133  0.26784  1.0000
  C   C36       1.0  0.59867  0.15130  0.26785  1.0000
  H   H11       1.0  0.60984  0.14898  0.20753  1.0000
  H   H12       1.0  0.54996  0.14900  0.20752  1.0000
  C   C37       1.0  0.97271  0.36937  0.33719  1.0000
  C   C38       1.0  0.05590  0.41096  0.33716  1.0000
  C   C39       1.0  0.03497  0.39777  0.25455  1.0000
  C   C40       1.0  0.99365  0.37712  0.25457  1.0000
  N   N13       1.0  0.05359  0.40617  0.16926  1.0000
  N   N14       1.0  0.97502  0.36688  0.16929  1.0000
  O   O25       1.0  0.07179  0.44177  0.15142  1.0000
  O   O26       1.0  0.95279  0.33097  0.16186  1.0000
  O   O27       1.0  0.07583  0.39251  0.16182  1.0000
  O   O28       1.0  0.95681  0.38427  0.15144  1.0000
  C   C41       1.0  0.66276  0.62461  0.33728  1.0000
  C   C42       1.0  0.62117  0.66621  0.33728  1.0000
  C   C43       1.0  0.63432  0.65843  0.25464  1.0000
  C   C44       1.0  0.65499  0.63778  0.25464  1.0000
  N   N15       1.0  0.62590  0.66863  0.16936  1.0000
  N   N16       1.0  0.66516  0.62933  0.16934  1.0000
  O   O29       1.0  0.59030  0.65122  0.15154  1.0000
  O   O30       1.0  0.70106  0.64297  0.16178  1.0000
  O   O31       1.0  0.63956  0.70453  0.16184  1.0000
  O   O32       1.0  0.64773  0.59372  0.15156  1.0000
  C   C45       1.0  0.40747  0.05940  0.33717  1.0000
  C   C46       1.0  0.36598  0.97623  0.33730  1.0000
  C   C47       1.0  0.37370  0.99713  0.25462  1.0000
  C   C48       1.0  0.39432  0.03845  0.25457  1.0000
  N   N17       1.0  0.36347  0.97849  0.16935  1.0000
  N   N18       1.0  0.40273  0.05705  0.16926  1.0000
  O   O33       1.0  0.38087  0.96029  0.15151  1.0000
  O   O34       1.0  0.38905  0.07928  0.16175  1.0000
  O   O35       1.0  0.32756  0.95624  0.16192  1.0000
  O   O36       1.0  0.43833  0.07527  0.15146  1.0000
  C   C49       1.0  0.05589  0.66618  0.33727  1.0000
  C   C50       1.0  0.97278  0.62460  0.33728  1.0000
  C   C51       1.0  0.99367  0.63775  0.25460  1.0000
  C   C52       1.0  0.03500  0.65841  0.25459  1.0000
  N   N19       1.0  0.97505  0.62931  0.16932  1.0000
  N   N20       1.0  0.05362  0.66861  0.16931  1.0000
  O   O37       1.0  0.95686  0.59371  0.15153  1.0000
  O   O38       1.0  0.07585  0.70452  0.16182  1.0000
  O   O39       1.0  0.95280  0.64297  0.16182  1.0000
  O   O40       1.0  0.07183  0.65122  0.15151  1.0000
  C   C53       1.0  0.36585  0.41093  0.33715  1.0000
  C   C54       1.0  0.40746  0.36940  0.33720  1.0000
  C   C55       1.0  0.39428  0.37711  0.25454  1.0000
  C   C56       1.0  0.37362  0.39777  0.25453  1.0000
  N   N21       1.0  0.40269  0.36689  0.16927  1.0000
  N   N22       1.0  0.36339  0.40616  0.16925  1.0000
  O   O41       1.0  0.43829  0.38429  0.15144  1.0000
  O   O42       1.0  0.32748  0.39249  0.16181  1.0000
  O   O43       1.0  0.38903  0.33098  0.16184  1.0000
  O   O44       1.0  0.38077  0.44176  0.15141  1.0000
  C   C57       1.0  0.62111  0.97620  0.33728  1.0000
  C   C58       1.0  0.66270  0.05935  0.33728  1.0000
  C   C59       1.0  0.65491  0.03842  0.25463  1.0000
  C   C60       1.0  0.63426  0.99710  0.25461  1.0000
  N   N23       1.0  0.66511  0.05704  0.16935  1.0000
  N   N24       1.0  0.62581  0.97848  0.16932  1.0000
  O   O45       1.0  0.64771  0.07524  0.15153  1.0000
  O   O46       1.0  0.63946  0.95622  0.16177  1.0000
  O   O47       1.0  0.70102  0.07929  0.16184  1.0000
  O   O48       1.0  0.59021  0.96030  0.15155  1.0000
  C   C61       1.0  0.14224  0.51087  0.34598  1.0000
  C   C62       1.0  0.10385  0.47956  0.34334  1.0000
  C   C63       1.0  0.09573  0.44075  0.33953  1.0000
  C   C64       1.0  0.12725  0.43363  0.33786  1.0000
  C   C65       1.0  0.16620  0.46467  0.33970  1.0000
  C   C66       1.0  0.17317  0.50317  0.34398  1.0000
  H   H13       1.0  0.12178  0.40567  0.33509  1.0000
  H   H14       1.0  0.20108  0.52592  0.34508  1.0000
  H   H15       1.0  0.08136  0.48517  0.34429  1.0000
  C   C67       1.0  0.52127  0.65265  0.34598  1.0000
  C   C68       1.0  0.55259  0.64558  0.34336  1.0000
  C   C69       1.0  0.59140  0.67627  0.33953  1.0000
  C   C70       1.0  0.59851  0.71490  0.33790  1.0000
  C   C71       1.0  0.56747  0.72281  0.33970  1.0000
  C   C72       1.0  0.52897  0.69128  0.34396  1.0000
  H   H16       1.0  0.62648  0.73740  0.33515  1.0000
  H   H17       1.0  0.50622  0.69644  0.34505  1.0000
  H   H18       1.0  0.54698  0.61748  0.34433  1.0000
  C   C73       1.0  0.37945  0.88984  0.34601  1.0000
  C   C74       1.0  0.38655  0.92824  0.34339  1.0000
  C   C75       1.0  0.35588  0.93638  0.33953  1.0000
  C   C76       1.0  0.31724  0.90489  0.33790  1.0000
  C   C77       1.0  0.30930  0.86593  0.33970  1.0000
  C   C78       1.0  0.34081  0.85893  0.34399  1.0000
  H   H19       1.0  0.29476  0.91038  0.33514  1.0000
  H   H20       1.0  0.33563  0.83101  0.34509  1.0000
  H   H21       1.0  0.41466  0.95071  0.34437  1.0000
  C   C79       1.0  0.88641  0.52472  0.34600  1.0000
  C   C80       1.0  0.92480  0.55603  0.34336  1.0000
  C   C81       1.0  0.93293  0.59484  0.33953  1.0000
  C   C82       1.0  0.90143  0.60198  0.33790  1.0000
  C   C83       1.0  0.86247  0.57094  0.33970  1.0000
  C   C84       1.0  0.85549  0.53244  0.34397  1.0000
  H   H22       1.0  0.90690  0.62994  0.33516  1.0000
  H   H23       1.0  0.82757  0.50969  0.34508  1.0000
  H   H24       1.0  0.94728  0.55041  0.34434  1.0000
  C   C85       1.0  0.50737  0.38296  0.34601  1.0000
  C   C86       1.0  0.47605  0.39003  0.34336  1.0000
  C   C87       1.0  0.43725  0.35934  0.33954  1.0000
  C   C88       1.0  0.43013  0.32071  0.33788  1.0000
  C   C89       1.0  0.46117  0.31280  0.33970  1.0000
  C   C90       1.0  0.49967  0.34433  0.34398  1.0000
  H   H25       1.0  0.40217  0.29822  0.33511  1.0000
  H   H26       1.0  0.52242  0.33917  0.34509  1.0000
  H   H27       1.0  0.48166  0.41813  0.34432  1.0000
  C   C91       1.0  0.64914  0.14570  0.34600  1.0000
  C   C92       1.0  0.64207  0.10731  0.34337  1.0000
  C   C93       1.0  0.67276  0.09919  0.33953  1.0000
  C   C94       1.0  0.71139  0.13070  0.33790  1.0000
  C   C95       1.0  0.71930  0.16965  0.33970  1.0000
  C   C96       1.0  0.68778  0.17663  0.34398  1.0000
  H   H28       1.0  0.73389  0.12523  0.33516  1.0000
  H   H29       1.0  0.69294  0.20454  0.34507  1.0000
  H   H30       1.0  0.61397  0.08482  0.34435  1.0000
  C   C97       1.0  0.50738  0.14574  0.34598  1.0000
  C   C98       1.0  0.47606  0.10735  0.34334  1.0000
  C   C99       1.0  0.43726  0.09924  0.33952  1.0000
  C   C100      1.0  0.43014  0.13075  0.33786  1.0000
  C   C101      1.0  0.46118  0.16970  0.33970  1.0000
  C   C102      1.0  0.49968  0.17667  0.34398  1.0000
  H   H31       1.0  0.40218  0.12529  0.33509  1.0000
  H   H32       1.0  0.52244  0.20458  0.34508  1.0000
  H   H33       1.0  0.48167  0.08486  0.34429  1.0000
  C   C103      1.0  0.64920  0.52472  0.34598  1.0000
  C   C104      1.0  0.64213  0.55604  0.34337  1.0000
  C   C105      1.0  0.67282  0.59484  0.33953  1.0000
  C   C106      1.0  0.71145  0.60196  0.33789  1.0000
  C   C107      1.0  0.71935  0.57091  0.33970  1.0000
  C   C108      1.0  0.68783  0.53242  0.34396  1.0000
  H   H34       1.0  0.73395  0.62992  0.33515  1.0000
  H   H35       1.0  0.69299  0.50966  0.34509  1.0000
  H   H36       1.0  0.61403  0.55043  0.34435  1.0000
  C   C109      1.0  0.88636  0.38291  0.34599  1.0000
  C   C110      1.0  0.92475  0.38999  0.34335  1.0000
  C   C111      1.0  0.93288  0.35931  0.33953  1.0000
  C   C112      1.0  0.90137  0.32067  0.33788  1.0000
  C   C113      1.0  0.86242  0.31275  0.33971  1.0000
  C   C114      1.0  0.85543  0.34427  0.34399  1.0000
  H   H37       1.0  0.90685  0.29818  0.33511  1.0000
  H   H38       1.0  0.82752  0.33910  0.34510  1.0000
  H   H39       1.0  0.94724  0.41810  0.34431  1.0000
  C   C115      1.0  0.52123  0.88983  0.34599  1.0000
  C   C116      1.0  0.55254  0.92823  0.34337  1.0000
  C   C117      1.0  0.59135  0.93635  0.33952  1.0000
  C   C118      1.0  0.59848  0.90485  0.33790  1.0000
  C   C119      1.0  0.56745  0.86590  0.33970  1.0000
  C   C120      1.0  0.52895  0.85891  0.34398  1.0000
  H   H40       1.0  0.62645  0.91033  0.33514  1.0000
  H   H41       1.0  0.50620  0.83099  0.34509  1.0000
  H   H42       1.0  0.54692  0.95071  0.34435  1.0000
  C   C121      1.0  0.37947  0.51087  0.34598  1.0000
  C   C122      1.0  0.38652  0.47953  0.34333  1.0000
  C   C123      1.0  0.35582  0.44074  0.33951  1.0000
  C   C124      1.0  0.31720  0.43364  0.33787  1.0000
  C   C125      1.0  0.30931  0.46469  0.33968  1.0000
  C   C126      1.0  0.34084  0.50318  0.34397  1.0000
  H   H43       1.0  0.29469  0.40568  0.33509  1.0000
  H   H44       1.0  0.33570  0.52594  0.34507  1.0000
  H   H45       1.0  0.41462  0.48513  0.34427  1.0000
  C   C127      1.0  0.14227  0.65268  0.34598  1.0000
  C   C128      1.0  0.10387  0.64559  0.34335  1.0000
  C   C129      1.0  0.09575  0.67627  0.33952  1.0000
  C   C130      1.0  0.12725  0.71491  0.33790  1.0000
  C   C131      1.0  0.16620  0.72283  0.33970  1.0000
  C   C132      1.0  0.17319  0.69132  0.34398  1.0000
  H   H46       1.0  0.12177  0.73739  0.33516  1.0000
  H   H47       1.0  0.20111  0.69649  0.34509  1.0000
  H   H48       1.0  0.08139  0.61748  0.34433  1.0000
  C   C133      1.0  0.21887  0.46224  0.41790  1.0000
  C   C134      1.0  0.25420  0.46227  0.41790  1.0000
  H   H49       1.0  0.26854  0.46641  0.47778  1.0000
  H   H50       1.0  0.20868  0.46639  0.47778  1.0000
  C   C135      1.0  0.56997  0.77794  0.41795  1.0000
  C   C136      1.0  0.56996  0.81325  0.41796  1.0000
  H   H51       1.0  0.56584  0.82346  0.47784  1.0000
  H   H52       1.0  0.56585  0.76361  0.47783  1.0000
  C   C137      1.0  0.25419  0.81327  0.41794  1.0000
  C   C138      1.0  0.21888  0.77795  0.41794  1.0000
  H   H53       1.0  0.20865  0.76365  0.47784  1.0000
  H   H54       1.0  0.26850  0.82350  0.47784  1.0000
  C   C139      1.0  0.80981  0.57341  0.41796  1.0000
  C   C140      1.0  0.77448  0.57337  0.41796  1.0000
  H   H55       1.0  0.76017  0.56931  0.47785  1.0000
  H   H56       1.0  0.82004  0.56933  0.47785  1.0000
  C   C141      1.0  0.45876  0.25770  0.41790  1.0000
  C   C142      1.0  0.45878  0.22239  0.41789  1.0000
  H   H57       1.0  0.46293  0.21220  0.47778  1.0000
  H   H58       1.0  0.46292  0.27204  0.47778  1.0000
  C   C143      1.0  0.77443  0.22233  0.41793  1.0000
  C   C144      1.0  0.80975  0.25764  0.41792  1.0000
  H   H59       1.0  0.81995  0.27198  0.47780  1.0000
  H   H60       1.0  0.76009  0.21215  0.47782  1.0000
  C   C145      1.0  0.14867  0.62068  0.34960  1.0000
  C   C146      1.0  0.14862  0.54926  0.34958  1.0000
  C   C147      1.0  0.15008  0.56784  0.43275  1.0000
  C   C148      1.0  0.15010  0.60355  0.43276  1.0000
  N   N25       1.0  0.15021  0.55169  0.51795  1.0000
  N   N26       1.0  0.15022  0.61982  0.51797  1.0000
  O   O49       1.0  0.11967  0.52014  0.53266  1.0000
  O   O50       1.0  0.17911  0.65309  0.52799  1.0000
  O   O51       1.0  0.17909  0.54729  0.52795  1.0000
  O   O52       1.0  0.11969  0.62084  0.53266  1.0000
  C   C149      1.0  0.41149  0.54924  0.34956  1.0000
  C   C150      1.0  0.48289  0.62064  0.34956  1.0000
  C   C151      1.0  0.46432  0.60351  0.43273  1.0000
  C   C152      1.0  0.42862  0.56780  0.43274  1.0000
  N   N27       1.0  0.48048  0.61977  0.51795  1.0000
  N   N28       1.0  0.41236  0.55165  0.51795  1.0000
  O   O53       1.0  0.51203  0.62078  0.53262  1.0000
  O   O54       1.0  0.37909  0.54726  0.52799  1.0000
  O   O55       1.0  0.48488  0.65304  0.52799  1.0000
  O   O56       1.0  0.41134  0.52009  0.53261  1.0000
  C   C153      1.0  0.48284  0.88343  0.34962  1.0000
  C   C154      1.0  0.41143  0.88342  0.34964  1.0000
  C   C155      1.0  0.42857  0.88198  0.43280  1.0000
  C   C156      1.0  0.46427  0.88199  0.43279  1.0000
  N   N29       1.0  0.41230  0.88187  0.51801  1.0000
  N   N30       1.0  0.48042  0.88187  0.51799  1.0000
  O   O57       1.0  0.41129  0.91241  0.53269  1.0000
  O   O58       1.0  0.48481  0.85299  0.52800  1.0000
  O   O59       1.0  0.37903  0.85300  0.52804  1.0000
  O   O60       1.0  0.51198  0.91241  0.53268  1.0000
  C   C157      1.0  0.87996  0.41489  0.34962  1.0000
  C   C158      1.0  0.88001  0.48633  0.34960  1.0000
  C   C159      1.0  0.87857  0.46776  0.43277  1.0000
  C   C160      1.0  0.87854  0.43205  0.43277  1.0000
  N   N31       1.0  0.87846  0.48392  0.51797  1.0000
  N   N32       1.0  0.87845  0.41579  0.51798  1.0000
  O   O61       1.0  0.90901  0.51547  0.53264  1.0000
  O   O62       1.0  0.84957  0.38253  0.52806  1.0000
  O   O63       1.0  0.84960  0.48833  0.52801  1.0000
  O   O64       1.0  0.90899  0.41478  0.53263  1.0000
  C   C161      1.0  0.61720  0.48634  0.34960  1.0000
  C   C162      1.0  0.54575  0.41497  0.34958  1.0000
  C   C163      1.0  0.56433  0.43208  0.43276  1.0000
  C   C164      1.0  0.60005  0.46776  0.43276  1.0000
  N   N33       1.0  0.54818  0.41581  0.51797  1.0000
  N   N34       1.0  0.61632  0.48391  0.51797  1.0000
  O   O65       1.0  0.51663  0.41480  0.53267  1.0000
  O   O66       1.0  0.64958  0.48828  0.52801  1.0000
  O   O67       1.0  0.54378  0.38253  0.52797  1.0000
  O   O68       1.0  0.61735  0.51547  0.53265  1.0000
  C   C165      1.0  0.54576  0.15210  0.34958  1.0000
  C   C166      1.0  0.61714  0.15208  0.34959  1.0000
  C   C167      1.0  0.60001  0.15352  0.43276  1.0000
  C   C168      1.0  0.56432  0.15353  0.43276  1.0000
  N   N35       1.0  0.61628  0.15363  0.51797  1.0000
  N   N36       1.0  0.54816  0.15365  0.51797  1.0000
  O   O69       1.0  0.61728  0.12308  0.53264  1.0000
  O   O70       1.0  0.54378  0.18253  0.52799  1.0000
  O   O71       1.0  0.64955  0.18250  0.52801  1.0000
  O   O72       1.0  0.51660  0.12312  0.53264  1.0000
  C   C169      1.0  0.99394  0.38180  0.41847  1.0000
  C   C170      1.0  0.03469  0.40221  0.41846  1.0000
  H   H61       1.0  0.04875  0.41327  0.47828  1.0000
  H   H62       1.0  0.97989  0.37884  0.47830  1.0000
  C   C171      1.0  0.65046  0.63353  0.41858  1.0000
  C   C172      1.0  0.63008  0.65390  0.41858  1.0000
  H   H63       1.0  0.61903  0.65692  0.47840  1.0000
  H   H64       1.0  0.65346  0.62247  0.47841  1.0000
  C   C173      1.0  0.39870  0.03821  0.41851  1.0000
  C   C174      1.0  0.37836  0.99746  0.41857  1.0000
  H   H65       1.0  0.37524  0.98340  0.47844  1.0000
  H   H66       1.0  0.40965  0.05230  0.47836  1.0000
  C   C175      1.0  0.03471  0.65387  0.41862  1.0000
  C   C176      1.0  0.99397  0.63346  0.41861  1.0000
  H   H67       1.0  0.97988  0.62253  0.47846  1.0000
  H   H68       1.0  0.04881  0.65700  0.47846  1.0000
  C   C177      1.0  0.37826  0.40214  0.41849  1.0000
  C   C178      1.0  0.39867  0.38181  0.41851  1.0000
  H   H69       1.0  0.40973  0.37881  0.47834  1.0000
  H   H70       1.0  0.37528  0.41324  0.47829  1.0000
  C   C179      1.0  0.63002  0.99738  0.41862  1.0000
  C   C180      1.0  0.65039  0.03814  0.41859  1.0000
  H   H71       1.0  0.65342  0.05221  0.47841  1.0000
  H   H72       1.0  0.61896  0.98332  0.47844  1.0000
