data_image0
_chemical_formula_structural       C3O2CH4C3H2NC3O2CH4C3H2NHCH2CHCNCH2CHCNCH2CHC4OCH3C4OCH3O2HC2NC2O2CHC2NC2O2CH3NCHNCHNCHC3HCHC6H3C6H3NCHNCHC2NC2OC2NC2O2CH3C2NC2O2CH4C2NC2O2CHC2NC2O2CH3NCHNCHNCHC3HCHC6H3C6H3NCHNCHC2NC2OC2NC2O2CH3C2NC2O2CH3C2NC2O2CH2C2NC2OH2C2NC2O2CH3NCHNCHNCHC6H3C6H3C6H3C6H3NCHNCHNCHC2NC2O2CH3C2NC2O2CH3C2NC2O2CH3C2NC2O2CH2C2NC2OH2C2NC2O2CH3NCHNCHNCHC6H3C6H3C6H3C6H3NCHNCHNCHC2NC2O2CH3C2NC2O2CH3C2NC2O2CH3
_chemical_formula_sum              "C240 O48 H144 N48"
_cell_length_a       45.2282
_cell_length_b       45.2493
_cell_length_c       14.837
_cell_angle_alpha    90
_cell_angle_beta     90
_cell_angle_gamma    119.989

_space_group_name_H-M_alt    "P 1"
_space_group_IT_number       1

loop_
  _space_group_symop_operation_xyz
  'x, y, z'

loop_
  _atom_site_type_symbol
  _atom_site_label
  _atom_site_symmetry_multiplicity
  _atom_site_fract_x
  _atom_site_fract_y
  _atom_site_fract_z
  _atom_site_occupancy
  C   C1        1.0  0.07871  0.03996  0.32589  1.0000
  C   C2        1.0  0.09949  0.03193  0.27026  1.0000
  C   C3        1.0  0.08684  0.00685  0.20406  1.0000
  O   O1        1.0  0.10616  0.99773  0.17322  1.0000
  O   O2        1.0  0.06562  0.00880  0.14404  1.0000
  C   C4        1.0  0.04079  0.47692  0.10390  1.0000
  H   H1        1.0  0.02546  0.45789  0.15463  1.0000
  H   H2        1.0  0.05312  0.96673  0.06058  1.0000
  H   H3        1.0  0.03162  0.04499  0.06938  1.0000
  H   H4        1.0  0.05407  0.07360  0.15804  1.0000
  C   C5        1.0  0.04204  0.02179  0.32812  1.0000
  C   C6        1.0  0.02375  0.03968  0.32941  1.0000
  C   C7        1.0  0.02287  0.48565  0.32974  1.0000
  H   H5        1.0  0.03558  0.47224  0.33098  1.0000
  H   H6        1.0  0.03712  0.06579  0.33034  1.0000
  N   N1        1.0  0.09543  0.06743  0.38159  1.0000
  C   C8        1.0  0.07871  0.53996  0.32589  1.0000
  C   C9        1.0  0.09949  0.53193  0.27026  1.0000
  C   C10       1.0  0.08684  0.50685  0.20406  1.0000
  O   O3        1.0  0.10617  0.49773  0.17322  1.0000
  O   O4        1.0  0.06562  0.50881  0.14404  1.0000
  C   C11       1.0  0.04079  0.97692  0.10390  1.0000
  H   H7        1.0  0.02546  0.95789  0.15464  1.0000
  H   H8        1.0  0.05312  0.46673  0.06058  1.0000
  H   H9        1.0  0.03162  0.54499  0.06938  1.0000
  H   H10       1.0  0.05407  0.57360  0.15804  1.0000
  C   C12       1.0  0.04204  0.52179  0.32812  1.0000
  C   C13       1.0  0.02375  0.53967  0.32941  1.0000
  C   C14       1.0  0.02288  0.98565  0.32974  1.0000
  H   H11       1.0  0.03558  0.97224  0.33098  1.0000
  H   H12       1.0  0.03712  0.56579  0.33034  1.0000
  N   N2        1.0  0.09543  0.56743  0.38159  1.0000
  H   H13       1.0  0.02371  0.48160  0.06223  1.0000
  C   C15       1.0  0.03446  0.06700  0.10663  1.0000
  H   H14       1.0  0.04286  0.08823  0.05939  1.0000
  H   H15       1.0  0.02371  0.98160  0.06223  1.0000
  C   C16       1.0  0.03446  0.56700  0.10663  1.0000
  H   H16       1.0  0.04286  0.58823  0.05940  1.0000
  C   C17       1.0  0.15079  0.07872  0.33579  1.0000
  N   N3        1.0  0.13412  0.05162  0.27931  1.0000
  C   C18       1.0  0.18729  0.09703  0.33937  1.0000
  H   H17       1.0  0.19362  0.14689  0.34064  1.0000
  H   H18       1.0  0.19267  0.05293  0.33925  1.0000
  C   C19       1.0  0.12991  0.08703  0.38813  1.0000
  H   H19       1.0  0.14013  0.10676  0.43311  1.0000
  C   C20       1.0  0.15079  0.57872  0.33579  1.0000
  N   N4        1.0  0.13412  0.55162  0.27931  1.0000
  C   C21       1.0  0.18729  0.59703  0.33937  1.0000
  H   H20       1.0  0.19362  0.64689  0.34064  1.0000
  H   H21       1.0  0.19267  0.55293  0.33925  1.0000
  C   C22       1.0  0.12991  0.58702  0.38813  1.0000
  H   H22       1.0  0.14013  0.60676  0.43311  1.0000
  C   C23       1.0  0.24163  0.09654  0.34606  1.0000
  C   C24       1.0  0.24221  0.15128  0.34605  1.0000
  C   C25       1.0  0.20614  0.13330  0.34258  1.0000
  C   C26       1.0  0.20563  0.07906  0.33977  1.0000
  O   O5        1.0  0.23428  0.06958  0.53569  1.0000
  C   C27       1.0  0.22334  0.09065  0.58085  1.0000
  H   H23       1.0  0.19566  0.07596  0.58782  1.0000
  H   H24       1.0  0.22982  0.11371  0.54227  1.0000
  H   H25       1.0  0.23442  0.09782  0.64824  1.0000
  C   C28       1.0  0.24163  0.59654  0.34606  1.0000
  C   C29       1.0  0.24221  0.65128  0.34605  1.0000
  C   C30       1.0  0.20614  0.63330  0.34258  1.0000
  C   C31       1.0  0.20563  0.57906  0.33977  1.0000
  O   O6        1.0  0.23428  0.56958  0.53569  1.0000
  C   C32       1.0  0.22334  0.59066  0.58085  1.0000
  H   H26       1.0  0.19566  0.57596  0.58782  1.0000
  H   H27       1.0  0.22982  0.61370  0.54227  1.0000
  H   H28       1.0  0.23442  0.59782  0.64824  1.0000
  O   O7        1.0  0.00827  0.10856  0.16307  1.0000
  O   O8        1.0  0.00827  0.60856  0.16307  1.0000
  H   H29       1.0  0.52371  0.48160  0.06223  1.0000
  C   C33       1.0  0.46946  0.04117  0.32484  1.0000
  C   C34       1.0  0.43097  0.07468  0.33602  1.0000
  N   N5        1.0  0.45753  0.08462  0.27791  1.0000
  C   C35       1.0  0.47707  0.06954  0.26790  1.0000
  C   C36       1.0  0.50170  0.08174  0.20027  1.0000
  O   O9        1.0  0.50827  0.10856  0.16307  1.0000
  O   O10       1.0  0.50184  0.05813  0.14558  1.0000
  C   C37       1.0  0.53446  0.06700  0.10663  1.0000
  H   H30       1.0  0.54286  0.08823  0.05939  1.0000
  C   C38       1.0  0.46829  0.43078  0.32498  1.0000
  C   C39       1.0  0.43501  0.35883  0.33594  1.0000
  N   N6        1.0  0.42539  0.37539  0.27673  1.0000
  C   C40       1.0  0.44039  0.40998  0.26664  1.0000
  C   C41       1.0  0.42851  0.42239  0.19790  1.0000
  O   O11       1.0  0.40226  0.40177  0.15906  1.0000
  O   O12       1.0  0.45256  0.44688  0.14575  1.0000
  C   C42       1.0  0.44327  0.47013  0.10572  1.0000
  H   H31       1.0  0.46550  0.48992  0.07047  1.0000
  H   H32       1.0  0.43545  0.48239  0.15635  1.0000
  H   H33       1.0  0.42276  0.45711  0.05655  1.0000
  N   N7        1.0  0.27622  0.07871  0.27373  1.0000
  C   C43       1.0  0.30469  0.07591  0.26853  1.0000
  H   H34       1.0  0.31557  0.07786  0.20681  1.0000
  N   N8        1.0  0.43096  0.20003  0.27470  1.0000
  C   C44       1.0  0.43375  0.23128  0.26927  1.0000
  H   H35       1.0  0.43138  0.23987  0.20746  1.0000
  N   N9        1.0  0.30975  0.23369  0.27367  1.0000
  C   C45       1.0  0.27843  0.20532  0.26801  1.0000
  H   H36       1.0  0.26986  0.19434  0.20623  1.0000
  C   C46       1.0  0.48761  0.02268  0.32733  1.0000
  C   C47       1.0  0.46969  0.48652  0.32874  1.0000
  C   C48       1.0  0.48671  0.46740  0.32757  1.0000
  H   H37       1.0  0.44355  0.47376  0.32910  1.0000
  C   C49       1.0  0.25942  0.13250  0.34816  1.0000
  H   H38       1.0  0.28561  0.14536  0.35176  1.0000
  C   C50       1.0  0.41343  0.14784  0.34679  1.0000
  C   C51       1.0  0.37744  0.12972  0.34917  1.0000
  C   C52       1.0  0.35860  0.09375  0.34700  1.0000
  C   C53       1.0  0.37651  0.07560  0.34338  1.0000
  C   C54       1.0  0.41278  0.09297  0.34000  1.0000
  C   C55       1.0  0.43084  0.12925  0.34037  1.0000
  H   H39       1.0  0.36288  0.04950  0.34140  1.0000
  H   H40       1.0  0.45698  0.14235  0.33972  1.0000
  H   H41       1.0  0.36463  0.14309  0.35290  1.0000
  C   C56       1.0  0.36193  0.26815  0.34632  1.0000
  C   C57       1.0  0.38009  0.25032  0.34901  1.0000
  C   C58       1.0  0.41607  0.26747  0.34715  1.0000
  C   C59       1.0  0.43421  0.30353  0.34368  1.0000
  C   C60       1.0  0.41679  0.32238  0.33989  1.0000
  C   C61       1.0  0.38049  0.30412  0.33990  1.0000
  H   H42       1.0  0.46033  0.31604  0.34212  1.0000
  H   H43       1.0  0.36736  0.31713  0.33891  1.0000
  H   H44       1.0  0.36672  0.22415  0.35277  1.0000
  N   N10       1.0  0.44252  0.03089  0.38227  1.0000
  C   C62       1.0  0.42303  0.04587  0.38942  1.0000
  H   H45       1.0  0.40372  0.03676  0.43567  1.0000
  N   N11       1.0  0.47828  0.41419  0.38349  1.0000
  C   C63       1.0  0.46339  0.37975  0.39065  1.0000
  H   H46       1.0  0.47228  0.36958  0.43762  1.0000
  C   C64       1.0  0.26145  0.08021  0.35223  1.0000
  C   C65       1.0  0.32251  0.07818  0.34854  1.0000
  N   N12       1.0  0.30841  0.08102  0.42659  1.0000
  C   C66       1.0  0.27799  0.08034  0.43417  1.0000
  C   C67       1.0  0.26785  0.08542  0.51874  1.0000
  O   O13       1.0  0.28565  0.08769  0.58366  1.0000
  C   C68       1.0  0.42987  0.18397  0.35329  1.0000
  C   C69       1.0  0.43165  0.24698  0.34928  1.0000
  N   N13       1.0  0.42911  0.23017  0.42734  1.0000
  C   C70       1.0  0.42994  0.20054  0.43503  1.0000
  C   C71       1.0  0.42497  0.18548  0.51967  1.0000
  O   O14       1.0  0.42322  0.20105  0.58515  1.0000
  O   O15       1.0  0.44126  0.16811  0.53607  1.0000
  C   C72       1.0  0.42056  0.13598  0.58104  1.0000
  H   H47       1.0  0.43557  0.12331  0.58751  1.0000
  H   H48       1.0  0.39752  0.11924  0.54258  1.0000
  H   H49       1.0  0.41337  0.13967  0.64861  1.0000
  C   C73       1.0  0.32576  0.24844  0.35244  1.0000
  C   C74       1.0  0.26267  0.18733  0.34774  1.0000
  N   N14       1.0  0.27952  0.20148  0.42594  1.0000
  C   C75       1.0  0.30917  0.23191  0.43409  1.0000
  C   C76       1.0  0.32420  0.24173  0.51882  1.0000
  O   O16       1.0  0.30857  0.22427  0.58404  1.0000
  O   O17       1.0  0.34161  0.27534  0.53582  1.0000
  C   C77       1.0  0.37370  0.28662  0.58093  1.0000
  H   H50       1.0  0.38640  0.31428  0.58789  1.0000
  H   H51       1.0  0.39047  0.28040  0.54234  1.0000
  H   H52       1.0  0.36992  0.27557  0.64832  1.0000
  H   H53       1.0  0.52371  0.98160  0.06223  1.0000
  C   C78       1.0  0.46946  0.54117  0.32484  1.0000
  C   C79       1.0  0.43097  0.57468  0.33602  1.0000
  N   N15       1.0  0.45753  0.58462  0.27791  1.0000
  C   C80       1.0  0.47707  0.56954  0.26790  1.0000
  C   C81       1.0  0.50170  0.58174  0.20027  1.0000
  O   O18       1.0  0.50827  0.60856  0.16307  1.0000
  O   O19       1.0  0.50184  0.55813  0.14558  1.0000
  C   C82       1.0  0.53446  0.56700  0.10663  1.0000
  H   H54       1.0  0.54286  0.58823  0.05940  1.0000
  C   C83       1.0  0.46829  0.93078  0.32498  1.0000
  C   C84       1.0  0.43501  0.85882  0.33594  1.0000
  N   N16       1.0  0.42539  0.87539  0.27673  1.0000
  C   C85       1.0  0.44039  0.90999  0.26664  1.0000
  C   C86       1.0  0.42851  0.92239  0.19789  1.0000
  O   O20       1.0  0.40226  0.90177  0.15906  1.0000
  O   O21       1.0  0.45256  0.94688  0.14575  1.0000
  C   C87       1.0  0.44327  0.97013  0.10572  1.0000
  H   H55       1.0  0.46550  0.98992  0.07047  1.0000
  H   H56       1.0  0.43544  0.98239  0.15636  1.0000
  H   H57       1.0  0.42276  0.95711  0.05655  1.0000
  N   N17       1.0  0.27622  0.57871  0.27373  1.0000
  C   C88       1.0  0.30469  0.57591  0.26853  1.0000
  H   H58       1.0  0.31557  0.57786  0.20681  1.0000
  N   N18       1.0  0.43097  0.70003  0.27470  1.0000
  C   C89       1.0  0.43375  0.73128  0.26927  1.0000
  H   H59       1.0  0.43138  0.73987  0.20746  1.0000
  N   N19       1.0  0.30974  0.73369  0.27367  1.0000
  C   C90       1.0  0.27843  0.70532  0.26801  1.0000
  H   H60       1.0  0.26986  0.69434  0.20623  1.0000
  C   C91       1.0  0.48761  0.52268  0.32733  1.0000
  C   C92       1.0  0.46968  0.98652  0.32874  1.0000
  C   C93       1.0  0.48671  0.96740  0.32757  1.0000
  H   H61       1.0  0.44355  0.97376  0.32910  1.0000
  C   C94       1.0  0.25942  0.63250  0.34816  1.0000
  H   H62       1.0  0.28561  0.64536  0.35176  1.0000
  C   C95       1.0  0.41343  0.64784  0.34679  1.0000
  C   C96       1.0  0.37744  0.62972  0.34917  1.0000
  C   C97       1.0  0.35860  0.59375  0.34700  1.0000
  C   C98       1.0  0.37650  0.57560  0.34338  1.0000
  C   C99       1.0  0.41278  0.59297  0.34000  1.0000
  C   C100      1.0  0.43084  0.62925  0.34037  1.0000
  H   H63       1.0  0.36288  0.54950  0.34140  1.0000
  H   H64       1.0  0.45698  0.64235  0.33972  1.0000
  H   H65       1.0  0.36463  0.64309  0.35290  1.0000
  C   C101      1.0  0.36193  0.76815  0.34632  1.0000
  C   C102      1.0  0.38009  0.75032  0.34901  1.0000
  C   C103      1.0  0.41607  0.76747  0.34715  1.0000
  C   C104      1.0  0.43421  0.80353  0.34368  1.0000
  C   C105      1.0  0.41679  0.82238  0.33989  1.0000
  C   C106      1.0  0.38049  0.80413  0.33990  1.0000
  H   H66       1.0  0.46033  0.81604  0.34212  1.0000
  H   H67       1.0  0.36736  0.81713  0.33891  1.0000
  H   H68       1.0  0.36672  0.72415  0.35277  1.0000
  N   N20       1.0  0.44252  0.53089  0.38227  1.0000
  C   C107      1.0  0.42303  0.54587  0.38942  1.0000
  H   H69       1.0  0.40372  0.53676  0.43567  1.0000
  N   N21       1.0  0.47828  0.91419  0.38349  1.0000
  C   C108      1.0  0.46339  0.87975  0.39065  1.0000
  H   H70       1.0  0.47228  0.86958  0.43762  1.0000
  C   C109      1.0  0.26145  0.58021  0.35223  1.0000
  C   C110      1.0  0.32251  0.57818  0.34854  1.0000
  N   N22       1.0  0.30841  0.58102  0.42659  1.0000
  C   C111      1.0  0.27799  0.58034  0.43417  1.0000
  C   C112      1.0  0.26785  0.58542  0.51874  1.0000
  O   O22       1.0  0.28565  0.58769  0.58366  1.0000
  C   C113      1.0  0.42987  0.68397  0.35329  1.0000
  C   C114      1.0  0.43165  0.74698  0.34928  1.0000
  N   N23       1.0  0.42911  0.73017  0.42734  1.0000
  C   C115      1.0  0.42994  0.70054  0.43503  1.0000
  C   C116      1.0  0.42497  0.68548  0.51967  1.0000
  O   O23       1.0  0.42322  0.70105  0.58515  1.0000
  O   O24       1.0  0.44126  0.66811  0.53607  1.0000
  C   C117      1.0  0.42056  0.63598  0.58104  1.0000
  H   H71       1.0  0.43557  0.62331  0.58751  1.0000
  H   H72       1.0  0.39752  0.61924  0.54258  1.0000
  H   H73       1.0  0.41337  0.63967  0.64861  1.0000
  C   C118      1.0  0.32576  0.74844  0.35244  1.0000
  C   C119      1.0  0.26267  0.68733  0.34774  1.0000
  N   N24       1.0  0.27952  0.70148  0.42594  1.0000
  C   C120      1.0  0.30917  0.73192  0.43409  1.0000
  C   C121      1.0  0.32420  0.74173  0.51882  1.0000
  O   O25       1.0  0.30857  0.72427  0.58404  1.0000
  O   O26       1.0  0.34161  0.77534  0.53582  1.0000
  C   C122      1.0  0.37370  0.78662  0.58093  1.0000
  H   H74       1.0  0.38640  0.81427  0.58789  1.0000
  H   H75       1.0  0.39047  0.78040  0.54234  1.0000
  H   H76       1.0  0.36992  0.77557  0.64832  1.0000
  C   C123      1.0  0.57871  0.03996  0.32589  1.0000
  C   C124      1.0  0.65079  0.07872  0.33579  1.0000
  N   N25       1.0  0.63412  0.05162  0.27931  1.0000
  C   C125      1.0  0.59949  0.03193  0.27026  1.0000
  C   C126      1.0  0.58684  0.00685  0.20406  1.0000
  O   O27       1.0  0.60616  0.99773  0.17322  1.0000
  O   O28       1.0  0.56562  0.00880  0.14404  1.0000
  C   C127      1.0  0.54079  0.47692  0.10390  1.0000
  H   H77       1.0  0.52546  0.45789  0.15463  1.0000
  H   H78       1.0  0.55312  0.96673  0.06058  1.0000
  C   C128      1.0  0.96946  0.04117  0.32484  1.0000
  C   C129      1.0  0.93097  0.07468  0.33602  1.0000
  N   N26       1.0  0.95753  0.08462  0.27791  1.0000
  C   C130      1.0  0.97706  0.06954  0.26790  1.0000
  C   C131      1.0  0.00170  0.08174  0.20027  1.0000
  O   O29       1.0  0.00184  0.05813  0.14558  1.0000
  H   H79       1.0  0.53162  0.04499  0.06938  1.0000
  H   H80       1.0  0.55407  0.07360  0.15804  1.0000
  C   C132      1.0  0.96829  0.43078  0.32498  1.0000
  C   C133      1.0  0.93501  0.35883  0.33594  1.0000
  N   N27       1.0  0.92539  0.37539  0.27673  1.0000
  C   C134      1.0  0.94039  0.40998  0.26664  1.0000
  C   C135      1.0  0.92851  0.42239  0.19790  1.0000
  O   O30       1.0  0.90226  0.40177  0.15906  1.0000
  O   O31       1.0  0.95256  0.44688  0.14575  1.0000
  C   C136      1.0  0.94327  0.47013  0.10572  1.0000
  H   H81       1.0  0.96550  0.48992  0.07047  1.0000
  H   H82       1.0  0.93544  0.48239  0.15635  1.0000
  H   H83       1.0  0.92276  0.45711  0.05655  1.0000
  N   N28       1.0  0.77622  0.07871  0.27373  1.0000
  C   C137      1.0  0.80469  0.07591  0.26853  1.0000
  H   H84       1.0  0.81557  0.07786  0.20681  1.0000
  N   N29       1.0  0.93096  0.20003  0.27470  1.0000
  C   C138      1.0  0.93375  0.23128  0.26927  1.0000
  H   H85       1.0  0.93137  0.23987  0.20746  1.0000
  N   N30       1.0  0.80975  0.23369  0.27367  1.0000
  C   C139      1.0  0.77843  0.20532  0.26801  1.0000
  H   H86       1.0  0.76985  0.19434  0.20623  1.0000
  C   C140      1.0  0.54204  0.02179  0.32812  1.0000
  C   C141      1.0  0.52375  0.03968  0.32941  1.0000
  C   C142      1.0  0.98761  0.02268  0.32733  1.0000
  C   C143      1.0  0.96968  0.48652  0.32874  1.0000
  C   C144      1.0  0.98671  0.46740  0.32757  1.0000
  C   C145      1.0  0.52287  0.48565  0.32974  1.0000
  H   H87       1.0  0.94355  0.47376  0.32910  1.0000
  H   H88       1.0  0.53558  0.47224  0.33098  1.0000
  H   H89       1.0  0.53712  0.06579  0.33034  1.0000
  C   C146      1.0  0.74163  0.09654  0.34606  1.0000
  C   C147      1.0  0.75942  0.13250  0.34816  1.0000
  C   C148      1.0  0.74221  0.15128  0.34605  1.0000
  C   C149      1.0  0.70614  0.13330  0.34258  1.0000
  C   C150      1.0  0.68729  0.09703  0.33937  1.0000
  C   C151      1.0  0.70563  0.07906  0.33977  1.0000
  H   H90       1.0  0.69362  0.14689  0.34064  1.0000
  H   H91       1.0  0.69267  0.05293  0.33925  1.0000
  H   H92       1.0  0.78561  0.14536  0.35176  1.0000
  C   C152      1.0  0.91343  0.14784  0.34679  1.0000
  C   C153      1.0  0.87744  0.12972  0.34917  1.0000
  C   C154      1.0  0.85860  0.09375  0.34700  1.0000
  C   C155      1.0  0.87650  0.07560  0.34338  1.0000
  C   C156      1.0  0.91278  0.09297  0.34000  1.0000
  C   C157      1.0  0.93084  0.12925  0.34037  1.0000
  H   H93       1.0  0.86288  0.04950  0.34140  1.0000
  H   H94       1.0  0.95698  0.14235  0.33972  1.0000
  H   H95       1.0  0.86463  0.14309  0.35290  1.0000
  C   C158      1.0  0.86193  0.26815  0.34632  1.0000
  C   C159      1.0  0.88009  0.25032  0.34901  1.0000
  C   C160      1.0  0.91607  0.26747  0.34715  1.0000
  C   C161      1.0  0.93421  0.30353  0.34368  1.0000
  C   C162      1.0  0.91679  0.32238  0.33989  1.0000
  C   C163      1.0  0.88049  0.30412  0.33990  1.0000
  H   H96       1.0  0.96033  0.31604  0.34212  1.0000
  H   H97       1.0  0.86736  0.31713  0.33891  1.0000
  H   H98       1.0  0.86672  0.22415  0.35277  1.0000
  N   N31       1.0  0.59543  0.06743  0.38159  1.0000
  C   C164      1.0  0.62991  0.08703  0.38813  1.0000
  H   H99       1.0  0.64013  0.10676  0.43311  1.0000
  N   N32       1.0  0.94252  0.03089  0.38227  1.0000
  C   C165      1.0  0.92303  0.04587  0.38942  1.0000
  H   H100      1.0  0.90372  0.03676  0.43567  1.0000
  N   N33       1.0  0.97828  0.41419  0.38349  1.0000
  C   C166      1.0  0.96339  0.37975  0.39065  1.0000
  H   H101      1.0  0.97228  0.36958  0.43762  1.0000
  C   C167      1.0  0.76145  0.08021  0.35223  1.0000
  C   C168      1.0  0.82251  0.07818  0.34854  1.0000
  N   N34       1.0  0.80841  0.08102  0.42659  1.0000
  C   C169      1.0  0.77799  0.08034  0.43417  1.0000
  C   C170      1.0  0.76785  0.08542  0.51874  1.0000
  O   O32       1.0  0.78565  0.08769  0.58366  1.0000
  O   O33       1.0  0.73428  0.06958  0.53569  1.0000
  C   C171      1.0  0.72334  0.09065  0.58085  1.0000
  H   H102      1.0  0.69566  0.07596  0.58782  1.0000
  H   H103      1.0  0.72982  0.11371  0.54227  1.0000
  H   H104      1.0  0.73442  0.09782  0.64824  1.0000
  C   C172      1.0  0.92987  0.18397  0.35329  1.0000
  C   C173      1.0  0.93165  0.24698  0.34928  1.0000
  N   N35       1.0  0.92911  0.23017  0.42734  1.0000
  C   C174      1.0  0.92994  0.20054  0.43503  1.0000
  C   C175      1.0  0.92497  0.18548  0.51967  1.0000
  O   O34       1.0  0.92322  0.20105  0.58515  1.0000
  O   O35       1.0  0.94126  0.16811  0.53607  1.0000
  C   C176      1.0  0.92056  0.13598  0.58104  1.0000
  H   H105      1.0  0.93557  0.12331  0.58751  1.0000
  H   H106      1.0  0.89752  0.11924  0.54258  1.0000
  H   H107      1.0  0.91337  0.13967  0.64861  1.0000
  C   C177      1.0  0.82576  0.24844  0.35244  1.0000
  C   C178      1.0  0.76267  0.18733  0.34774  1.0000
  N   N36       1.0  0.77952  0.20148  0.42594  1.0000
  C   C179      1.0  0.80917  0.23191  0.43409  1.0000
  C   C180      1.0  0.82420  0.24173  0.51882  1.0000
  O   O36       1.0  0.80857  0.22427  0.58404  1.0000
  O   O37       1.0  0.84161  0.27534  0.53582  1.0000
  C   C181      1.0  0.87370  0.28662  0.58093  1.0000
  H   H108      1.0  0.88640  0.31428  0.58789  1.0000
  H   H109      1.0  0.89047  0.28040  0.54234  1.0000
  H   H110      1.0  0.86992  0.27557  0.64832  1.0000
  C   C182      1.0  0.57871  0.53996  0.32589  1.0000
  C   C183      1.0  0.65078  0.57872  0.33579  1.0000
  N   N37       1.0  0.63412  0.55162  0.27931  1.0000
  C   C184      1.0  0.59949  0.53193  0.27026  1.0000
  C   C185      1.0  0.58684  0.50685  0.20406  1.0000
  O   O38       1.0  0.60617  0.49773  0.17322  1.0000
  O   O39       1.0  0.56562  0.50881  0.14404  1.0000
  C   C186      1.0  0.54079  0.97692  0.10390  1.0000
  H   H111      1.0  0.52546  0.95789  0.15464  1.0000
  H   H112      1.0  0.55312  0.46673  0.06058  1.0000
  C   C187      1.0  0.96946  0.54117  0.32484  1.0000
  C   C188      1.0  0.93097  0.57468  0.33602  1.0000
  N   N38       1.0  0.95753  0.58462  0.27791  1.0000
  C   C189      1.0  0.97706  0.56954  0.26790  1.0000
  C   C190      1.0  0.00170  0.58174  0.20027  1.0000
  O   O40       1.0  0.00184  0.55813  0.14558  1.0000
  H   H113      1.0  0.53162  0.54499  0.06938  1.0000
  H   H114      1.0  0.55407  0.57360  0.15804  1.0000
  C   C191      1.0  0.96829  0.93078  0.32498  1.0000
  C   C192      1.0  0.93501  0.85882  0.33594  1.0000
  N   N39       1.0  0.92539  0.87539  0.27673  1.0000
  C   C193      1.0  0.94039  0.90999  0.26664  1.0000
  C   C194      1.0  0.92851  0.92239  0.19789  1.0000
  O   O41       1.0  0.90226  0.90177  0.15906  1.0000
  O   O42       1.0  0.95256  0.94688  0.14575  1.0000
  C   C195      1.0  0.94327  0.97013  0.10572  1.0000
  H   H115      1.0  0.96550  0.98992  0.07047  1.0000
  H   H116      1.0  0.93544  0.98239  0.15636  1.0000
  H   H117      1.0  0.92275  0.95711  0.05655  1.0000
  N   N40       1.0  0.77622  0.57871  0.27373  1.0000
  C   C196      1.0  0.80469  0.57591  0.26853  1.0000
  H   H118      1.0  0.81557  0.57786  0.20681  1.0000
  N   N41       1.0  0.93096  0.70003  0.27470  1.0000
  C   C197      1.0  0.93375  0.73128  0.26927  1.0000
  H   H119      1.0  0.93137  0.73987  0.20746  1.0000
  N   N42       1.0  0.80974  0.73369  0.27367  1.0000
  C   C198      1.0  0.77843  0.70532  0.26801  1.0000
  H   H120      1.0  0.76985  0.69434  0.20623  1.0000
  C   C199      1.0  0.54204  0.52179  0.32812  1.0000
  C   C200      1.0  0.52375  0.53967  0.32941  1.0000
  C   C201      1.0  0.98761  0.52268  0.32733  1.0000
  C   C202      1.0  0.96968  0.98652  0.32874  1.0000
  C   C203      1.0  0.98671  0.96740  0.32757  1.0000
  C   C204      1.0  0.52287  0.98565  0.32974  1.0000
  H   H121      1.0  0.94355  0.97376  0.32910  1.0000
  H   H122      1.0  0.53558  0.97224  0.33098  1.0000
  H   H123      1.0  0.53712  0.56579  0.33034  1.0000
  C   C205      1.0  0.74163  0.59654  0.34606  1.0000
  C   C206      1.0  0.75941  0.63250  0.34816  1.0000
  C   C207      1.0  0.74221  0.65128  0.34605  1.0000
  C   C208      1.0  0.70614  0.63330  0.34258  1.0000
  C   C209      1.0  0.68729  0.59703  0.33937  1.0000
  C   C210      1.0  0.70562  0.57906  0.33977  1.0000
  H   H124      1.0  0.69362  0.64689  0.34064  1.0000
  H   H125      1.0  0.69267  0.55293  0.33925  1.0000
  H   H126      1.0  0.78561  0.64536  0.35176  1.0000
  C   C211      1.0  0.91343  0.64784  0.34679  1.0000
  C   C212      1.0  0.87744  0.62972  0.34917  1.0000
  C   C213      1.0  0.85860  0.59375  0.34700  1.0000
  C   C214      1.0  0.87650  0.57560  0.34338  1.0000
  C   C215      1.0  0.91278  0.59297  0.34000  1.0000
  C   C216      1.0  0.93084  0.62925  0.34037  1.0000
  H   H127      1.0  0.86288  0.54950  0.34140  1.0000
  H   H128      1.0  0.95698  0.64235  0.33972  1.0000
  H   H129      1.0  0.86463  0.64309  0.35290  1.0000
  C   C217      1.0  0.86193  0.76815  0.34632  1.0000
  C   C218      1.0  0.88009  0.75032  0.34901  1.0000
  C   C219      1.0  0.91607  0.76747  0.34715  1.0000
  C   C220      1.0  0.93421  0.80353  0.34368  1.0000
  C   C221      1.0  0.91679  0.82238  0.33989  1.0000
  C   C222      1.0  0.88049  0.80413  0.33990  1.0000
  H   H130      1.0  0.96032  0.81604  0.34212  1.0000
  H   H131      1.0  0.86736  0.81713  0.33891  1.0000
  H   H132      1.0  0.86672  0.72415  0.35277  1.0000
  N   N43       1.0  0.59543  0.56743  0.38159  1.0000
  C   C223      1.0  0.62991  0.58702  0.38813  1.0000
  H   H133      1.0  0.64013  0.60676  0.43311  1.0000
  N   N44       1.0  0.94252  0.53089  0.38227  1.0000
  C   C224      1.0  0.92303  0.54587  0.38942  1.0000
  H   H134      1.0  0.90372  0.53676  0.43567  1.0000
  N   N45       1.0  0.97828  0.91419  0.38349  1.0000
  C   C225      1.0  0.96339  0.87975  0.39065  1.0000
  H   H135      1.0  0.97228  0.86958  0.43762  1.0000
  C   C226      1.0  0.76145  0.58021  0.35223  1.0000
  C   C227      1.0  0.82251  0.57818  0.34854  1.0000
  N   N46       1.0  0.80841  0.58102  0.42659  1.0000
  C   C228      1.0  0.77799  0.58034  0.43417  1.0000
  C   C229      1.0  0.76785  0.58542  0.51874  1.0000
  O   O43       1.0  0.78565  0.58769  0.58366  1.0000
  O   O44       1.0  0.73428  0.56958  0.53569  1.0000
  C   C230      1.0  0.72334  0.59066  0.58085  1.0000
  H   H136      1.0  0.69566  0.57596  0.58782  1.0000
  H   H137      1.0  0.72982  0.61370  0.54227  1.0000
  H   H138      1.0  0.73442  0.59782  0.64824  1.0000
  C   C231      1.0  0.92987  0.68397  0.35329  1.0000
  C   C232      1.0  0.93165  0.74698  0.34928  1.0000
  N   N47       1.0  0.92911  0.73017  0.42734  1.0000
  C   C233      1.0  0.92994  0.70054  0.43503  1.0000
  C   C234      1.0  0.92497  0.68548  0.51967  1.0000
  O   O45       1.0  0.92322  0.70105  0.58515  1.0000
  O   O46       1.0  0.94126  0.66811  0.53607  1.0000
  C   C235      1.0  0.92056  0.63598  0.58104  1.0000
  H   H139      1.0  0.93557  0.62331  0.58751  1.0000
  H   H140      1.0  0.89752  0.61924  0.54258  1.0000
  H   H141      1.0  0.91337  0.63967  0.64861  1.0000
  C   C236      1.0  0.82576  0.74844  0.35244  1.0000
  C   C237      1.0  0.76267  0.68733  0.34774  1.0000
  N   N48       1.0  0.77952  0.70148  0.42594  1.0000
  C   C238      1.0  0.80917  0.73192  0.43409  1.0000
  C   C239      1.0  0.82420  0.74173  0.51882  1.0000
  O   O47       1.0  0.80857  0.72427  0.58404  1.0000
  O   O48       1.0  0.84161  0.77534  0.53582  1.0000
  C   C240      1.0  0.87370  0.78662  0.58093  1.0000
  H   H142      1.0  0.88640  0.81427  0.58789  1.0000
  H   H143      1.0  0.89047  0.78040  0.54234  1.0000
  H   H144      1.0  0.86992  0.77557  0.64832  1.0000
