data_image0
_chemical_formula_structural       C4N2O4C4N2O4C4N2O4C4N2O4C2H2C2H2C2H2C2H2C2H2C2H2C2H2C2H2C4N2O4C4N2O4C4N2O4C4N2O4C4N2O4C4N2O4C4N2O4C4N2O4C2H2C2H2C2H2C2H2C2H2C2H2C2H2C2H2C2H2C2H2CNCNCNCNCNCNCNCNCNCNCNCNCNCNCNCNCNCNCNCNCNCNCNCNCNCNCNCNCNCNCNCNCNCNCNCNCNCNCNCNCNCNCNCNCNCNCNCNCNCNCNCNCNCNCNCNCNCNCNCNC2H2C2H2C2H2C2H2C4N2O4C4N2O4C4N2O4C4N2O4C4N2O4C4N2O4C4N2O4C4N2O4C2H2C2H2C2H2C2H2C2H2C2H2C2H2C2H2C4N2O4C4N2O4C4N2O4C4N2O4C4N2O4C4N2O4C4N2O4C4N2O4C4N2O4C4N2O4
_chemical_formula_sum              "C240 N120 O120 H60"
_cell_length_a       43.7163
_cell_length_b       43.7163
_cell_length_c       14.8386
_cell_angle_alpha    90
_cell_angle_beta     90
_cell_angle_gamma    90

_space_group_name_H-M_alt    "P 1"
_space_group_IT_number       1

loop_
  _space_group_symop_operation_xyz
  'x, y, z'

loop_
  _atom_site_type_symbol
  _atom_site_label
  _atom_site_symmetry_multiplicity
  _atom_site_fract_x
  _atom_site_fract_y
  _atom_site_fract_z
  _atom_site_occupancy
  C   C1        1.0  0.37602  0.05654  0.32459  1.0000
  C   C2        1.0  0.31284  0.04039  0.32136  1.0000
  C   C3        1.0  0.32402  0.06363  0.26307  1.0000
  C   C4        1.0  0.35558  0.07181  0.26460  1.0000
  N   N1        1.0  0.30293  0.07745  0.20265  1.0000
  N   N2        1.0  0.36493  0.09437  0.20166  1.0000
  O   O1        1.0  0.30021  0.10572  0.21556  1.0000
  O   O2        1.0  0.38651  0.08600  0.15143  1.0000
  O   O3        1.0  0.30951  0.07241  0.12155  1.0000
  O   O4        1.0  0.37054  0.11981  0.23712  1.0000
  C   C5        1.0  0.63482  0.95429  0.32493  1.0000
  C   C6        1.0  0.69799  0.97050  0.32193  1.0000
  C   C7        1.0  0.68683  0.94736  0.26325  1.0000
  C   C8        1.0  0.65528  0.93916  0.26464  1.0000
  N   N3        1.0  0.70793  0.93367  0.20262  1.0000
  N   N4        1.0  0.64595  0.91671  0.20133  1.0000
  O   O5        1.0  0.71067  0.90538  0.21508  1.0000
  O   O6        1.0  0.62437  0.92517  0.15119  1.0000
  O   O7        1.0  0.70136  0.93885  0.12160  1.0000
  O   O8        1.0  0.64035  0.89120  0.23635  1.0000
  C   C9        1.0  0.95434  0.37605  0.32471  1.0000
  C   C10       1.0  0.97049  0.31287  0.32158  1.0000
  C   C11       1.0  0.94736  0.32406  0.26295  1.0000
  C   C12       1.0  0.93919  0.35562  0.26440  1.0000
  N   N5        1.0  0.93364  0.30298  0.20233  1.0000
  N   N6        1.0  0.91672  0.36499  0.20118  1.0000
  O   O9        1.0  0.90534  0.30026  0.21484  1.0000
  O   O10       1.0  0.92518  0.38657  0.15110  1.0000
  O   O11       1.0  0.93881  0.30956  0.12131  1.0000
  O   O12       1.0  0.89123  0.37060  0.23629  1.0000
  C   C13       1.0  0.05658  0.63485  0.32463  1.0000
  C   C14       1.0  0.04039  0.69803  0.32150  1.0000
  C   C15       1.0  0.06367  0.68688  0.26329  1.0000
  C   C16       1.0  0.07186  0.65533  0.26476  1.0000
  N   N7        1.0  0.07751  0.70801  0.20301  1.0000
  N   N8        1.0  0.09447  0.64603  0.20190  1.0000
  O   O13       1.0  0.10577  0.71074  0.21610  1.0000
  O   O14       1.0  0.08615  0.62446  0.15153  1.0000
  O   O15       1.0  0.07253  0.70146  0.12186  1.0000
  O   O16       1.0  0.11991  0.64044  0.23743  1.0000
  C   C17       1.0  0.15312  0.56627  0.28558  1.0000
  C   C18       1.0  0.18430  0.55888  0.28684  1.0000
  H   H1        1.0  0.19765  0.56575  0.23391  1.0000
  H   H2        1.0  0.14476  0.57825  0.23166  1.0000
  C   C19       1.0  0.85779  0.44459  0.28577  1.0000
  C   C20       1.0  0.82661  0.45199  0.28694  1.0000
  H   H3        1.0  0.81329  0.44513  0.23394  1.0000
  H   H4        1.0  0.86618  0.43263  0.23184  1.0000
  C   C21       1.0  0.56625  0.85770  0.28517  1.0000
  C   C22       1.0  0.55886  0.82652  0.28652  1.0000
  H   H5        1.0  0.56569  0.81317  0.23355  1.0000
  H   H6        1.0  0.57819  0.86606  0.23115  1.0000
  C   C23       1.0  0.44450  0.15306  0.28639  1.0000
  C   C24       1.0  0.45189  0.18425  0.28749  1.0000
  H   H7        1.0  0.44501  0.19756  0.23449  1.0000
  H   H8        1.0  0.43252  0.14467  0.23250  1.0000
  C   C25       1.0  0.18448  0.11999  0.28396  1.0000
  C   C26       1.0  0.19639  0.09004  0.28292  1.0000
  H   H9        1.0  0.19498  0.07768  0.22450  1.0000
  H   H10       1.0  0.17446  0.12828  0.22664  1.0000
  C   C27       1.0  0.82638  0.89090  0.28432  1.0000
  C   C28       1.0  0.81446  0.92085  0.28333  1.0000
  H   H11       1.0  0.81589  0.93324  0.22495  1.0000
  H   H12       1.0  0.83641  0.88263  0.22699  1.0000
  C   C29       1.0  0.89090  0.18449  0.28416  1.0000
  C   C30       1.0  0.92084  0.19643  0.28316  1.0000
  H   H13       1.0  0.93318  0.19509  0.22468  1.0000
  H   H14       1.0  0.88260  0.17456  0.22672  1.0000
  C   C31       1.0  0.11994  0.82644  0.28420  1.0000
  C   C32       1.0  0.08999  0.81454  0.28320  1.0000
  H   H15       1.0  0.07765  0.81589  0.22472  1.0000
  H   H16       1.0  0.12824  0.83639  0.22678  1.0000
  C   C33       1.0  0.32311  0.63934  0.33529  1.0000
  C   C34       1.0  0.29858  0.57854  0.33378  1.0000
  C   C35       1.0  0.29881  0.59655  0.25351  1.0000
  C   C36       1.0  0.31111  0.62671  0.25412  1.0000
  N   N9        1.0  0.28689  0.58586  0.17024  1.0000
  N   N10       1.0  0.31028  0.64316  0.17164  1.0000
  O   O17       1.0  0.25830  0.58326  0.17034  1.0000
  O   O18       1.0  0.33638  0.65166  0.14658  1.0000
  O   O19       1.0  0.29892  0.56114  0.14558  1.0000
  O   O20       1.0  0.29252  0.66572  0.17418  1.0000
  C   C37       1.0  0.68778  0.37150  0.33513  1.0000
  C   C38       1.0  0.71231  0.43227  0.33352  1.0000
  C   C39       1.0  0.71223  0.41421  0.25336  1.0000
  C   C40       1.0  0.69993  0.38406  0.25403  1.0000
  N   N11       1.0  0.72429  0.42483  0.17018  1.0000
  N   N12       1.0  0.70090  0.36753  0.17169  1.0000
  O   O21       1.0  0.75288  0.42738  0.17059  1.0000
  O   O22       1.0  0.67485  0.35899  0.14631  1.0000
  O   O23       1.0  0.71233  0.44955  0.14521  1.0000
  O   O24       1.0  0.71869  0.34499  0.17460  1.0000
  C   C41       1.0  0.63933  0.68773  0.33531  1.0000
  C   C42       1.0  0.57853  0.71223  0.33367  1.0000
  C   C43       1.0  0.59654  0.71198  0.25341  1.0000
  C   C44       1.0  0.62670  0.69968  0.25408  1.0000
  N   N13       1.0  0.58585  0.72389  0.17013  1.0000
  N   N14       1.0  0.64316  0.70049  0.17161  1.0000
  O   O25       1.0  0.58325  0.75248  0.17021  1.0000
  O   O26       1.0  0.65165  0.67437  0.14663  1.0000
  O   O27       1.0  0.56113  0.71186  0.14552  1.0000
  O   O28       1.0  0.66572  0.71825  0.17411  1.0000
  C   C45       1.0  0.37152  0.32310  0.33522  1.0000
  C   C46       1.0  0.43232  0.29857  0.33378  1.0000
  C   C47       1.0  0.41427  0.29869  0.25357  1.0000
  C   C48       1.0  0.38411  0.31099  0.25415  1.0000
  N   N15       1.0  0.42492  0.28665  0.17039  1.0000
  N   N16       1.0  0.36762  0.31004  0.17175  1.0000
  O   O29       1.0  0.42749  0.25807  0.17076  1.0000
  O   O30       1.0  0.35909  0.33610  0.14641  1.0000
  O   O31       1.0  0.44964  0.29863  0.14553  1.0000
  O   O32       1.0  0.34508  0.29225  0.17454  1.0000
  C   C49       1.0  0.21701  0.90144  0.33374  1.0000
  C   C50       1.0  0.23148  0.96605  0.32671  1.0000
  C   C51       1.0  0.24781  0.94445  0.27287  1.0000
  C   C52       1.0  0.24094  0.91250  0.27697  1.0000
  N   N17       1.0  0.27051  0.95579  0.21291  1.0000
  N   N18       1.0  0.25848  0.89334  0.21983  1.0000
  O   O33       1.0  0.26419  0.95101  0.13152  1.0000
  O   O34       1.0  0.24289  0.87703  0.16737  1.0000
  O   O35       1.0  0.29686  0.94593  0.23048  1.0000
  O   O36       1.0  0.27793  0.87782  0.26188  1.0000
  C   C53       1.0  0.79387  0.10941  0.33387  1.0000
  C   C54       1.0  0.77939  0.04480  0.32700  1.0000
  C   C55       1.0  0.76308  0.06638  0.27304  1.0000
  C   C56       1.0  0.76995  0.09833  0.27705  1.0000
  N   N19       1.0  0.74040  0.05501  0.21308  1.0000
  N   N20       1.0  0.75243  0.11748  0.21984  1.0000
  O   O37       1.0  0.74674  0.05977  0.13168  1.0000
  O   O38       1.0  0.76803  0.13378  0.16738  1.0000
  O   O39       1.0  0.71405  0.06489  0.23055  1.0000
  O   O40       1.0  0.73297  0.13300  0.26182  1.0000
  C   C57       1.0  0.10940  0.21701  0.33380  1.0000
  C   C58       1.0  0.04479  0.23149  0.32683  1.0000
  C   C59       1.0  0.06639  0.24781  0.27293  1.0000
  C   C60       1.0  0.09833  0.24094  0.27698  1.0000
  N   N21       1.0  0.05503  0.27051  0.21298  1.0000
  N   N22       1.0  0.11750  0.25847  0.21984  1.0000
  O   O41       1.0  0.05980  0.26418  0.13159  1.0000
  O   O42       1.0  0.13381  0.24289  0.16737  1.0000
  O   O43       1.0  0.06490  0.29685  0.23053  1.0000
  O   O44       1.0  0.13301  0.27793  0.26188  1.0000
  C   C61       1.0  0.90142  0.79385  0.33385  1.0000
  C   C62       1.0  0.96604  0.77939  0.32682  1.0000
  C   C63       1.0  0.94444  0.76306  0.27295  1.0000
  C   C64       1.0  0.91249  0.76993  0.27705  1.0000
  N   N23       1.0  0.95579  0.74037  0.21299  1.0000
  N   N24       1.0  0.89333  0.75240  0.21988  1.0000
  O   O45       1.0  0.95102  0.74670  0.13160  1.0000
  O   O46       1.0  0.87702  0.76799  0.16743  1.0000
  O   O47       1.0  0.94593  0.71402  0.23054  1.0000
  O   O48       1.0  0.87782  0.73294  0.26190  1.0000
  C   C65       1.0  0.31132  0.42483  0.31524  1.0000
  C   C66       1.0  0.30386  0.45621  0.31840  1.0000
  H   H17       1.0  0.31707  0.47113  0.28233  1.0000
  H   H18       1.0  0.32983  0.41847  0.27748  1.0000
  C   C67       1.0  0.69954  0.58600  0.31518  1.0000
  C   C68       1.0  0.70701  0.55463  0.31831  1.0000
  H   H19       1.0  0.69381  0.53971  0.28217  1.0000
  H   H20       1.0  0.68105  0.59237  0.27734  1.0000
  C   C69       1.0  0.42483  0.69952  0.31527  1.0000
  C   C70       1.0  0.45621  0.70697  0.31839  1.0000
  H   H21       1.0  0.47112  0.69378  0.28223  1.0000
  H   H22       1.0  0.41847  0.68103  0.27743  1.0000
  C   C71       1.0  0.58601  0.31132  0.31530  1.0000
  C   C72       1.0  0.55463  0.30385  0.31849  1.0000
  H   H23       1.0  0.53972  0.31703  0.28230  1.0000
  H   H24       1.0  0.59237  0.32980  0.27742  1.0000
  C   C73       1.0  0.23599  0.29813  0.31639  1.0000
  C   C74       1.0  0.21328  0.27525  0.31748  1.0000
  H   H25       1.0  0.19331  0.27963  0.28405  1.0000
  H   H26       1.0  0.23140  0.31802  0.28268  1.0000
  C   C75       1.0  0.77485  0.71272  0.31643  1.0000
  C   C76       1.0  0.79755  0.73561  0.31751  1.0000
  H   H27       1.0  0.81751  0.73125  0.28401  1.0000
  H   H28       1.0  0.77943  0.69284  0.28263  1.0000
  C   C77       1.0  0.71272  0.23597  0.31645  1.0000
  C   C78       1.0  0.73560  0.21327  0.31753  1.0000
  H   H29       1.0  0.73125  0.19332  0.28398  1.0000
  H   H30       1.0  0.69285  0.23140  0.28259  1.0000
  C   C79       1.0  0.29814  0.77488  0.31650  1.0000
  C   C80       1.0  0.27525  0.79757  0.31757  1.0000
  H   H31       1.0  0.27961  0.81753  0.28404  1.0000
  H   H32       1.0  0.31801  0.77945  0.28268  1.0000
  C   C81       1.0  0.51614  0.99358  0.27099  1.0000
  C   C82       1.0  0.49277  0.01547  0.27143  1.0000
  H   H33       1.0  0.48398  0.02275  0.21114  1.0000
  H   H34       1.0  0.52366  0.98521  0.21044  1.0000
  C   C83       1.0  0.01656  0.51693  0.27099  1.0000
  C   C84       1.0  0.99468  0.49355  0.27110  1.0000
  H   H35       1.0  0.98698  0.48524  0.21068  1.0000
  H   H36       1.0  0.02451  0.52493  0.21049  1.0000
  C   C85       1.0  0.23036  0.05137  0.34634  1.0000
  N   N25       1.0  0.22018  0.02175  0.34275  1.0000
  C   C86       1.0  0.24016  0.99777  0.33195  1.0000
  N   N26       1.0  0.27050  0.00462  0.32696  1.0000
  C   C87       1.0  0.28125  0.03365  0.32811  1.0000
  N   N27       1.0  0.26076  0.05657  0.33758  1.0000
  C   C88       1.0  0.78046  0.95948  0.34682  1.0000
  N   N28       1.0  0.79066  0.98910  0.34314  1.0000
  C   C89       1.0  0.77069  0.01309  0.33239  1.0000
  N   N29       1.0  0.74034  0.00626  0.32751  1.0000
  C   C90       1.0  0.72958  0.97724  0.32876  1.0000
  N   N30       1.0  0.75006  0.95430  0.33816  1.0000
  C   C91       1.0  0.95947  0.23040  0.34653  1.0000
  N   N31       1.0  0.98909  0.22021  0.34293  1.0000
  C   C92       1.0  0.01308  0.24018  0.33215  1.0000
  N   N32       1.0  0.00624  0.27053  0.32720  1.0000
  C   C93       1.0  0.97722  0.28128  0.32839  1.0000
  N   N33       1.0  0.95428  0.26080  0.33783  1.0000
  C   C94       1.0  0.05135  0.78051  0.34658  1.0000
  N   N34       1.0  0.02173  0.79069  0.34293  1.0000
  C   C95       1.0  0.99775  0.77071  0.33212  1.0000
  N   N35       1.0  0.00460  0.74036  0.32714  1.0000
  C   C96       1.0  0.03364  0.72962  0.32834  1.0000
  N   N36       1.0  0.05655  0.75011  0.33783  1.0000
  C   C97       1.0  0.27967  0.55224  0.34205  1.0000
  N   N37       1.0  0.28954  0.52259  0.34961  1.0000
  C   C98       1.0  0.26936  0.49878  0.36037  1.0000
  N   N38       1.0  0.23905  0.50604  0.36259  1.0000
  C   C99       1.0  0.22853  0.53511  0.35626  1.0000
  N   N39       1.0  0.24920  0.55785  0.34601  1.0000
  C   C100      1.0  0.73122  0.45859  0.34187  1.0000
  N   N40       1.0  0.72133  0.48823  0.34947  1.0000
  C   C101      1.0  0.74151  0.51205  0.36030  1.0000
  N   N41       1.0  0.77182  0.50480  0.36260  1.0000
  C   C102      1.0  0.78234  0.47574  0.35624  1.0000
  N   N42       1.0  0.76169  0.45299  0.34591  1.0000
  C   C103      1.0  0.55225  0.73117  0.34208  1.0000
  N   N43       1.0  0.52260  0.72130  0.34957  1.0000
  C   C104      1.0  0.49878  0.74149  0.36024  1.0000
  N   N44       1.0  0.50605  0.77179  0.36243  1.0000
  C   C105      1.0  0.53512  0.78231  0.35610  1.0000
  N   N45       1.0  0.55786  0.76164  0.34591  1.0000
  C   C106      1.0  0.45860  0.27965  0.34220  1.0000
  N   N46       1.0  0.48826  0.28952  0.34966  1.0000
  C   C107      1.0  0.51207  0.26933  0.36048  1.0000
  N   N47       1.0  0.50480  0.23903  0.36284  1.0000
  C   C108      1.0  0.47573  0.22851  0.35655  1.0000
  N   N48       1.0  0.45299  0.24918  0.34626  1.0000
  C   C109      1.0  0.17962  0.17056  0.35395  1.0000
  N   N49       1.0  0.14983  0.17901  0.34536  1.0000
  C   C110      1.0  0.14119  0.20897  0.34134  1.0000
  N   N50       1.0  0.16387  0.23048  0.34641  1.0000
  C   C111      1.0  0.19420  0.22345  0.35539  1.0000
  N   N51       1.0  0.20108  0.19304  0.35881  1.0000
  C   C112      1.0  0.83120  0.84030  0.35415  1.0000
  N   N52       1.0  0.86099  0.83185  0.34551  1.0000
  C   C113      1.0  0.86963  0.80189  0.34142  1.0000
  N   N53       1.0  0.84696  0.78038  0.34649  1.0000
  C   C114      1.0  0.81663  0.78740  0.35550  1.0000
  N   N54       1.0  0.80975  0.81781  0.35899  1.0000
  C   C115      1.0  0.84031  0.17964  0.35405  1.0000
  N   N55       1.0  0.83186  0.14984  0.34545  1.0000
  C   C116      1.0  0.80190  0.14120  0.34139  1.0000
  N   N56       1.0  0.78039  0.16387  0.34646  1.0000
  C   C117      1.0  0.78741  0.19420  0.35544  1.0000
  N   N57       1.0  0.81782  0.20109  0.35889  1.0000
  C   C118      1.0  0.17054  0.83123  0.35402  1.0000
  N   N58       1.0  0.17900  0.86102  0.34537  1.0000
  C   C119      1.0  0.20896  0.86965  0.34130  1.0000
  N   N59       1.0  0.23047  0.84697  0.34639  1.0000
  C   C120      1.0  0.22344  0.81665  0.35540  1.0000
  N   N60       1.0  0.19303  0.80977  0.35887  1.0000
  C   C121      1.0  0.33212  0.67048  0.34184  1.0000
  N   N61       1.0  0.36202  0.67900  0.34641  1.0000
  C   C122      1.0  0.37058  0.70898  0.35238  1.0000
  N   N62       1.0  0.34761  0.73020  0.35368  1.0000
  C   C123      1.0  0.31727  0.72300  0.35092  1.0000
  N   N63       1.0  0.31038  0.69269  0.34475  1.0000
  C   C124      1.0  0.67874  0.34037  0.34174  1.0000
  N   N64       1.0  0.64884  0.33185  0.34636  1.0000
  C   C125      1.0  0.64028  0.30188  0.35239  1.0000
  N   N65       1.0  0.66324  0.28065  0.35369  1.0000
  C   C126      1.0  0.69358  0.28785  0.35091  1.0000
  N   N66       1.0  0.70047  0.31815  0.34468  1.0000
  C   C127      1.0  0.67047  0.67872  0.34189  1.0000
  N   N67       1.0  0.67899  0.64882  0.34643  1.0000
  C   C128      1.0  0.70897  0.64026  0.35241  1.0000
  N   N68       1.0  0.73019  0.66322  0.35373  1.0000
  C   C129      1.0  0.72299  0.69356  0.35099  1.0000
  N   N69       1.0  0.69268  0.70046  0.34481  1.0000
  C   C130      1.0  0.34038  0.33211  0.34180  1.0000
  N   N70       1.0  0.33186  0.36201  0.34640  1.0000
  C   C131      1.0  0.30188  0.37057  0.35238  1.0000
  N   N71       1.0  0.28065  0.34761  0.35368  1.0000
  C   C132      1.0  0.28786  0.31727  0.35090  1.0000
  N   N72       1.0  0.31816  0.31038  0.34471  1.0000
  C   C133      1.0  0.44582  0.10232  0.35136  1.0000
  N   N73       1.0  0.46726  0.07996  0.35562  1.0000
  C   C134      1.0  0.45919  0.05011  0.34959  1.0000
  N   N74       1.0  0.42934  0.04247  0.33864  1.0000
  C   C135      1.0  0.40737  0.06443  0.33308  1.0000
  N   N75       1.0  0.41610  0.09416  0.34000  1.0000
  C   C136      1.0  0.56501  0.90845  0.34994  1.0000
  N   N76       1.0  0.54353  0.93077  0.35373  1.0000
  C   C137      1.0  0.55160  0.96063  0.34820  1.0000
  N   N77       1.0  0.58148  0.96833  0.33844  1.0000
  C   C138      1.0  0.60347  0.94639  0.33308  1.0000
  N   N78       1.0  0.59476  0.91663  0.33946  1.0000
  C   C139      1.0  0.90852  0.44584  0.35079  1.0000
  N   N79       1.0  0.93086  0.46730  0.35486  1.0000
  C   C140      1.0  0.96072  0.45924  0.34902  1.0000
  N   N80       1.0  0.96838  0.42937  0.33855  1.0000
  C   C141      1.0  0.94643  0.40739  0.33308  1.0000
  N   N81       1.0  0.91669  0.41611  0.33977  1.0000
  C   C142      1.0  0.10237  0.56503  0.35045  1.0000
  N   N82       1.0  0.08003  0.54357  0.35440  1.0000
  C   C143      1.0  0.05018  0.55165  0.34863  1.0000
  N   N83       1.0  0.04252  0.58152  0.33837  1.0000
  C   C144      1.0  0.06447  0.60350  0.33295  1.0000
  N   N84       1.0  0.09421  0.59476  0.33959  1.0000
  C   C145      1.0  0.36463  0.03249  0.37873  1.0000
  C   C146      1.0  0.33356  0.02453  0.37718  1.0000
  H   H37       1.0  0.32603  0.00787  0.42025  1.0000
  H   H38       1.0  0.37864  0.02120  0.42281  1.0000
  C   C147      1.0  0.64620  0.97825  0.37944  1.0000
  C   C148      1.0  0.67726  0.98624  0.37803  1.0000
  H   H39       1.0  0.68478  0.00282  0.42135  1.0000
  H   H40       1.0  0.63217  0.98944  0.42370  1.0000
  C   C149      1.0  0.97831  0.36465  0.37914  1.0000
  C   C150      1.0  0.98627  0.33358  0.37766  1.0000
  H   H41       1.0  0.00281  0.32603  0.42108  1.0000
  H   H42       1.0  0.98947  0.37865  0.42354  1.0000
  C   C151      1.0  0.03247  0.64621  0.37862  1.0000
  C   C152      1.0  0.02448  0.67727  0.37712  1.0000
  H   H43       1.0  0.00785  0.68479  0.42027  1.0000
  H   H44       1.0  0.02121  0.63218  0.42272  1.0000
  C   C153      1.0  0.13354  0.55672  0.35575  1.0000
  C   C154      1.0  0.19688  0.54178  0.35845  1.0000
  C   C155      1.0  0.17777  0.53279  0.43126  1.0000
  C   C156      1.0  0.14598  0.54014  0.42991  1.0000
  N   N85       1.0  0.19175  0.51824  0.50625  1.0000
  N   N86       1.0  0.12851  0.53138  0.50626  1.0000
  O   O49       1.0  0.19100  0.53494  0.57513  1.0000
  O   O50       1.0  0.10983  0.51037  0.48929  1.0000
  O   O51       1.0  0.17953  0.49303  0.52482  1.0000
  O   O52       1.0  0.11527  0.55339  0.54428  1.0000
  C   C157      1.0  0.87735  0.45413  0.35602  1.0000
  C   C158      1.0  0.81400  0.46907  0.35854  1.0000
  C   C159      1.0  0.83308  0.47803  0.43143  1.0000
  C   C160      1.0  0.86487  0.47070  0.43017  1.0000
  N   N87       1.0  0.81908  0.49259  0.50637  1.0000
  N   N88       1.0  0.88232  0.47950  0.50650  1.0000
  O   O53       1.0  0.81981  0.47591  0.57525  1.0000
  O   O54       1.0  0.90095  0.50056  0.48945  1.0000
  O   O55       1.0  0.83129  0.51781  0.52496  1.0000
  O   O56       1.0  0.89562  0.45754  0.54455  1.0000
  C   C161      1.0  0.55672  0.87729  0.35532  1.0000
  C   C162      1.0  0.54178  0.81396  0.35820  1.0000
  C   C163      1.0  0.53284  0.83308  0.43104  1.0000
  C   C164      1.0  0.54019  0.86487  0.42962  1.0000
  N   N89       1.0  0.51829  0.81912  0.50607  1.0000
  N   N90       1.0  0.53150  0.88235  0.50602  1.0000
  O   O57       1.0  0.53500  0.81988  0.57492  1.0000
  O   O58       1.0  0.51053  0.90111  0.48921  1.0000
  O   O59       1.0  0.49309  0.83136  0.52464  1.0000
  O   O60       1.0  0.55357  0.89554  0.54393  1.0000
  C   C165      1.0  0.45412  0.13350  0.35653  1.0000
  C   C166      1.0  0.46905  0.19686  0.35893  1.0000
  C   C167      1.0  0.47807  0.17778  0.43176  1.0000
  C   C168      1.0  0.47075  0.14599  0.43053  1.0000
  N   N91       1.0  0.49266  0.19180  0.50664  1.0000
  N   N92       1.0  0.47967  0.12855  0.50675  1.0000
  O   O61       1.0  0.47600  0.19105  0.57559  1.0000
  O   O62       1.0  0.50079  0.11003  0.48942  1.0000
  O   O63       1.0  0.51790  0.17961  0.52513  1.0000
  O   O64       1.0  0.45779  0.11514  0.54493  1.0000
  C   C169      1.0  0.18857  0.13927  0.35941  1.0000
  C   C170      1.0  0.21215  0.07803  0.35810  1.0000
  C   C171      1.0  0.21532  0.09683  0.43627  1.0000
  C   C172      1.0  0.20350  0.12729  0.43682  1.0000
  N   N93       1.0  0.22989  0.08659  0.51629  1.0000
  N   N94       1.0  0.20603  0.14669  0.51321  1.0000
  O   O65       1.0  0.25835  0.08381  0.50879  1.0000
  O   O66       1.0  0.23336  0.15127  0.53554  1.0000
  O   O67       1.0  0.21852  0.06227  0.54647  1.0000
  O   O68       1.0  0.19161  0.13628  0.57969  1.0000
  C   C173      1.0  0.82223  0.87159  0.35966  1.0000
  C   C174      1.0  0.79866  0.93280  0.35850  1.0000
  C   C175      1.0  0.79548  0.91400  0.43664  1.0000
  C   C176      1.0  0.80730  0.88354  0.43710  1.0000
  N   N95       1.0  0.78089  0.92421  0.51668  1.0000
  N   N96       1.0  0.80476  0.86411  0.51343  1.0000
  O   O69       1.0  0.75243  0.92697  0.50917  1.0000
  O   O70       1.0  0.77743  0.85953  0.53574  1.0000
  O   O71       1.0  0.79225  0.94853  0.54690  1.0000
  O   O72       1.0  0.81917  0.87450  0.57995  1.0000
  C   C177      1.0  0.87159  0.18860  0.35956  1.0000
  C   C178      1.0  0.93282  0.21218  0.35839  1.0000
  C   C179      1.0  0.91401  0.21534  0.43653  1.0000
  C   C180      1.0  0.88356  0.20351  0.43702  1.0000
  N   N97       1.0  0.92424  0.22993  0.51656  1.0000
  N   N98       1.0  0.86414  0.20604  0.51337  1.0000
  O   O73       1.0  0.92701  0.25839  0.50901  1.0000
  O   O74       1.0  0.85955  0.23336  0.53571  1.0000
  O   O75       1.0  0.94856  0.21856  0.54674  1.0000
  O   O76       1.0  0.87454  0.19162  0.57986  1.0000
  C   C181      1.0  0.13925  0.82229  0.35955  1.0000
  C   C182      1.0  0.07801  0.79873  0.35833  1.0000
  C   C183      1.0  0.09682  0.79554  0.43645  1.0000
  C   C184      1.0  0.12729  0.80736  0.43696  1.0000
  N   N99       1.0  0.08661  0.78095  0.51647  1.0000
  N   N100      1.0  0.14671  0.80480  0.51329  1.0000
  O   O77       1.0  0.08384  0.75249  0.50893  1.0000
  O   O78       1.0  0.15128  0.77746  0.53557  1.0000
  O   O79       1.0  0.06229  0.79231  0.54671  1.0000
  O   O80       1.0  0.13633  0.81921  0.57984  1.0000
  C   C185      1.0  0.32354  0.62099  0.41359  1.0000
  C   C186      1.0  0.31128  0.59120  0.41297  1.0000
  H   H45       1.0  0.31010  0.57948  0.47258  1.0000
  H   H46       1.0  0.33125  0.62979  0.47332  1.0000
  C   C187      1.0  0.68714  0.38995  0.41322  1.0000
  C   C188      1.0  0.69942  0.41973  0.41260  1.0000
  H   H47       1.0  0.70049  0.43151  0.47212  1.0000
  H   H48       1.0  0.67932  0.38120  0.47289  1.0000
  C   C189      1.0  0.62097  0.68731  0.41359  1.0000
  C   C190      1.0  0.59119  0.69958  0.41295  1.0000
  H   H49       1.0  0.57951  0.70086  0.47261  1.0000
  H   H50       1.0  0.62981  0.67971  0.47341  1.0000
  C   C191      1.0  0.38993  0.32370  0.41339  1.0000
  C   C192      1.0  0.41972  0.31143  0.41282  1.0000
  H   H51       1.0  0.43142  0.31025  0.47245  1.0000
  H   H52       1.0  0.38112  0.33141  0.47312  1.0000
  C   C193      1.0  0.19997  0.92345  0.38272  1.0000
  C   C194      1.0  0.20709  0.95489  0.37974  1.0000
  H   H53       1.0  0.19485  0.96950  0.41969  1.0000
  H   H54       1.0  0.18262  0.91663  0.42437  1.0000
  C   C195      1.0  0.81088  0.08741  0.38298  1.0000
  C   C196      1.0  0.80376  0.05598  0.38009  1.0000
  H   H55       1.0  0.81598  0.04138  0.42013  1.0000
  H   H56       1.0  0.82822  0.09425  0.42469  1.0000
  C   C197      1.0  0.08740  0.19997  0.38276  1.0000
  C   C198      1.0  0.05596  0.20709  0.37982  1.0000
  H   H57       1.0  0.04136  0.19488  0.41990  1.0000
  H   H58       1.0  0.09422  0.18265  0.42453  1.0000
  C   C199      1.0  0.92343  0.81090  0.38281  1.0000
  C   C200      1.0  0.95487  0.80379  0.37983  1.0000
  H   H59       1.0  0.96947  0.81599  0.41992  1.0000
  H   H60       1.0  0.91661  0.82822  0.42459  1.0000
  C   C201      1.0  0.29336  0.40232  0.35917  1.0000
  C   C202      1.0  0.27797  0.46694  0.36586  1.0000
  C   C203      1.0  0.26039  0.44473  0.41386  1.0000
  C   C204      1.0  0.26787  0.41290  0.41074  1.0000
  N   N101      1.0  0.23531  0.45516  0.46625  1.0000
  N   N102      1.0  0.24932  0.39343  0.46429  1.0000
  O   O81       1.0  0.23876  0.45049  0.54921  1.0000
  O   O82       1.0  0.26374  0.37794  0.52158  1.0000
  O   O83       1.0  0.21031  0.44413  0.43977  1.0000
  O   O84       1.0  0.23091  0.37737  0.41976  1.0000
  C   C205      1.0  0.71749  0.60850  0.35918  1.0000
  C   C206      1.0  0.73288  0.54388  0.36585  1.0000
  C   C207      1.0  0.75044  0.56609  0.41393  1.0000
  C   C208      1.0  0.74295  0.59792  0.41084  1.0000
  N   N103      1.0  0.77550  0.55566  0.46637  1.0000
  N   N104      1.0  0.76150  0.61739  0.46442  1.0000
  O   O85       1.0  0.77204  0.56032  0.54931  1.0000
  O   O86       1.0  0.74707  0.63289  0.52168  1.0000
  O   O87       1.0  0.80051  0.56670  0.43995  1.0000
  O   O88       1.0  0.77992  0.63345  0.41992  1.0000
  C   C209      1.0  0.40233  0.71750  0.35914  1.0000
  C   C210      1.0  0.46695  0.73288  0.36578  1.0000
  C   C211      1.0  0.44475  0.75046  0.41381  1.0000
  C   C212      1.0  0.41292  0.74298  0.41072  1.0000
  N   N105      1.0  0.45519  0.77554  0.46618  1.0000
  N   N106      1.0  0.39345  0.76155  0.46423  1.0000
  O   O89       1.0  0.45052  0.77211  0.54913  1.0000
  O   O90       1.0  0.37795  0.74715  0.52153  1.0000
  O   O91       1.0  0.44416  0.80054  0.43968  1.0000
  O   O92       1.0  0.37740  0.77996  0.41965  1.0000
  C   C213      1.0  0.60853  0.29336  0.35919  1.0000
  C   C214      1.0  0.54391  0.27795  0.36594  1.0000
  C   C215      1.0  0.56612  0.26039  0.41397  1.0000
  C   C216      1.0  0.59795  0.26788  0.41082  1.0000
  N   N107      1.0  0.55571  0.23531  0.46637  1.0000
  N   N108      1.0  0.61743  0.24934  0.46441  1.0000
  O   O93       1.0  0.56038  0.23876  0.54931  1.0000
  O   O94       1.0  0.63292  0.26378  0.52166  1.0000
  O   O95       1.0  0.56676  0.21031  0.43988  1.0000
  O   O96       1.0  0.63349  0.23092  0.41992  1.0000
  C   C217      1.0  0.26493  0.29359  0.35670  1.0000
  C   C218      1.0  0.21793  0.24657  0.35963  1.0000
  C   C219      1.0  0.24659  0.24210  0.40400  1.0000
  C   C220      1.0  0.26987  0.26530  0.40237  1.0000
  N   N109      1.0  0.25034  0.21442  0.45243  1.0000
  N   N110      1.0  0.29814  0.26207  0.44842  1.0000
  O   O97       1.0  0.25207  0.21770  0.53626  1.0000
  O   O98       1.0  0.29600  0.26109  0.53266  1.0000
  O   O99       1.0  0.27121  0.19742  0.42309  1.0000
  O   O100      1.0  0.31500  0.24113  0.41886  1.0000
  C   C221      1.0  0.74591  0.71724  0.35680  1.0000
  C   C222      1.0  0.79291  0.76427  0.35975  1.0000
  C   C223      1.0  0.76426  0.76872  0.40421  1.0000
  C   C224      1.0  0.74098  0.74552  0.40256  1.0000
  N   N111      1.0  0.76051  0.79639  0.45268  1.0000
  N   N112      1.0  0.71273  0.74871  0.44873  1.0000
  O   O101      1.0  0.75878  0.79310  0.53650  1.0000
  O   O102      1.0  0.71492  0.74965  0.53297  1.0000
  O   O103      1.0  0.73962  0.81339  0.42338  1.0000
  O   O104      1.0  0.69585  0.76966  0.41934  1.0000
  C   C225      1.0  0.71725  0.26492  0.35674  1.0000
  C   C226      1.0  0.76428  0.21792  0.35970  1.0000
  C   C227      1.0  0.76874  0.24658  0.40411  1.0000
  C   C228      1.0  0.74553  0.26986  0.40244  1.0000
  N   N113      1.0  0.79641  0.25033  0.45254  1.0000
  N   N114      1.0  0.74874  0.29811  0.44856  1.0000
  O   O105      1.0  0.79313  0.25208  0.53637  1.0000
  O   O106      1.0  0.74969  0.29595  0.53280  1.0000
  O   O107      1.0  0.81341  0.27121  0.42319  1.0000
  O   O108      1.0  0.76969  0.31499  0.41912  1.0000
  C   C229      1.0  0.29359  0.74592  0.35674  1.0000
  C   C230      1.0  0.24656  0.79292  0.35967  1.0000
  C   C231      1.0  0.24209  0.76425  0.40403  1.0000
  C   C232      1.0  0.26530  0.74098  0.40240  1.0000
  N   N115      1.0  0.21441  0.76050  0.45242  1.0000
  N   N116      1.0  0.26207  0.71271  0.44841  1.0000
  O   O109      1.0  0.21768  0.75875  0.53625  1.0000
  O   O110      1.0  0.26107  0.71483  0.53266  1.0000
  O   O111      1.0  0.19742  0.73962  0.42304  1.0000
  O   O112      1.0  0.24113  0.69584  0.41881  1.0000
  C   C233      1.0  0.52886  0.98324  0.35269  1.0000
  C   C234      1.0  0.48191  0.02745  0.35355  1.0000
  C   C235      1.0  0.49442  0.01737  0.43676  1.0000
  C   C236      1.0  0.51805  0.99474  0.43635  1.0000
  N   N117      1.0  0.48192  0.03040  0.51622  1.0000
  N   N118      1.0  0.53193  0.98278  0.51528  1.0000
  O   O113      1.0  0.46805  0.01141  0.56467  1.0000
  O   O114      1.0  0.51373  0.96855  0.56540  1.0000
  O   O115      1.0  0.50098  0.04511  0.56215  1.0000
  O   O116      1.0  0.54656  0.00236  0.55956  1.0000
  C   C237      1.0  0.02755  0.52892  0.35292  1.0000
  C   C238      1.0  0.98335  0.48196  0.35316  1.0000
  C   C239      1.0  0.99398  0.49382  0.43659  1.0000
  C   C240      1.0  0.01661  0.51745  0.43647  1.0000
  N   N119      1.0  0.98136  0.48080  0.51590  1.0000
  N   N120      1.0  0.02900  0.53080  0.51565  1.0000
  O   O117      1.0  0.00057  0.46666  0.56284  1.0000
  O   O118      1.0  0.04345  0.51225  0.56408  1.0000
  O   O119      1.0  0.96680  0.49955  0.56337  1.0000
  O   O120      1.0  0.00965  0.54512  0.56165  1.0000
