data_image0
_chemical_formula_structural       CNC4O2HC2NC2O2HC2NC2O2HNCHNCHNCHNCHNCHNCHC24H15C24H15C24H15C24H15C24H15C24H15NHNCHNCHC2NC2O2HC2NC2O2HC2NC2O2HC2NC2O2HC2NC2O2HC2NC2O2H
_chemical_formula_sum              "C189 N18 O18 H108"
_cell_length_a       61.3484
_cell_length_b       61.3484
_cell_length_c       14.9927
_cell_angle_alpha    90
_cell_angle_beta     90
_cell_angle_gamma    120

_space_group_name_H-M_alt    "P 1"
_space_group_IT_number       1

loop_
  _space_group_symop_operation_xyz
  'x, y, z'

loop_
  _atom_site_type_symbol
  _atom_site_label
  _atom_site_symmetry_multiplicity
  _atom_site_fract_x
  _atom_site_fract_y
  _atom_site_fract_z
  _atom_site_occupancy
  C   C1        1.0  0.01141  0.50250  0.39070  1.0000
  N   N1        1.0  0.01423  0.50853  0.23504  1.0000
  C   C2        1.0  0.97376  0.48622  0.30293  1.0000
  C   C3        1.0  0.02660  0.51222  0.31388  1.0000
  C   C4        1.0  0.98876  0.49596  0.22498  1.0000
  C   C5        1.0  0.97907  0.49493  0.14047  1.0000
  O   O1        1.0  0.98921  0.49116  0.07684  1.0000
  O   O2        1.0  0.96787  0.50643  0.12215  1.0000
  H   H1        1.0  0.96152  0.51247  0.16170  1.0000
  C   C6        1.0  0.51438  0.48769  0.30289  1.0000
  C   C7        1.0  0.48836  0.51451  0.31384  1.0000
  N   N2        1.0  0.49207  0.50585  0.23499  1.0000
  C   C8        1.0  0.50464  0.49295  0.22494  1.0000
  C   C9        1.0  0.50573  0.48434  0.14039  1.0000
  O   O3        1.0  0.50951  0.49827  0.07683  1.0000
  O   O4        1.0  0.49428  0.46165  0.12191  1.0000
  H   H2        1.0  0.48824  0.44924  0.16138  1.0000
  C   C10       1.0  0.51290  0.02684  0.30289  1.0000
  C   C11       1.0  0.48607  0.97399  0.31383  1.0000
  N   N3        1.0  0.49471  0.98636  0.23497  1.0000
  C   C12       1.0  0.50759  0.01183  0.22492  1.0000
  C   C13       1.0  0.51622  0.02153  0.14033  1.0000
  O   O5        1.0  0.50208  0.01154  0.07716  1.0000
  O   O6        1.0  0.53892  0.03262  0.12201  1.0000
  H   H3        1.0  0.55131  0.03884  0.16154  1.0000
  N   N4        1.0  0.25606  0.53707  0.27499  1.0000
  C   C14       1.0  0.27768  0.53642  0.26481  1.0000
  H   H4        1.0  0.28736  0.54278  0.20633  1.0000
  N   N5        1.0  0.46335  0.71905  0.27505  1.0000
  C   C15       1.0  0.46399  0.74131  0.26495  1.0000
  H   H5        1.0  0.45777  0.74472  0.20627  1.0000
  N   N6        1.0  0.28149  0.74448  0.27478  1.0000
  C   C16       1.0  0.25920  0.72289  0.26457  1.0000
  H   H6        1.0  0.25586  0.71322  0.20605  1.0000
  N   N7        1.0  0.74546  0.46326  0.27679  1.0000
  C   C17       1.0  0.72393  0.46409  0.26690  1.0000
  H   H7        1.0  0.71418  0.45774  0.20851  1.0000
  N   N8        1.0  0.53749  0.28241  0.27676  1.0000
  C   C18       1.0  0.53668  0.26006  0.26687  1.0000
  H   H8        1.0  0.54290  0.25658  0.20834  1.0000
  N   N9        1.0  0.71830  0.25514  0.27674  1.0000
  C   C19       1.0  0.74065  0.27667  0.26679  1.0000
  H   H9        1.0  0.74404  0.28646  0.20851  1.0000
  C   C20       1.0  0.17353  0.60815  0.33552  1.0000
  C   C21       1.0  0.14717  0.59415  0.32431  1.0000
  C   C22       1.0  0.13422  0.56748  0.32317  1.0000
  C   C23       1.0  0.14837  0.55505  0.33048  1.0000
  C   C24       1.0  0.17478  0.56865  0.34112  1.0000
  C   C25       1.0  0.18704  0.59519  0.34365  1.0000
  C   C26       1.0  0.10741  0.55342  0.31939  1.0000
  C   C27       1.0  0.09387  0.55877  0.25514  1.0000
  C   C28       1.0  0.06738  0.54502  0.25288  1.0000
  C   C29       1.0  0.05345  0.52579  0.31591  1.0000
  C   C30       1.0  0.06711  0.52047  0.37998  1.0000
  C   C31       1.0  0.09357  0.53396  0.38152  1.0000
  C   C32       1.0  0.18681  0.63479  0.34056  1.0000
  C   C33       1.0  0.19010  0.64954  0.26401  1.0000
  C   C34       1.0  0.20773  0.67551  0.26423  1.0000
  C   C35       1.0  0.22232  0.68751  0.34101  1.0000
  C   C36       1.0  0.21763  0.67280  0.41910  1.0000
  C   C37       1.0  0.20038  0.64682  0.41864  1.0000
  C   C38       1.0  0.18912  0.55634  0.34968  1.0000
  C   C39       1.0  0.20651  0.56269  0.42042  1.0000
  C   C40       1.0  0.22313  0.55321  0.42333  1.0000
  C   C41       1.0  0.22287  0.53698  0.35579  1.0000
  C   C42       1.0  0.20516  0.53026  0.28586  1.0000
  C   C43       1.0  0.18825  0.53950  0.28347  1.0000
  H   H10       1.0  0.21050  0.68537  0.20631  1.0000
  H   H11       1.0  0.18115  0.64119  0.20565  1.0000
  H   H12       1.0  0.22816  0.68038  0.47548  1.0000
  H   H13       1.0  0.19883  0.63651  0.47446  1.0000
  H   H14       1.0  0.20791  0.57510  0.46884  1.0000
  H   H15       1.0  0.23650  0.55964  0.47247  1.0000
  H   H16       1.0  0.17648  0.53517  0.22980  1.0000
  H   H17       1.0  0.20493  0.51915  0.23452  1.0000
  H   H18       1.0  0.10264  0.52971  0.42987  1.0000
  H   H19       1.0  0.05799  0.50638  0.42569  1.0000
  H   H20       1.0  0.05836  0.54964  0.20555  1.0000
  H   H21       1.0  0.10320  0.57259  0.20859  1.0000
  H   H22       1.0  0.13726  0.60349  0.32118  1.0000
  H   H23       1.0  0.20624  0.60534  0.35008  1.0000
  H   H24       1.0  0.13930  0.53578  0.32947  1.0000
  C   C44       1.0  0.39241  0.56547  0.33566  1.0000
  C   C45       1.0  0.40641  0.55312  0.32438  1.0000
  C   C46       1.0  0.43308  0.56685  0.32322  1.0000
  C   C47       1.0  0.44551  0.59343  0.33056  1.0000
  C   C48       1.0  0.43190  0.60623  0.34126  1.0000
  C   C49       1.0  0.40535  0.59193  0.34382  1.0000
  C   C50       1.0  0.44715  0.55411  0.31939  1.0000
  C   C51       1.0  0.44180  0.53522  0.25510  1.0000
  C   C52       1.0  0.45557  0.52250  0.25281  1.0000
  C   C53       1.0  0.47479  0.52779  0.31587  1.0000
  C   C54       1.0  0.48010  0.54676  0.37997  1.0000
  C   C55       1.0  0.46661  0.55973  0.38153  1.0000
  C   C56       1.0  0.36577  0.55210  0.34073  1.0000
  C   C57       1.0  0.35101  0.54066  0.26419  1.0000
  C   C58       1.0  0.32504  0.53231  0.26443  1.0000
  C   C59       1.0  0.31306  0.53492  0.34124  1.0000
  C   C60       1.0  0.32776  0.54490  0.41935  1.0000
  C   C61       1.0  0.35374  0.55363  0.41885  1.0000
  C   C62       1.0  0.44420  0.63288  0.34986  1.0000
  C   C63       1.0  0.43787  0.64390  0.42071  1.0000
  C   C64       1.0  0.44727  0.66998  0.42350  1.0000
  C   C65       1.0  0.46347  0.68595  0.35590  1.0000
  C   C66       1.0  0.47022  0.67499  0.28598  1.0000
  C   C67       1.0  0.46099  0.64885  0.28355  1.0000
  H   H25       1.0  0.31518  0.52525  0.20650  1.0000
  H   H26       1.0  0.35936  0.54006  0.20581  1.0000
  H   H27       1.0  0.32019  0.54788  0.47570  1.0000
  H   H28       1.0  0.36405  0.56238  0.47466  1.0000
  H   H29       1.0  0.42546  0.63287  0.46911  1.0000
  H   H30       1.0  0.44085  0.67691  0.47270  1.0000
  H   H31       1.0  0.46533  0.64142  0.22988  1.0000
  H   H32       1.0  0.48129  0.68588  0.23457  1.0000
  H   H33       1.0  0.47085  0.57304  0.42991  1.0000
  H   H34       1.0  0.49418  0.55171  0.42569  1.0000
  H   H35       1.0  0.45095  0.50885  0.20549  1.0000
  H   H36       1.0  0.42799  0.53074  0.20857  1.0000
  H   H37       1.0  0.39708  0.53386  0.32123  1.0000
  H   H38       1.0  0.39520  0.60098  0.35030  1.0000
  H   H39       1.0  0.46478  0.60363  0.32953  1.0000
  C   C68       1.0  0.43512  0.82709  0.33557  1.0000
  C   C69       1.0  0.44746  0.85344  0.32426  1.0000
  C   C70       1.0  0.43374  0.86638  0.32315  1.0000
  C   C71       1.0  0.40715  0.85222  0.33047  1.0000
  C   C72       1.0  0.39436  0.82581  0.34114  1.0000
  C   C73       1.0  0.40866  0.81357  0.34373  1.0000
  C   C74       1.0  0.44648  0.89318  0.31935  1.0000
  C   C75       1.0  0.46536  0.90673  0.25506  1.0000
  C   C76       1.0  0.47807  0.93322  0.25277  1.0000
  C   C77       1.0  0.47279  0.94715  0.31585  1.0000
  C   C78       1.0  0.45383  0.93348  0.38000  1.0000
  C   C79       1.0  0.44087  0.90702  0.38156  1.0000
  C   C80       1.0  0.44849  0.81381  0.34066  1.0000
  C   C81       1.0  0.45992  0.81050  0.26409  1.0000
  C   C82       1.0  0.46824  0.79285  0.26437  1.0000
  C   C83       1.0  0.46568  0.77830  0.34124  1.0000
  C   C84       1.0  0.45570  0.78303  0.41934  1.0000
  C   C85       1.0  0.44699  0.80030  0.41886  1.0000
  C   C86       1.0  0.36770  0.81146  0.34969  1.0000
  C   C87       1.0  0.35667  0.79409  0.42049  1.0000
  C   C88       1.0  0.33058  0.77745  0.42334  1.0000
  C   C89       1.0  0.31461  0.77767  0.35570  1.0000
  C   C90       1.0  0.32560  0.79538  0.28576  1.0000
  C   C91       1.0  0.35174  0.81227  0.28334  1.0000
  H   H40       1.0  0.47531  0.79005  0.20646  1.0000
  H   H41       1.0  0.46049  0.81942  0.20569  1.0000
  H   H42       1.0  0.45273  0.77249  0.47572  1.0000
  H   H43       1.0  0.43821  0.80184  0.47462  1.0000
  H   H44       1.0  0.36768  0.79268  0.46887  1.0000
  H   H45       1.0  0.32365  0.76406  0.47239  1.0000
  H   H46       1.0  0.35918  0.82408  0.22974  1.0000
  H   H47       1.0  0.31472  0.79559  0.23437  1.0000
  H   H48       1.0  0.42755  0.89795  0.42989  1.0000
  H   H49       1.0  0.44887  0.94260  0.42572  1.0000
  H   H50       1.0  0.49171  0.94224  0.20542  1.0000
  H   H51       1.0  0.46982  0.89740  0.20847  1.0000
  H   H52       1.0  0.46672  0.86336  0.32121  1.0000
  H   H53       1.0  0.39961  0.79436  0.35018  1.0000
  H   H54       1.0  0.39695  0.86129  0.32945  1.0000
  C   C92       1.0  0.82692  0.39105  0.33760  1.0000
  C   C93       1.0  0.85321  0.40480  0.32433  1.0000
  C   C94       1.0  0.86638  0.43147  0.32159  1.0000
  C   C95       1.0  0.85245  0.44413  0.32937  1.0000
  C   C96       1.0  0.82611  0.43079  0.34215  1.0000
  C   C97       1.0  0.81367  0.40425  0.34621  1.0000
  C   C98       1.0  0.89318  0.44533  0.31501  1.0000
  C   C99       1.0  0.90616  0.43893  0.25167  1.0000
  C   C100      1.0  0.93262  0.45248  0.24669  1.0000
  C   C101      1.0  0.94698  0.47278  0.30525  1.0000
  C   C102      1.0  0.93404  0.47891  0.36953  1.0000
  C   C103      1.0  0.90760  0.46554  0.37391  1.0000
  C   C104      1.0  0.81342  0.36440  0.34287  1.0000
  C   C105      1.0  0.81016  0.34957  0.26659  1.0000
  C   C106      1.0  0.79242  0.32363  0.26684  1.0000
  C   C107      1.0  0.77766  0.31176  0.34342  1.0000
  C   C108      1.0  0.78230  0.32652  0.42133  1.0000
  C   C109      1.0  0.79966  0.35247  0.42078  1.0000
  C   C110      1.0  0.81200  0.44335  0.35074  1.0000
  C   C111      1.0  0.79486  0.43738  0.42210  1.0000
  C   C112      1.0  0.77841  0.44707  0.42509  1.0000
  C   C113      1.0  0.77862  0.46315  0.35707  1.0000
  C   C114      1.0  0.79610  0.46951  0.28655  1.0000
  C   C115      1.0  0.81280  0.46003  0.28398  1.0000
  H   H55       1.0  0.78970  0.31370  0.20912  1.0000
  H   H56       1.0  0.81931  0.35783  0.20841  1.0000
  H   H57       1.0  0.77157  0.31904  0.47738  1.0000
  H   H58       1.0  0.80114  0.36285  0.47633  1.0000
  H   H59       1.0  0.79351  0.42511  0.47096  1.0000
  H   H60       1.0  0.76522  0.44092  0.47478  1.0000
  H   H61       1.0  0.82440  0.46411  0.22993  1.0000
  H   H62       1.0  0.79630  0.48053  0.23491  1.0000
  H   H63       1.0  0.89900  0.47041  0.42213  1.0000
  H   H64       1.0  0.94376  0.49338  0.41347  1.0000
  H   H65       1.0  0.94131  0.44695  0.20112  1.0000
  H   H66       1.0  0.89642  0.42442  0.20793  1.0000
  H   H67       1.0  0.86293  0.39527  0.32077  1.0000
  H   H68       1.0  0.79449  0.39429  0.35371  1.0000
  H   H69       1.0  0.86164  0.46339  0.32690  1.0000
  C   C116      1.0  0.60957  0.43604  0.33766  1.0000
  C   C117      1.0  0.59582  0.44857  0.32431  1.0000
  C   C118      1.0  0.56915  0.43508  0.32160  1.0000
  C   C119      1.0  0.55649  0.40850  0.32939  1.0000
  C   C120      1.0  0.56983  0.39549  0.34223  1.0000
  C   C121      1.0  0.59636  0.40959  0.34631  1.0000
  C   C122      1.0  0.55530  0.44802  0.31503  1.0000
  C   C123      1.0  0.56170  0.46741  0.25171  1.0000
  C   C124      1.0  0.54816  0.48032  0.24675  1.0000
  C   C125      1.0  0.52783  0.47435  0.30521  1.0000
  C   C126      1.0  0.52169  0.45527  0.36947  1.0000
  C   C127      1.0  0.53506  0.44221  0.37385  1.0000
  C   C128      1.0  0.63622  0.44918  0.34293  1.0000
  C   C129      1.0  0.65105  0.46072  0.26663  1.0000
  C   C130      1.0  0.67699  0.46891  0.26690  1.0000
  C   C131      1.0  0.68886  0.46604  0.34349  1.0000
  C   C132      1.0  0.67409  0.45589  0.42135  1.0000
  C   C133      1.0  0.64814  0.44736  0.42088  1.0000
  C   C134      1.0  0.55727  0.36882  0.35088  1.0000
  C   C135      1.0  0.56320  0.35767  0.42237  1.0000
  C   C136      1.0  0.55357  0.33154  0.42534  1.0000
  C   C137      1.0  0.53753  0.31565  0.35725  1.0000
  C   C138      1.0  0.53119  0.32676  0.28663  1.0000
  C   C139      1.0  0.54066  0.35294  0.28400  1.0000
  H   H70       1.0  0.68692  0.47612  0.20918  1.0000
  H   H71       1.0  0.64280  0.46162  0.20845  1.0000
  H   H72       1.0  0.68158  0.45272  0.47752  1.0000
  H   H73       1.0  0.63777  0.43850  0.47646  1.0000
  H   H74       1.0  0.57546  0.36861  0.47125  1.0000
  H   H75       1.0  0.55972  0.32452  0.47507  1.0000
  H   H76       1.0  0.53661  0.36046  0.22987  1.0000
  H   H77       1.0  0.52026  0.31595  0.23483  1.0000
  H   H78       1.0  0.53019  0.42874  0.42207  1.0000
  H   H79       1.0  0.50720  0.45051  0.41335  1.0000
  H   H80       1.0  0.55368  0.49453  0.20116  1.0000
  H   H81       1.0  0.57622  0.47219  0.20801  1.0000
  H   H82       1.0  0.60535  0.46783  0.32080  1.0000
  H   H83       1.0  0.60633  0.40037  0.35387  1.0000
  H   H84       1.0  0.53723  0.39842  0.32693  1.0000
  C   C140      1.0  0.56467  0.17369  0.33758  1.0000
  C   C141      1.0  0.55211  0.14741  0.32425  1.0000
  C   C142      1.0  0.56559  0.13421  0.32152  1.0000
  C   C143      1.0  0.59218  0.14813  0.32929  1.0000
  C   C144      1.0  0.60520  0.17447  0.34211  1.0000
  C   C145      1.0  0.59112  0.18692  0.34620  1.0000
  C   C146      1.0  0.55264  0.10742  0.31495  1.0000
  C   C147      1.0  0.53324  0.09445  0.25166  1.0000
  C   C148      1.0  0.52030  0.06799  0.24673  1.0000
  C   C149      1.0  0.52625  0.05362  0.30519  1.0000
  C   C150      1.0  0.54535  0.06655  0.36943  1.0000
  C   C151      1.0  0.55843  0.09298  0.37377  1.0000
  C   C152      1.0  0.55154  0.18721  0.34286  1.0000
  C   C153      1.0  0.53997  0.19048  0.26658  1.0000
  C   C154      1.0  0.53179  0.20824  0.26684  1.0000
  C   C155      1.0  0.53467  0.22299  0.34343  1.0000
  C   C156      1.0  0.54483  0.21838  0.42127  1.0000
  C   C157      1.0  0.55340  0.20100  0.42074  1.0000
  C   C158      1.0  0.63187  0.18856  0.35072  1.0000
  C   C159      1.0  0.64304  0.20568  0.42212  1.0000
  C   C160      1.0  0.66918  0.22213  0.42515  1.0000
  C   C161      1.0  0.68505  0.22196  0.35702  1.0000
  C   C162      1.0  0.67392  0.20449  0.28645  1.0000
  C   C163      1.0  0.64774  0.18779  0.28388  1.0000
  H   H85       1.0  0.52457  0.21095  0.20913  1.0000
  H   H86       1.0  0.53906  0.18132  0.20841  1.0000
  H   H87       1.0  0.54801  0.22904  0.47744  1.0000
  H   H88       1.0  0.56222  0.19945  0.47638  1.0000
  H   H89       1.0  0.63211  0.20703  0.47097  1.0000
  H   H90       1.0  0.67621  0.23533  0.47479  1.0000
  H   H91       1.0  0.64021  0.17620  0.22982  1.0000
  H   H92       1.0  0.68474  0.20432  0.23476  1.0000
  H   H93       1.0  0.57191  0.10157  0.42198  1.0000
  H   H94       1.0  0.55011  0.05682  0.41330  1.0000
  H   H95       1.0  0.50608  0.05930  0.20117  1.0000
  H   H96       1.0  0.52845  0.10418  0.20798  1.0000
  H   H97       1.0  0.53286  0.13769  0.32076  1.0000
  H   H98       1.0  0.60034  0.20610  0.35373  1.0000
  H   H99       1.0  0.60223  0.13893  0.32682  1.0000
  N   N10       1.0  0.98604  0.49021  0.38208  1.0000
  H   H100      1.0  0.01895  0.50504  0.45313  1.0000
  N   N11       1.0  0.51036  0.49595  0.38204  1.0000
  C   C164      1.0  0.49806  0.50902  0.39066  1.0000
  H   H101      1.0  0.49551  0.51401  0.45310  1.0000
  N   N12       1.0  0.50465  0.01455  0.38205  1.0000
  C   C165      1.0  0.49159  0.98918  0.39067  1.0000
  H   H102      1.0  0.48659  0.98164  0.45310  1.0000
  C   C166      1.0  0.24243  0.53095  0.35174  1.0000
  C   C167      1.0  0.28796  0.53064  0.33932  1.0000
  N   N13       1.0  0.27410  0.52426  0.41561  1.0000
  C   C168      1.0  0.25167  0.52347  0.42569  1.0000
  C   C169      1.0  0.23954  0.51615  0.50769  1.0000
  O   O7        1.0  0.25219  0.52100  0.57556  1.0000
  O   O8        1.0  0.21764  0.49859  0.51512  1.0000
  H   H103      1.0  0.20696  0.49141  0.47041  1.0000
  C   C170      1.0  0.46945  0.71153  0.35184  1.0000
  C   C171      1.0  0.46988  0.75744  0.33932  1.0000
  N   N14       1.0  0.47626  0.74994  0.41561  1.0000
  C   C172      1.0  0.47697  0.72826  0.42575  1.0000
  C   C173      1.0  0.48434  0.72344  0.50767  1.0000
  O   O9        1.0  0.47943  0.73129  0.57531  1.0000
  O   O10       1.0  0.50202  0.71931  0.51507  1.0000
  H   H104      1.0  0.50920  0.71581  0.47035  1.0000
  C   C174      1.0  0.28903  0.75809  0.35158  1.0000
  C   C175      1.0  0.24311  0.71261  0.33902  1.0000
  N   N15       1.0  0.25064  0.72646  0.41537  1.0000
  C   C176      1.0  0.27230  0.74887  0.42549  1.0000
  C   C177      1.0  0.27709  0.76097  0.50758  1.0000
  O   O11       1.0  0.26959  0.74824  0.57537  1.0000
  O   O12       1.0  0.28153  0.78289  0.51504  1.0000
  H   H105      1.0  0.28490  0.79353  0.47029  1.0000
  C   C178      1.0  0.75922  0.46942  0.35328  1.0000
  C   C179      1.0  0.71387  0.47013  0.34139  1.0000
  N   N16       1.0  0.72782  0.47649  0.41748  1.0000
  C   C180      1.0  0.75017  0.47709  0.42726  1.0000
  C   C181      1.0  0.76244  0.48449  0.50899  1.0000
  O   O13       1.0  0.74991  0.47985  0.57709  1.0000
  O   O14       1.0  0.78439  0.50197  0.51585  1.0000
  H   H106      1.0  0.79502  0.50901  0.47089  1.0000
  C   C182      1.0  0.53140  0.29002  0.35335  1.0000
  C   C183      1.0  0.53060  0.24392  0.34128  1.0000
  N   N17       1.0  0.52425  0.25150  0.41741  1.0000
  C   C184      1.0  0.52368  0.27327  0.42726  1.0000
  C   C185      1.0  0.51625  0.27810  0.50903  1.0000
  O   O15       1.0  0.52127  0.27053  0.57709  1.0000
  O   O16       1.0  0.49879  0.28260  0.51584  1.0000
  H   H107      1.0  0.49164  0.28602  0.47079  1.0000
  C   C186      1.0  0.71071  0.24137  0.35322  1.0000
  C   C187      1.0  0.75674  0.28674  0.34131  1.0000
  N   N18       1.0  0.74918  0.27278  0.41739  1.0000
  C   C188      1.0  0.72744  0.25042  0.42716  1.0000
  C   C189      1.0  0.72259  0.23815  0.50889  1.0000
  O   O17       1.0  0.73047  0.25068  0.57699  1.0000
  O   O18       1.0  0.71812  0.21621  0.51575  1.0000
  H   H108      1.0  0.71454  0.20558  0.47079  1.0000
