data_image0
_chemical_formula_structural       C3NC3NC5NC5NC20H18C4H4C3NC3NC5NC5NC20H18C4H4C3NC3NC5NC5NC20H18C4H4C3H2NC3H2NC3H2NC3H2NC3H2NC3H2NC8H8C8H8C8H8C4NCONH2NC4NCONH2NC4NCONH2NC4NCONH2NC4NCONH2NC4NCONH2N
_chemical_formula_sum              "C192 N36 H114 O6"
_cell_length_a       50.636
_cell_length_b       50.6359
_cell_length_c       14.7645
_cell_angle_alpha    90.016
_cell_angle_beta     89.984
_cell_angle_gamma    120

_space_group_name_H-M_alt    "P 1"
_space_group_IT_number       1

loop_
  _space_group_symop_operation_xyz
  'x, y, z'

loop_
  _atom_site_type_symbol
  _atom_site_label
  _atom_site_symmetry_multiplicity
  _atom_site_fract_x
  _atom_site_fract_y
  _atom_site_fract_z
  _atom_site_occupancy
  C   C1        1.0  0.02386  0.63935  0.33813  1.0000
  C   C2        1.0  0.05539  0.65527  0.33892  1.0000
  C   C3        1.0  0.06563  0.63426  0.33848  1.0000
  N   N1        1.0  0.03992  0.60645  0.33863  1.0000
  C   C4        1.0  0.01401  0.60819  0.33756  1.0000
  C   C5        1.0  0.98294  0.58441  0.33527  1.0000
  C   C6        1.0  0.97325  0.55275  0.33531  1.0000
  N   N2        1.0  0.99053  0.53930  0.33973  1.0000
  C   C7        1.0  0.97344  0.50852  0.33618  1.0000
  C   C8        1.0  0.94320  0.50186  0.32931  1.0000
  C   C9        1.0  0.94308  0.52901  0.32903  1.0000
  C   C10       1.0  0.98341  0.48676  0.33707  1.0000
  C   C11       1.0  0.01461  0.49444  0.33852  1.0000
  N   N3        1.0  0.04032  0.52225  0.33872  1.0000
  C   C12       1.0  0.06623  0.52051  0.33760  1.0000
  C   C13       1.0  0.05638  0.48935  0.33833  1.0000
  C   C14       1.0  0.02485  0.47343  0.33912  1.0000
  C   C15       1.0  0.09729  0.54428  0.33514  1.0000
  C   C16       1.0  0.10699  0.57594  0.33536  1.0000
  N   N4        1.0  0.08971  0.58940  0.33982  1.0000
  C   C17       1.0  0.10680  0.62018  0.33638  1.0000
  C   C18       1.0  0.13704  0.62683  0.32952  1.0000
  C   C19       1.0  0.13716  0.59968  0.32908  1.0000
  C   C20       1.0  0.09683  0.64194  0.33714  1.0000
  C   C21       1.0  0.11994  0.67344  0.33104  1.0000
  C   C22       1.0  0.17132  0.73381  0.31124  1.0000
  C   C23       1.0  0.15181  0.71829  0.23725  1.0000
  C   C24       1.0  0.12673  0.68859  0.24666  1.0000
  C   C25       1.0  0.12057  0.53623  0.32673  1.0000
  C   C26       1.0  0.17232  0.52804  0.30471  1.0000
  C   C27       1.0  0.15464  0.52743  0.22942  1.0000
  C   C28       1.0  0.12932  0.53158  0.24003  1.0000
  C   C29       1.0  0.96031  0.45525  0.33087  1.0000
  C   C30       1.0  0.95361  0.44011  0.24649  1.0000
  C   C31       1.0  0.92858  0.41038  0.23702  1.0000
  C   C32       1.0  0.90908  0.39481  0.31099  1.0000
  C   C33       1.0  0.95965  0.59245  0.32695  1.0000
  C   C34       1.0  0.95100  0.59727  0.24036  1.0000
  C   C35       1.0  0.90782  0.60050  0.30509  1.0000
  C   C36       1.0  0.92563  0.60136  0.22982  1.0000
  H   H1        1.0  0.91985  0.60425  0.16562  1.0000
  H   H2        1.0  0.96260  0.59695  0.18393  1.0000
  H   H3        1.0  0.01054  0.64925  0.33770  1.0000
  H   H4        1.0  0.06846  0.67851  0.33908  1.0000
  H   H5        1.0  0.04003  0.58755  0.33727  1.0000
  H   H6        1.0  0.04022  0.54115  0.33674  1.0000
  H   H7        1.0  0.92389  0.53072  0.32297  1.0000
  H   H8        1.0  0.92410  0.48088  0.32341  1.0000
  H   H9        1.0  0.96643  0.45099  0.19057  1.0000
  H   H10       1.0  0.92428  0.40049  0.17422  1.0000
  H   H11       1.0  0.01178  0.45018  0.33926  1.0000
  H   H12       1.0  0.06970  0.47945  0.33781  1.0000
  H   H13       1.0  0.15614  0.64781  0.32337  1.0000
  H   H14       1.0  0.15635  0.59796  0.32284  1.0000
  H   H15       1.0  0.11779  0.53203  0.18362  1.0000
  H   H16       1.0  0.16047  0.52462  0.16516  1.0000
  H   H17       1.0  0.11390  0.67774  0.19074  1.0000
  H   H18       1.0  0.15617  0.72818  0.17444  1.0000
  C   C37       1.0  0.19771  0.52450  0.29070  1.0000
  C   C38       1.0  0.88387  0.36566  0.29777  1.0000
  C   C39       1.0  0.88235  0.60392  0.29114  1.0000
  C   C40       1.0  0.19661  0.76290  0.29805  1.0000
  H   H19       1.0  0.19995  0.51680  0.23098  1.0000
  H   H20       1.0  0.88264  0.35483  0.24044  1.0000
  H   H21       1.0  0.88014  0.61172  0.23158  1.0000
  H   H22       1.0  0.19787  0.77379  0.24082  1.0000
  C   C41       1.0  0.46464  0.47215  0.33848  1.0000
  C   C42       1.0  0.44872  0.48777  0.33928  1.0000
  C   C43       1.0  0.46974  0.51901  0.33852  1.0000
  N   N5        1.0  0.49755  0.52110  0.33868  1.0000
  C   C44       1.0  0.49580  0.49346  0.33766  1.0000
  C   C45       1.0  0.51957  0.48616  0.33516  1.0000
  C   C46       1.0  0.55123  0.50812  0.33512  1.0000
  N   N6        1.0  0.56469  0.53886  0.33956  1.0000
  C   C47       1.0  0.59547  0.55254  0.33594  1.0000
  C   C48       1.0  0.60212  0.52896  0.32898  1.0000
  C   C49       1.0  0.57497  0.50169  0.32863  1.0000
  C   C50       1.0  0.61724  0.58427  0.33683  1.0000
  C   C51       1.0  0.60956  0.60779  0.33838  1.0000
  N   N7        1.0  0.58175  0.60570  0.33859  1.0000
  C   C52       1.0  0.58350  0.63335  0.33755  1.0000
  C   C53       1.0  0.61466  0.65465  0.33823  1.0000
  C   C54       1.0  0.63057  0.63904  0.33905  1.0000
  C   C55       1.0  0.55973  0.64065  0.33518  1.0000
  C   C56       1.0  0.52807  0.61869  0.33510  1.0000
  N   N8        1.0  0.51461  0.58795  0.33953  1.0000
  C   C57       1.0  0.48383  0.57426  0.33597  1.0000
  C   C58       1.0  0.47718  0.59785  0.32906  1.0000
  C   C59       1.0  0.50433  0.62512  0.32873  1.0000
  C   C60       1.0  0.46206  0.54254  0.33690  1.0000
  C   C61       1.0  0.43056  0.53415  0.33080  1.0000
  C   C62       1.0  0.37018  0.52513  0.31113  1.0000
  C   C63       1.0  0.38569  0.52112  0.23711  1.0000
  C   C64       1.0  0.41538  0.52571  0.24649  1.0000
  C   C65       1.0  0.56779  0.67197  0.32670  1.0000
  C   C66       1.0  0.57598  0.73191  0.30460  1.0000
  C   C67       1.0  0.57658  0.71482  0.22933  1.0000
  C   C68       1.0  0.57240  0.68534  0.23998  1.0000
  C   C69       1.0  0.64874  0.59267  0.33066  1.0000
  C   C70       1.0  0.66392  0.60115  0.24634  1.0000
  C   C71       1.0  0.69365  0.60586  0.23696  1.0000
  C   C72       1.0  0.70920  0.60191  0.31095  1.0000
  C   C73       1.0  0.51152  0.45483  0.32684  1.0000
  C   C74       1.0  0.50670  0.44133  0.24025  1.0000
  C   C75       1.0  0.50352  0.39496  0.30494  1.0000
  C   C76       1.0  0.50264  0.41189  0.22969  1.0000
  H   H23       1.0  0.49973  0.40320  0.16548  1.0000
  H   H24       1.0  0.50700  0.45324  0.18383  1.0000
  H   H25       1.0  0.45473  0.44893  0.33795  1.0000
  H   H26       1.0  0.42548  0.47759  0.33927  1.0000
  H   H27       1.0  0.51644  0.54011  0.33655  1.0000
  H   H28       1.0  0.56285  0.58670  0.33687  1.0000
  H   H29       1.0  0.57325  0.48077  0.32267  1.0000
  H   H30       1.0  0.62310  0.53084  0.32305  1.0000
  H   H31       1.0  0.65307  0.60313  0.19044  1.0000
  H   H32       1.0  0.70359  0.61150  0.17422  1.0000
  H   H33       1.0  0.65382  0.64921  0.33902  1.0000
  H   H34       1.0  0.62456  0.67788  0.33772  1.0000
  H   H35       1.0  0.45620  0.59598  0.32330  1.0000
  H   H36       1.0  0.50606  0.64604  0.32295  1.0000
  H   H37       1.0  0.57194  0.67334  0.18357  1.0000
  H   H38       1.0  0.57935  0.72343  0.16506  1.0000
  H   H39       1.0  0.42623  0.52374  0.19053  1.0000
  H   H40       1.0  0.37578  0.51555  0.17435  1.0000
  C   C77       1.0  0.57952  0.76084  0.29058  1.0000
  C   C78       1.0  0.73836  0.60587  0.29781  1.0000
  C   C79       1.0  0.50011  0.36607  0.29098  1.0000
  C   C80       1.0  0.34110  0.52134  0.29797  1.0000
  H   H41       1.0  0.58721  0.77076  0.23084  1.0000
  H   H42       1.0  0.74922  0.61552  0.24056  1.0000
  H   H43       1.0  0.49233  0.35605  0.23140  1.0000
  H   H44       1.0  0.33020  0.51170  0.24076  1.0000
  C   C81       1.0  0.63185  0.08012  0.33811  1.0000
  C   C82       1.0  0.61624  0.04859  0.33892  1.0000
  C   C83       1.0  0.58500  0.03835  0.33833  1.0000
  N   N9        1.0  0.58290  0.06407  0.33854  1.0000
  C   C84       1.0  0.61054  0.08997  0.33752  1.0000
  C   C85       1.0  0.61784  0.12104  0.33525  1.0000
  C   C86       1.0  0.59588  0.13074  0.33528  1.0000
  N   N10       1.0  0.56513  0.11345  0.33965  1.0000
  C   C87       1.0  0.55144  0.13054  0.33617  1.0000
  C   C88       1.0  0.57502  0.16078  0.32930  1.0000
  C   C89       1.0  0.60230  0.16090  0.32893  1.0000
  C   C90       1.0  0.51971  0.12057  0.33699  1.0000
  C   C91       1.0  0.49619  0.08937  0.33831  1.0000
  N   N11       1.0  0.49829  0.06366  0.33851  1.0000
  C   C92       1.0  0.47065  0.03775  0.33734  1.0000
  C   C93       1.0  0.44934  0.04761  0.33782  1.0000
  C   C94       1.0  0.46494  0.07913  0.33866  1.0000
  C   C95       1.0  0.46335  0.00669  0.33504  1.0000
  C   C96       1.0  0.48531  0.99699  0.33503  1.0000
  N   N12       1.0  0.51606  0.01428  0.33938  1.0000
  C   C97       1.0  0.52975  0.99719  0.33592  1.0000
  C   C98       1.0  0.50616  0.96695  0.32912  1.0000
  C   C99       1.0  0.47889  0.96682  0.32882  1.0000
  C   C100      1.0  0.56148  0.00715  0.33685  1.0000
  C   C101      1.0  0.56987  0.98404  0.33071  1.0000
  C   C102      1.0  0.57890  0.93269  0.31103  1.0000
  C   C103      1.0  0.58286  0.95217  0.23699  1.0000
  C   C104      1.0  0.57825  0.97726  0.24636  1.0000
  C   C105      1.0  0.43203  0.98341  0.32655  1.0000
  C   C106      1.0  0.37209  0.93169  0.30460  1.0000
  C   C107      1.0  0.38917  0.94932  0.22927  1.0000
  C   C108      1.0  0.41865  0.97465  0.23985  1.0000
  C   C109      1.0  0.51131  0.14367  0.33073  1.0000
  C   C110      1.0  0.50292  0.15040  0.24633  1.0000
  C   C111      1.0  0.49820  0.17542  0.23687  1.0000
  C   C112      1.0  0.50211  0.19491  0.31086  1.0000
  C   C113      1.0  0.64916  0.14433  0.32688  1.0000
  C   C114      1.0  0.66264  0.15299  0.24027  1.0000
  C   C115      1.0  0.70904  0.19617  0.30497  1.0000
  C   C116      1.0  0.69209  0.17837  0.22971  1.0000
  H   H45       1.0  0.70078  0.18414  0.16551  1.0000
  H   H46       1.0  0.65072  0.14138  0.18386  1.0000
  H   H47       1.0  0.65507  0.09344  0.33766  1.0000
  H   H48       1.0  0.62642  0.03552  0.33889  1.0000
  H   H49       1.0  0.56389  0.06396  0.33691  1.0000
  H   H50       1.0  0.51730  0.06377  0.33725  1.0000
  H   H51       1.0  0.62321  0.18010  0.32303  1.0000
  H   H52       1.0  0.57315  0.17988  0.32345  1.0000
  H   H53       1.0  0.50097  0.13757  0.19042  1.0000
  H   H54       1.0  0.49263  0.17973  0.17407  1.0000
  H   H55       1.0  0.45477  0.09220  0.33866  1.0000
  H   H56       1.0  0.42612  0.03428  0.33722  1.0000
  H   H57       1.0  0.50803  0.94783  0.32359  1.0000
  H   H58       1.0  0.45797  0.94762  0.32318  1.0000
  H   H59       1.0  0.43066  0.98613  0.18341  1.0000
  H   H60       1.0  0.38056  0.94346  0.16501  1.0000
  H   H61       1.0  0.58022  0.99007  0.19041  1.0000
  H   H62       1.0  0.58843  0.94781  0.17421  1.0000
  C   C117      1.0  0.34314  0.90630  0.29064  1.0000
  C   C118      1.0  0.49817  0.22012  0.29766  1.0000
  C   C119      1.0  0.73793  0.22165  0.29101  1.0000
  C   C120      1.0  0.58272  0.90741  0.29790  1.0000
  H   H63       1.0  0.33320  0.90406  0.23093  1.0000
  H   H64       1.0  0.48858  0.22135  0.24033  1.0000
  H   H65       1.0  0.74794  0.22387  0.23143  1.0000
  H   H66       1.0  0.59239  0.90616  0.24072  1.0000
  C   C121      1.0  0.30060  0.52871  0.35474  1.0000
  C   C122      1.0  0.28848  0.53264  0.27295  1.0000
  C   C123      1.0  0.26092  0.53295  0.27130  1.0000
  H   H67       1.0  0.25348  0.53655  0.21062  1.0000
  H   H68       1.0  0.30009  0.53608  0.21337  1.0000
  N   N13       1.0  0.32765  0.52980  0.35563  1.0000
  C   C124      1.0  0.57536  0.85955  0.35463  1.0000
  C   C125      1.0  0.57141  0.84348  0.27284  1.0000
  C   C126      1.0  0.57109  0.81561  0.27119  1.0000
  H   H69       1.0  0.56750  0.80456  0.21050  1.0000
  H   H70       1.0  0.56798  0.85165  0.21326  1.0000
  N   N14       1.0  0.57424  0.88550  0.35553  1.0000
  C   C127      1.0  0.24446  0.80342  0.35477  1.0000
  C   C128      1.0  0.26053  0.81553  0.27297  1.0000
  C   C129      1.0  0.28840  0.84308  0.27130  1.0000
  H   H71       1.0  0.29944  0.85051  0.21061  1.0000
  H   H72       1.0  0.25237  0.80391  0.21341  1.0000
  N   N15       1.0  0.21851  0.77636  0.35569  1.0000
  C   C130      1.0  0.77907  0.59889  0.35476  1.0000
  C   C131      1.0  0.79128  0.59502  0.27302  1.0000
  C   C132      1.0  0.81894  0.59491  0.27147  1.0000
  H   H73       1.0  0.82645  0.59137  0.21083  1.0000
  H   H74       1.0  0.77968  0.59151  0.21341  1.0000
  N   N16       1.0  0.75192  0.59760  0.35558  1.0000
  C   C133      1.0  0.50513  0.26781  0.35462  1.0000
  C   C134      1.0  0.50902  0.28389  0.27289  1.0000
  C   C135      1.0  0.50912  0.31165  0.27133  1.0000
  H   H75       1.0  0.51266  0.32270  0.21069  1.0000
  H   H76       1.0  0.51252  0.27579  0.21328  1.0000
  N   N17       1.0  0.50641  0.24195  0.35546  1.0000
  C   C136      1.0  0.83617  0.32494  0.35470  1.0000
  C   C137      1.0  0.82011  0.31273  0.27295  1.0000
  C   C138      1.0  0.79234  0.28507  0.27138  1.0000
  H   H77       1.0  0.78131  0.27754  0.21072  1.0000
  H   H78       1.0  0.82822  0.32432  0.21333  1.0000
  N   N18       1.0  0.86203  0.35207  0.35555  1.0000
  C   C139      1.0  0.13893  0.68891  0.40569  1.0000
  C   C140      1.0  0.16419  0.71854  0.39588  1.0000
  C   C141      1.0  0.13782  0.53659  0.40247  1.0000
  C   C142      1.0  0.16321  0.53247  0.39161  1.0000
  C   C143      1.0  0.91613  0.41008  0.39564  1.0000
  C   C144      1.0  0.94131  0.43976  0.40549  1.0000
  C   C145      1.0  0.94230  0.59190  0.40269  1.0000
  C   C146      1.0  0.91686  0.59595  0.39192  1.0000
  H   H79       1.0  0.90468  0.59503  0.44831  1.0000
  H   H80       1.0  0.94760  0.58769  0.46599  1.0000
  H   H81       1.0  0.94517  0.45042  0.46697  1.0000
  H   H82       1.0  0.90268  0.39995  0.45098  1.0000
  H   H83       1.0  0.13245  0.54067  0.46585  1.0000
  H   H84       1.0  0.17528  0.53319  0.44804  1.0000
  H   H85       1.0  0.17766  0.72863  0.45121  1.0000
  H   H86       1.0  0.13506  0.67823  0.46715  1.0000
  C   C147      1.0  0.41512  0.53770  0.40550  1.0000
  C   C148      1.0  0.38547  0.53330  0.39574  1.0000
  C   C149      1.0  0.56745  0.68889  0.40242  1.0000
  C   C150      1.0  0.57158  0.71841  0.39154  1.0000
  C   C151      1.0  0.69390  0.59368  0.39555  1.0000
  C   C152      1.0  0.66421  0.58916  0.40533  1.0000
  C   C153      1.0  0.51212  0.43805  0.40255  1.0000
  C   C154      1.0  0.50808  0.40856  0.39177  1.0000
  H   H87       1.0  0.50901  0.39731  0.44816  1.0000
  H   H88       1.0  0.51632  0.44756  0.46585  1.0000
  H   H89       1.0  0.65352  0.58232  0.46676  1.0000
  H   H90       1.0  0.70400  0.59032  0.45089  1.0000
  H   H91       1.0  0.56340  0.67948  0.46582  1.0000
  H   H92       1.0  0.57088  0.72978  0.44796  1.0000
  H   H93       1.0  0.37540  0.53671  0.45108  1.0000
  H   H94       1.0  0.42581  0.54452  0.46693  1.0000
  C   C155      1.0  0.56636  0.96509  0.40544  1.0000
  C   C156      1.0  0.57076  0.93984  0.39567  1.0000
  C   C157      1.0  0.41511  0.96621  0.40233  1.0000
  C   C158      1.0  0.38559  0.94084  0.39152  1.0000
  C   C159      1.0  0.51029  0.18784  0.39553  1.0000
  C   C160      1.0  0.51479  0.16266  0.40536  1.0000
  C   C161      1.0  0.66596  0.16168  0.40262  1.0000
  C   C162      1.0  0.69544  0.18713  0.39181  1.0000
  H   H95       1.0  0.70671  0.19929  0.44821  1.0000
  H   H96       1.0  0.65645  0.15638  0.46592  1.0000
  H   H97       1.0  0.52157  0.15880  0.46687  1.0000
  H   H98       1.0  0.51361  0.20130  0.45086  1.0000
  H   H99       1.0  0.42453  0.97161  0.46573  1.0000
  H   H100      1.0  0.37422  0.92880  0.44797  1.0000
  H   H101      1.0  0.56740  0.92640  0.45105  1.0000
  H   H102      1.0  0.55957  0.96898  0.46690  1.0000
  C   C163      1.0  0.24426  0.52943  0.35153  1.0000
  C   C164      1.0  0.25633  0.52614  0.43517  1.0000
  C   C165      1.0  0.28448  0.52575  0.43673  1.0000
  C   C166      1.0  0.29478  0.52218  0.52292  1.0000
  N   N19       1.0  0.27858  0.51944  0.59866  1.0000
  C   C167      1.0  0.25223  0.51998  0.59575  1.0000
  O   O1        1.0  0.32058  0.52097  0.53584  1.0000
  N   N20       1.0  0.24131  0.52323  0.51522  1.0000
  H   H103      1.0  0.24067  0.51780  0.65466  1.0000
  H   H104      1.0  0.22215  0.52336  0.51655  1.0000
  N   N21       1.0  0.21842  0.53073  0.35103  1.0000
  C   C168      1.0  0.57461  0.80249  0.35141  1.0000
  C   C169      1.0  0.57790  0.81785  0.43506  1.0000
  C   C170      1.0  0.57829  0.84639  0.43662  1.0000
  C   C171      1.0  0.58185  0.86026  0.52282  1.0000
  N   N22       1.0  0.58458  0.84682  0.59856  1.0000
  C   C172      1.0  0.58403  0.81992  0.59565  1.0000
  O   O2        1.0  0.58307  0.88729  0.53574  1.0000
  N   N23       1.0  0.58079  0.80575  0.51511  1.0000
  H   H105      1.0  0.58619  0.81054  0.65456  1.0000
  H   H106      1.0  0.58065  0.78645  0.51644  1.0000
  N   N24       1.0  0.57331  0.77534  0.35090  1.0000
  C   C173      1.0  0.30151  0.85976  0.35150  1.0000
  C   C174      1.0  0.28616  0.84769  0.43516  1.0000
  C   C175      1.0  0.25762  0.81955  0.43675  1.0000
  C   C176      1.0  0.24375  0.80925  0.52295  1.0000
  N   N25       1.0  0.25720  0.82544  0.59868  1.0000
  C   C177      1.0  0.28409  0.85180  0.59574  1.0000
  O   O3        1.0  0.21674  0.78344  0.53590  1.0000
  N   N26       1.0  0.29826  0.86271  0.51520  1.0000
  H   H107      1.0  0.29348  0.86335  0.65465  1.0000
  H   H108      1.0  0.31755  0.88187  0.51651  1.0000
  N   N27       1.0  0.32866  0.88560  0.35097  1.0000
  C   C178      1.0  0.83561  0.59858  0.35174  1.0000
  C   C179      1.0  0.82343  0.60176  0.43534  1.0000
  C   C180      1.0  0.79518  0.60195  0.43680  1.0000
  C   C181      1.0  0.78478  0.60543  0.52295  1.0000
  N   N28       1.0  0.80098  0.60828  0.59875  1.0000
  C   C182      1.0  0.82743  0.60793  0.59593  1.0000
  O   O4        1.0  0.75887  0.60645  0.53579  1.0000
  N   N29       1.0  0.83844  0.60477  0.51543  1.0000
  H   H109      1.0  0.83899  0.61017  0.65488  1.0000
  H   H110      1.0  0.85768  0.60477  0.51683  1.0000
  N   N30       1.0  0.86153  0.59743  0.35131  1.0000
  C   C183      1.0  0.50544  0.32467  0.35159  1.0000
  C   C184      1.0  0.50225  0.30932  0.43519  1.0000
  C   C185      1.0  0.50206  0.28088  0.43666  1.0000
  C   C186      1.0  0.49855  0.26700  0.52280  1.0000
  N   N31       1.0  0.49570  0.28037  0.59859  1.0000
  C   C187      1.0  0.49606  0.30717  0.59577  1.0000
  O   O5        1.0  0.49752  0.24007  0.53565  1.0000
  N   N32       1.0  0.49923  0.32134  0.51528  1.0000
  H   H111      1.0  0.49380  0.31649  0.65471  1.0000
  H   H112      1.0  0.49923  0.34056  0.51667  1.0000
  N   N33       1.0  0.50658  0.35174  0.35116  1.0000
  C   C188      1.0  0.77933  0.26839  0.35164  1.0000
  C   C189      1.0  0.79466  0.28056  0.43525  1.0000
  C   C190      1.0  0.82310  0.30881  0.43673  1.0000
  C   C191      1.0  0.83696  0.31920  0.52289  1.0000
  N   N34       1.0  0.82360  0.30300  0.59868  1.0000
  C   C192      1.0  0.79680  0.27655  0.59584  1.0000
  O   O6        1.0  0.86389  0.34511  0.53576  1.0000
  N   N35       1.0  0.78264  0.26554  0.51533  1.0000
  H   H113      1.0  0.78747  0.26498  0.65478  1.0000
  H   H114      1.0  0.76342  0.24630  0.51671  1.0000
  N   N36       1.0  0.75226  0.24245  0.35120  1.0000
