data_image0
_chemical_formula_structural       C3N2O4CHC3N2O4CHC3H2CHC3H2CHC3N2O4CHC3N2O4CHC3H2CHC3H2CHC3N2O4CHC3N2O4CHC3N2O4CHC3N2O4CHC3H2CHC3H2CHC3N2O4CHC3N2O4CHC3H2CHC3H2CHC3N2O4CHC3N2O4CHC3H2CHC3H2CHC3N2O4CHC3N2O4CHC6H3N3C6H3N3C6H3N3C6H3N3C6H3N3C6H3N3C6H3N3C6H3N3C6H3N3C6H3N3C6H3N3C6H3N3C6H3N3C6H3N3C6H3N3C6H3N3C3H2CHC3H2CHC3N2O4CHC3N2O4CHC3H2CHC3H2CHC3N2O4CHC3N2O4CHC3H2CHC3H2CHC3H2CHC3H2CHC3N2O4CHC3N2O4CHC3H2CHC3H2CHC3N2O4CHC3N2O4CHC3H2CHC3H2CHC3N2O4CHC3N2O4CHC3H2CHC3H2CH
_chemical_formula_sum              "C288 N96 O96 H144"
_cell_length_a       67.8791
_cell_length_b       53.2276
_cell_length_c       14.6784
_cell_angle_alpha    90
_cell_angle_beta     90
_cell_angle_gamma    90

_space_group_name_H-M_alt    "P 1"
_space_group_IT_number       1

loop_
  _space_group_symop_operation_xyz
  'x, y, z'

loop_
  _atom_site_type_symbol
  _atom_site_label
  _atom_site_symmetry_multiplicity
  _atom_site_fract_x
  _atom_site_fract_y
  _atom_site_fract_z
  _atom_site_occupancy
  C   C1        1.0  0.00877  0.98264  0.34700  1.0000
  C   C2        1.0  0.00461  0.99905  0.27254  1.0000
  C   C3        1.0  0.00794  0.02570  0.27975  1.0000
  N   N1        1.0  0.99746  0.98733  0.19225  1.0000
  N   N2        1.0  0.00461  0.04272  0.20706  1.0000
  O   O1        1.0  0.00892  0.98904  0.12550  1.0000
  O   O2        1.0  0.98693  0.04412  0.18278  1.0000
  O   O3        1.0  0.98032  0.99382  0.17080  1.0000
  O   O4        1.0  0.01566  0.03924  0.13977  1.0000
  C   C4        1.0  0.00338  0.95702  0.34527  1.0000
  H   H1        1.0  0.98950  0.95327  0.32883  1.0000
  C   C5        1.0  0.50875  0.48267  0.34701  1.0000
  C   C6        1.0  0.50463  0.49907  0.27247  1.0000
  C   C7        1.0  0.50798  0.52572  0.27972  1.0000
  N   N3        1.0  0.49753  0.48735  0.19211  1.0000
  N   N4        1.0  0.50470  0.54273  0.20697  1.0000
  O   O5        1.0  0.50902  0.48905  0.12549  1.0000
  O   O6        1.0  0.48703  0.54414  0.18246  1.0000
  O   O7        1.0  0.48040  0.49385  0.17045  1.0000
  O   O8        1.0  0.51579  0.53924  0.13982  1.0000
  C   C8        1.0  0.50336  0.45706  0.34523  1.0000
  H   H2        1.0  0.48949  0.45331  0.32855  1.0000
  C   C9        1.0  0.07150  0.19018  0.34530  1.0000
  C   C10       1.0  0.08119  0.20142  0.27012  1.0000
  C   C11       1.0  0.09773  0.21712  0.28124  1.0000
  H   H3        1.0  0.10335  0.22597  0.22505  1.0000
  H   H4        1.0  0.07560  0.19931  0.20580  1.0000
  C   C12       1.0  0.05306  0.17869  0.32980  1.0000
  H   H5        1.0  0.04395  0.18760  0.28763  1.0000
  C   C13       1.0  0.94974  0.83108  0.33959  1.0000
  C   C14       1.0  0.93986  0.81993  0.26479  1.0000
  C   C15       1.0  0.92323  0.80441  0.27659  1.0000
  H   H6        1.0  0.91746  0.79560  0.22068  1.0000
  H   H7        1.0  0.94536  0.82195  0.20029  1.0000
  C   C16       1.0  0.96830  0.84221  0.32359  1.0000
  H   H8        1.0  0.97723  0.83313  0.28109  1.0000
  C   C17       1.0  0.91707  0.22420  0.34519  1.0000
  C   C18       1.0  0.92522  0.21131  0.26863  1.0000
  C   C19       1.0  0.94207  0.19530  0.27893  1.0000
  N   N5        1.0  0.91748  0.21422  0.17943  1.0000
  N   N6        1.0  0.95098  0.18320  0.20333  1.0000
  O   O9        1.0  0.89967  0.20793  0.17498  1.0000
  O   O10       1.0  0.95737  0.19858  0.14552  1.0000
  O   O11       1.0  0.91953  0.23615  0.14920  1.0000
  O   O12       1.0  0.93943  0.16800  0.16538  1.0000
  C   C20       1.0  0.90392  0.24425  0.33485  1.0000
  H   H9        1.0  0.90954  0.25974  0.30751  1.0000
  C   C21       1.0  0.10684  0.79940  0.34893  1.0000
  C   C22       1.0  0.09537  0.80590  0.27082  1.0000
  C   C23       1.0  0.08073  0.82524  0.27596  1.0000
  N   N7        1.0  0.09799  0.79395  0.18524  1.0000
  N   N8        1.0  0.06935  0.83248  0.19923  1.0000
  O   O13       1.0  0.11520  0.79664  0.15521  1.0000
  O   O14       1.0  0.05897  0.81474  0.16947  1.0000
  O   O15       1.0  0.09366  0.77102  0.18725  1.0000
  O   O16       1.0  0.07986  0.84108  0.13606  1.0000
  C   C24       1.0  0.11882  0.77803  0.35078  1.0000
  H   H10       1.0  0.11178  0.76172  0.35202  1.0000
  C   C25       1.0  0.57149  0.69008  0.34519  1.0000
  C   C26       1.0  0.58115  0.70150  0.27027  1.0000
  C   C27       1.0  0.59772  0.71713  0.28171  1.0000
  H   H11       1.0  0.60332  0.72610  0.22576  1.0000
  H   H12       1.0  0.57552  0.69956  0.20595  1.0000
  C   C28       1.0  0.55306  0.67861  0.32955  1.0000
  H   H13       1.0  0.54395  0.68752  0.28736  1.0000
  C   C29       1.0  0.44973  0.33120  0.33932  1.0000
  C   C30       1.0  0.43990  0.31986  0.26478  1.0000
  C   C31       1.0  0.42324  0.30441  0.27688  1.0000
  H   H14       1.0  0.41749  0.29546  0.22119  1.0000
  H   H15       1.0  0.44545  0.32169  0.20029  1.0000
  C   C32       1.0  0.46829  0.34231  0.32321  1.0000
  H   H16       1.0  0.47722  0.33322  0.28077  1.0000
  C   C33       1.0  0.41705  0.72402  0.34466  1.0000
  C   C34       1.0  0.42516  0.71088  0.26853  1.0000
  C   C35       1.0  0.44202  0.69494  0.27924  1.0000
  N   N9        1.0  0.41733  0.71344  0.17934  1.0000
  N   N10       1.0  0.45088  0.68260  0.20399  1.0000
  O   O17       1.0  0.39951  0.70715  0.17554  1.0000
  O   O18       1.0  0.45722  0.69781  0.14542  1.0000
  O   O19       1.0  0.41938  0.73523  0.14786  1.0000
  O   O20       1.0  0.43932  0.66726  0.16689  1.0000
  C   C36       1.0  0.40382  0.74394  0.33360  1.0000
  H   H17       1.0  0.40921  0.75912  0.30316  1.0000
  C   C37       1.0  0.60675  0.29949  0.34847  1.0000
  C   C38       1.0  0.59531  0.30618  0.27047  1.0000
  C   C39       1.0  0.58068  0.32551  0.27611  1.0000
  N   N11       1.0  0.59796  0.29446  0.18449  1.0000
  N   N12       1.0  0.56932  0.33294  0.19954  1.0000
  O   O21       1.0  0.61519  0.29717  0.15473  1.0000
  O   O22       1.0  0.55894  0.31527  0.16920  1.0000
  O   O23       1.0  0.59357  0.27154  0.18552  1.0000
  O   O24       1.0  0.57985  0.34167  0.13668  1.0000
  C   C40       1.0  0.61874  0.27812  0.34955  1.0000
  H   H18       1.0  0.61170  0.26181  0.34777  1.0000
  C   C41       1.0  0.38131  0.15223  0.34136  1.0000
  C   C42       1.0  0.38501  0.13565  0.26714  1.0000
  C   C43       1.0  0.39020  0.10991  0.28371  1.0000
  N   N13       1.0  0.38336  0.14620  0.17865  1.0000
  N   N14       1.0  0.39508  0.09284  0.21303  1.0000
  O   O25       1.0  0.36976  0.13683  0.13186  1.0000
  O   O26       1.0  0.38110  0.08830  0.15965  1.0000
  O   O27       1.0  0.39921  0.14669  0.13487  1.0000
  O   O28       1.0  0.41035  0.09866  0.16982  1.0000
  C   C44       1.0  0.37927  0.17809  0.32837  1.0000
  H   H19       1.0  0.38900  0.18663  0.28826  1.0000
  C   C45       1.0  0.64004  0.86960  0.34451  1.0000
  C   C46       1.0  0.63633  0.88619  0.27034  1.0000
  C   C47       1.0  0.63139  0.91201  0.28699  1.0000
  N   N15       1.0  0.63774  0.87559  0.18184  1.0000
  N   N16       1.0  0.62652  0.92911  0.21641  1.0000
  O   O29       1.0  0.65133  0.88478  0.13450  1.0000
  O   O30       1.0  0.64042  0.93346  0.16242  1.0000
  O   O31       1.0  0.62180  0.87530  0.13867  1.0000
  O   O32       1.0  0.61111  0.92348  0.17389  1.0000
  C   C48       1.0  0.64194  0.84371  0.33154  1.0000
  H   H20       1.0  0.63212  0.83523  0.29173  1.0000
  C   C49       1.0  0.62990  0.09987  0.34316  1.0000
  C   C50       1.0  0.63381  0.11571  0.26786  1.0000
  C   C51       1.0  0.63929  0.14098  0.27974  1.0000
  H   H21       1.0  0.64088  0.15205  0.22320  1.0000
  H   H22       1.0  0.63165  0.10935  0.20279  1.0000
  C   C52       1.0  0.62042  0.07708  0.32563  1.0000
  H   H23       1.0  0.60873  0.07782  0.28475  1.0000
  C   C53       1.0  0.39230  0.92221  0.34261  1.0000
  C   C54       1.0  0.38829  0.90629  0.26764  1.0000
  C   C55       1.0  0.38295  0.88099  0.27994  1.0000
  H   H24       1.0  0.38137  0.86986  0.22357  1.0000
  H   H25       1.0  0.39034  0.91260  0.20243  1.0000
  C   C56       1.0  0.40167  0.94502  0.32440  1.0000
  H   H26       1.0  0.41316  0.94435  0.28230  1.0000
  C   C57       1.0  0.88108  0.65213  0.33946  1.0000
  C   C58       1.0  0.88497  0.63555  0.26542  1.0000
  C   C59       1.0  0.89024  0.60985  0.28224  1.0000
  N   N17       1.0  0.88341  0.64605  0.17681  1.0000
  N   N18       1.0  0.89526  0.59277  0.21179  1.0000
  O   O33       1.0  0.86993  0.63657  0.12958  1.0000
  O   O34       1.0  0.88136  0.58811  0.15809  1.0000
  O   O35       1.0  0.89934  0.64662  0.13359  1.0000
  O   O36       1.0  0.91057  0.59865  0.16894  1.0000
  C   C60       1.0  0.87890  0.67798  0.32630  1.0000
  H   H27       1.0  0.88847  0.68653  0.28540  1.0000
  C   C61       1.0  0.14028  0.36969  0.34263  1.0000
  C   C62       1.0  0.13638  0.38629  0.26867  1.0000
  C   C63       1.0  0.13135  0.41207  0.28558  1.0000
  N   N19       1.0  0.13769  0.37574  0.18005  1.0000
  N   N20       1.0  0.12633  0.42918  0.21525  1.0000
  O   O37       1.0  0.15116  0.38503  0.13228  1.0000
  O   O38       1.0  0.14016  0.43364  0.16092  1.0000
  O   O39       1.0  0.12168  0.37537  0.13744  1.0000
  O   O40       1.0  0.11089  0.42349  0.17309  1.0000
  C   C64       1.0  0.14231  0.34382  0.32948  1.0000
  H   H28       1.0  0.13265  0.33532  0.28889  1.0000
  C   C65       1.0  0.12992  0.59986  0.34456  1.0000
  C   C66       1.0  0.13397  0.61572  0.26948  1.0000
  C   C67       1.0  0.13952  0.64095  0.28168  1.0000
  H   H29       1.0  0.14123  0.65203  0.22525  1.0000
  H   H30       1.0  0.13188  0.60940  0.20431  1.0000
  C   C68       1.0  0.12042  0.57712  0.32666  1.0000
  H   H31       1.0  0.10873  0.57792  0.28579  1.0000
  C   C69       1.0  0.89224  0.42221  0.34395  1.0000
  C   C70       1.0  0.88808  0.40628  0.26918  1.0000
  C   C71       1.0  0.88265  0.38102  0.28179  1.0000
  H   H32       1.0  0.88094  0.36989  0.22551  1.0000
  H   H33       1.0  0.89006  0.41255  0.20389  1.0000
  C   C72       1.0  0.90164  0.44497  0.32538  1.0000
  H   H34       1.0  0.91313  0.44422  0.28328  1.0000
  C   C73       1.0  0.53170  0.01654  0.33586  1.0000
  C   C74       1.0  0.51955  0.01652  0.25705  1.0000
  C   C75       1.0  0.49904  0.01122  0.26503  1.0000
  N   N21       1.0  0.52865  0.02148  0.17175  1.0000
  N   N22       1.0  0.48795  0.01087  0.18314  1.0000
  O   O41       1.0  0.52742  0.00313  0.11819  1.0000
  O   O42       1.0  0.47550  0.02828  0.17943  1.0000
  O   O43       1.0  0.52179  0.04081  0.13428  1.0000
  O   O44       1.0  0.47976  0.99008  0.16877  1.0000
  C   C76       1.0  0.55145  0.02281  0.33057  1.0000
  H   H35       1.0  0.55506  0.03904  0.30152  1.0000
  C   C77       1.0  0.03169  0.51657  0.33604  1.0000
  C   C78       1.0  0.01956  0.51652  0.25719  1.0000
  C   C79       1.0  0.99905  0.51119  0.26511  1.0000
  N   N23       1.0  0.02866  0.52148  0.17191  1.0000
  N   N24       1.0  0.98797  0.51083  0.18319  1.0000
  O   O45       1.0  0.02745  0.50313  0.11836  1.0000
  O   O46       1.0  0.97551  0.52823  0.17943  1.0000
  O   O47       1.0  0.02178  0.54080  0.13440  1.0000
  O   O48       1.0  0.97979  0.49003  0.16881  1.0000
  C   C80       1.0  0.05144  0.52285  0.33081  1.0000
  H   H36       1.0  0.05505  0.53907  0.30173  1.0000
  C   C81       1.0  0.24014  0.26773  0.34972  1.0000
  C   C82       1.0  0.25367  0.26958  0.27659  1.0000
  C   C83       1.0  0.27360  0.26274  0.28644  1.0000
  H   H37       1.0  0.28261  0.26370  0.23066  1.0000
  H   H38       1.0  0.24905  0.27584  0.21422  1.0000
  C   C84       1.0  0.22090  0.27684  0.33640  1.0000
  H   H39       1.0  0.21960  0.29305  0.30323  1.0000
  C   C85       1.0  0.78094  0.75384  0.34925  1.0000
  C   C86       1.0  0.76731  0.75195  0.27653  1.0000
  C   C87       1.0  0.74738  0.75879  0.28693  1.0000
  H   H40       1.0  0.73831  0.75784  0.23139  1.0000
  H   H41       1.0  0.77185  0.74569  0.21405  1.0000
  C   C88       1.0  0.80016  0.74471  0.33545  1.0000
  H   H42       1.0  0.80141  0.72847  0.30248  1.0000
  C   C89       1.0  0.74112  0.25365  0.33563  1.0000
  C   C90       1.0  0.75443  0.25204  0.26068  1.0000
  C   C91       1.0  0.77469  0.25936  0.27078  1.0000
  N   N25       1.0  0.74636  0.24327  0.17733  1.0000
  N   N26       1.0  0.78841  0.25911  0.19794  1.0000
  O   O49       1.0  0.74632  0.25932  0.11480  1.0000
  O   O50       1.0  0.79179  0.23761  0.16664  1.0000
  O   O51       1.0  0.75358  0.22288  0.15050  1.0000
  O   O52       1.0  0.78435  0.27425  0.13523  1.0000
  C   C92       1.0  0.72201  0.24371  0.33032  1.0000
  H   H43       1.0  0.72093  0.22655  0.30424  1.0000
  C   C93       1.0  0.28197  0.76770  0.33491  1.0000
  C   C94       1.0  0.26858  0.76943  0.26027  1.0000
  C   C95       1.0  0.24833  0.76210  0.27070  1.0000
  N   N27       1.0  0.27655  0.77832  0.17688  1.0000
  N   N28       1.0  0.23453  0.76252  0.19818  1.0000
  O   O53       1.0  0.27653  0.76236  0.11405  1.0000
  O   O54       1.0  0.23111  0.78408  0.16759  1.0000
  O   O55       1.0  0.26931  0.79875  0.15061  1.0000
  O   O56       1.0  0.23850  0.74750  0.13495  1.0000
  C   C96       1.0  0.30108  0.77763  0.32924  1.0000
  H   H44       1.0  0.30217  0.79468  0.30220  1.0000
  C   C97       1.0  0.02927  0.14615  0.35883  1.0000
  C   C98       1.0  0.02846  0.11949  0.35966  1.0000
  C   C99       1.0  0.01036  0.10612  0.35292  1.0000
  C   C100      1.0  0.99277  0.12044  0.34629  1.0000
  C   C101      1.0  0.99270  0.14707  0.34964  1.0000
  C   C102      1.0  0.01117  0.15948  0.35507  1.0000
  H   H45       1.0  0.97958  0.11121  0.34072  1.0000
  H   H46       1.0  0.01145  0.17868  0.35603  1.0000
  H   H47       1.0  0.04138  0.10965  0.36281  1.0000
  N   N29       1.0  0.04686  0.15799  0.36626  1.0000
  N   N30       1.0  0.00879  0.08074  0.34902  1.0000
  N   N31       1.0  0.97534  0.15948  0.34344  1.0000
  C   C103      1.0  0.99281  0.87373  0.35435  1.0000
  C   C104      1.0  0.99437  0.90031  0.35837  1.0000
  C   C105      1.0  0.01289  0.91291  0.35633  1.0000
  C   C106      1.0  0.03013  0.89780  0.35338  1.0000
  C   C107      1.0  0.02932  0.87113  0.35100  1.0000
  C   C108      1.0  0.01052  0.85963  0.35089  1.0000
  H   H48       1.0  0.04360  0.90643  0.35194  1.0000
  H   H49       1.0  0.00974  0.84042  0.35090  1.0000
  H   H50       1.0  0.98171  0.91062  0.36284  1.0000
  N   N32       1.0  0.97495  0.86255  0.36104  1.0000
  N   N33       1.0  0.01521  0.93827  0.35810  1.0000
  N   N34       1.0  0.04507  0.85571  0.34716  1.0000
  C   C109      1.0  0.52927  0.64610  0.35874  1.0000
  C   C110      1.0  0.52846  0.61944  0.35958  1.0000
  C   C111      1.0  0.51035  0.60608  0.35302  1.0000
  C   C112      1.0  0.49276  0.62039  0.34655  1.0000
  C   C113      1.0  0.49270  0.64702  0.34993  1.0000
  C   C114      1.0  0.51117  0.65943  0.35518  1.0000
  H   H51       1.0  0.47957  0.61117  0.34108  1.0000
  H   H52       1.0  0.51145  0.67863  0.35613  1.0000
  H   H53       1.0  0.54138  0.60960  0.36261  1.0000
  N   N35       1.0  0.54685  0.65793  0.36607  1.0000
  N   N36       1.0  0.50878  0.58071  0.34912  1.0000
  N   N37       1.0  0.47535  0.65943  0.34380  1.0000
  C   C115      1.0  0.49279  0.37381  0.35412  1.0000
  C   C116      1.0  0.49435  0.40038  0.35827  1.0000
  C   C117      1.0  0.51287  0.41298  0.35645  1.0000
  C   C118      1.0  0.53012  0.39788  0.35365  1.0000
  C   C119      1.0  0.52929  0.37121  0.35120  1.0000
  C   C120      1.0  0.51051  0.35971  0.35079  1.0000
  H   H54       1.0  0.54358  0.40650  0.35233  1.0000
  H   H55       1.0  0.50972  0.34049  0.35070  1.0000
  H   H56       1.0  0.48169  0.41070  0.36266  1.0000
  N   N38       1.0  0.47493  0.36264  0.36068  1.0000
  N   N39       1.0  0.51519  0.43833  0.35827  1.0000
  N   N40       1.0  0.54504  0.35580  0.34731  1.0000
  C   C121      1.0  0.43768  0.01284  0.35176  1.0000
  C   C122      1.0  0.42655  0.03520  0.35068  1.0000
  C   C123      1.0  0.40570  0.03482  0.35519  1.0000
  C   C124      1.0  0.39601  0.01123  0.35682  1.0000
  C   C125      1.0  0.40673  0.98839  0.35493  1.0000
  C   C126      1.0  0.42757  0.98963  0.35410  1.0000
  H   H57       1.0  0.38095  0.01067  0.35984  1.0000
  H   H58       1.0  0.43549  0.97332  0.35511  1.0000
  H   H59       1.0  0.43375  0.05209  0.34742  1.0000
  N   N41       1.0  0.45722  0.01492  0.34706  1.0000
  N   N42       1.0  0.39512  0.05612  0.35568  1.0000
  N   N43       1.0  0.39734  0.96626  0.36193  1.0000
  C   C127      1.0  0.58447  0.00933  0.35538  1.0000
  C   C128      1.0  0.59554  0.98692  0.35581  1.0000
  C   C129      1.0  0.61640  0.98725  0.35760  1.0000
  C   C130      1.0  0.62614  0.01081  0.35691  1.0000
  C   C131      1.0  0.61547  0.03369  0.35601  1.0000
  C   C132      1.0  0.59463  0.03251  0.35749  1.0000
  H   H60       1.0  0.64121  0.01132  0.35846  1.0000
  H   H61       1.0  0.58672  0.04880  0.36220  1.0000
  H   H62       1.0  0.58827  0.97005  0.35469  1.0000
  N   N44       1.0  0.56490  0.00738  0.35661  1.0000
  N   N45       1.0  0.62693  0.96590  0.35805  1.0000
  N   N46       1.0  0.62491  0.05580  0.36243  1.0000
  C   C133      1.0  0.93768  0.51280  0.35171  1.0000
  C   C134      1.0  0.92655  0.53517  0.35029  1.0000
  C   C135      1.0  0.90570  0.53480  0.35478  1.0000
  C   C136      1.0  0.89602  0.51122  0.35675  1.0000
  C   C137      1.0  0.90672  0.48837  0.35524  1.0000
  C   C138      1.0  0.92756  0.48960  0.35440  1.0000
  H   H63       1.0  0.88095  0.51067  0.35979  1.0000
  H   H64       1.0  0.93548  0.47328  0.35567  1.0000
  H   H65       1.0  0.93376  0.55205  0.34678  1.0000
  N   N47       1.0  0.95722  0.51487  0.34703  1.0000
  N   N48       1.0  0.89513  0.55610  0.35494  1.0000
  N   N49       1.0  0.89733  0.46625  0.36258  1.0000
  C   C139      1.0  0.08446  0.50934  0.35540  1.0000
  C   C140      1.0  0.09552  0.48693  0.35547  1.0000
  C   C141      1.0  0.11639  0.48725  0.35722  1.0000
  C   C142      1.0  0.12612  0.51082  0.35689  1.0000
  C   C143      1.0  0.11545  0.53370  0.35637  1.0000
  C   C144      1.0  0.09462  0.53252  0.35786  1.0000
  H   H66       1.0  0.14120  0.51133  0.35843  1.0000
  H   H67       1.0  0.08671  0.54880  0.36284  1.0000
  H   H68       1.0  0.08825  0.47007  0.35412  1.0000
  N   N50       1.0  0.06488  0.50740  0.35669  1.0000
  N   N51       1.0  0.12692  0.46591  0.35734  1.0000
  N   N52       1.0  0.12490  0.55580  0.36313  1.0000
  C   C145      1.0  0.16027  0.30612  0.36002  1.0000
  C   C146      1.0  0.18022  0.29868  0.36361  1.0000
  C   C147      1.0  0.18591  0.27308  0.35896  1.0000
  C   C148      1.0  0.17075  0.25470  0.35513  1.0000
  C   C149      1.0  0.15046  0.26126  0.35398  1.0000
  C   C150      1.0  0.14561  0.28721  0.35521  1.0000
  H   H69       1.0  0.17458  0.23610  0.35368  1.0000
  H   H70       1.0  0.13114  0.29248  0.35346  1.0000
  H   H71       1.0  0.19081  0.31226  0.36977  1.0000
  N   N53       1.0  0.15626  0.33074  0.36544  1.0000
  N   N54       1.0  0.20496  0.26588  0.36418  1.0000
  N   N55       1.0  0.13664  0.24296  0.34857  1.0000
  C   C151      1.0  0.86087  0.71557  0.35723  1.0000
  C   C152      1.0  0.84091  0.72296  0.36146  1.0000
  C   C153      1.0  0.83518  0.74855  0.35686  1.0000
  C   C154      1.0  0.85030  0.76697  0.35232  1.0000
  C   C155      1.0  0.87060  0.76045  0.35059  1.0000
  C   C156      1.0  0.87549  0.73452  0.35190  1.0000
  H   H72       1.0  0.84645  0.78556  0.35081  1.0000
  H   H73       1.0  0.88997  0.72930  0.34970  1.0000
  H   H74       1.0  0.83035  0.70936  0.36804  1.0000
  N   N56       1.0  0.86495  0.69097  0.36269  1.0000
  N   N57       1.0  0.81613  0.75572  0.36257  1.0000
  N   N58       1.0  0.88441  0.77874  0.34449  1.0000
  C   C157      1.0  0.86146  0.30715  0.34788  1.0000
  C   C158      1.0  0.84157  0.29950  0.34387  1.0000
  C   C159      1.0  0.83606  0.27382  0.34754  1.0000
  C   C160      1.0  0.85135  0.25560  0.35081  1.0000
  C   C161      1.0  0.87160  0.26236  0.35261  1.0000
  C   C162      1.0  0.87623  0.28838  0.35226  1.0000
  H   H75       1.0  0.84764  0.23696  0.35162  1.0000
  H   H76       1.0  0.89064  0.29386  0.35452  1.0000
  H   H77       1.0  0.83088  0.31298  0.33823  1.0000
  N   N59       1.0  0.86533  0.33183  0.34389  1.0000
  N   N60       1.0  0.81706  0.26641  0.34216  1.0000
  N   N61       1.0  0.88549  0.24413  0.35759  1.0000
  C   C163      1.0  0.16144  0.71462  0.34829  1.0000
  C   C164      1.0  0.18139  0.72207  0.34566  1.0000
  C   C165      1.0  0.18702  0.74772  0.34753  1.0000
  C   C166      1.0  0.17182  0.76607  0.34830  1.0000
  C   C167      1.0  0.15152  0.75953  0.34996  1.0000
  C   C168      1.0  0.14675  0.73355  0.34996  1.0000
  H   H78       1.0  0.17565  0.78467  0.34741  1.0000
  H   H79       1.0  0.13234  0.72811  0.34891  1.0000
  H   H80       1.0  0.19201  0.70847  0.34146  1.0000
  N   N62       1.0  0.15744  0.68997  0.34438  1.0000
  N   N63       1.0  0.20605  0.75496  0.34214  1.0000
  N   N64       1.0  0.13789  0.77816  0.34966  1.0000
  C   C169      1.0  0.66005  0.80604  0.36046  1.0000
  C   C170      1.0  0.68003  0.79870  0.36068  1.0000
  C   C171      1.0  0.68583  0.77311  0.35564  1.0000
  C   C172      1.0  0.67067  0.75475  0.35033  1.0000
  C   C173      1.0  0.65036  0.76119  0.35273  1.0000
  C   C174      1.0  0.64543  0.78708  0.35699  1.0000
  H   H81       1.0  0.67452  0.73618  0.34597  1.0000
  H   H82       1.0  0.63094  0.79229  0.35714  1.0000
  H   H83       1.0  0.69053  0.81248  0.36212  1.0000
  N   N65       1.0  0.65605  0.83066  0.36623  1.0000
  N   N66       1.0  0.70492  0.76575  0.35299  1.0000
  N   N67       1.0  0.63655  0.74290  0.34693  1.0000
  C   C175      1.0  0.36108  0.21566  0.35769  1.0000
  C   C176      1.0  0.34109  0.22295  0.35856  1.0000
  C   C177      1.0  0.33525  0.24852  0.35337  1.0000
  C   C178      1.0  0.35036  0.26693  0.34740  1.0000
  C   C179      1.0  0.37068  0.26053  0.34925  1.0000
  C   C180      1.0  0.37566  0.23466  0.35362  1.0000
  H   H84       1.0  0.34648  0.28547  0.34297  1.0000
  H   H85       1.0  0.39016  0.22950  0.35334  1.0000
  H   H86       1.0  0.33062  0.20915  0.36039  1.0000
  N   N68       1.0  0.36516  0.19106  0.36350  1.0000
  N   N69       1.0  0.31615  0.25584  0.35128  1.0000
  N   N70       1.0  0.38449  0.27881  0.34277  1.0000
  C   C181      1.0  0.36168  0.80708  0.34769  1.0000
  C   C182      1.0  0.34176  0.79952  0.34709  1.0000
  C   C183      1.0  0.33615  0.77385  0.35106  1.0000
  C   C184      1.0  0.35143  0.75563  0.35578  1.0000
  C   C185      1.0  0.37170  0.76230  0.35406  1.0000
  C   C186      1.0  0.37642  0.78826  0.35069  1.0000
  H   H87       1.0  0.34770  0.73702  0.35946  1.0000
  H   H88       1.0  0.39085  0.79370  0.35104  1.0000
  H   H89       1.0  0.33116  0.81317  0.34624  1.0000
  N   N71       1.0  0.36553  0.83176  0.34337  1.0000
  N   N72       1.0  0.31712  0.76628  0.35343  1.0000
  N   N73       1.0  0.38559  0.74407  0.35943  1.0000
  C   C187      1.0  0.66127  0.21471  0.34794  1.0000
  C   C188      1.0  0.68123  0.22212  0.34870  1.0000
  C   C189      1.0  0.68693  0.24777  0.35103  1.0000
  C   C190      1.0  0.67172  0.26610  0.35312  1.0000
  C   C191      1.0  0.65141  0.25961  0.35120  1.0000
  C   C192      1.0  0.64661  0.23365  0.34819  1.0000
  H   H90       1.0  0.67555  0.28470  0.35509  1.0000
  H   H91       1.0  0.63221  0.22824  0.34519  1.0000
  H   H92       1.0  0.69177  0.20839  0.34940  1.0000
  N   N74       1.0  0.65731  0.19005  0.34374  1.0000
  N   N75       1.0  0.70599  0.25525  0.35340  1.0000
  N   N76       1.0  0.63780  0.27826  0.35120  1.0000
  C   C193      1.0  0.01524  0.03641  0.36216  1.0000
  C   C194      1.0  0.01950  0.01967  0.43465  1.0000
  C   C195      1.0  0.01623  0.99355  0.42766  1.0000
  H   H93       1.0  0.01902  0.98252  0.48326  1.0000
  H   H94       1.0  0.02491  0.02649  0.49483  1.0000
  C   C196      1.0  0.01998  0.06216  0.37287  1.0000
  H   H95       1.0  0.03270  0.06621  0.40297  1.0000
  C   C197      1.0  0.51523  0.53641  0.36223  1.0000
  C   C198      1.0  0.51946  0.51968  0.43475  1.0000
  C   C199      1.0  0.51619  0.49356  0.42774  1.0000
  H   H96       1.0  0.51893  0.48253  0.48339  1.0000
  H   H97       1.0  0.52485  0.52650  0.49499  1.0000
  C   C200      1.0  0.51999  0.56214  0.37292  1.0000
  H   H98       1.0  0.53271  0.56619  0.40298  1.0000
  C   C201      1.0  0.10541  0.22242  0.36853  1.0000
  C   C202      1.0  0.09621  0.21093  0.44524  1.0000
  C   C203      1.0  0.07939  0.19478  0.43377  1.0000
  N   N77       1.0  0.10443  0.21698  0.53138  1.0000
  N   N78       1.0  0.06916  0.18373  0.50781  1.0000
  O   O57       1.0  0.11159  0.19847  0.57250  1.0000
  O   O58       1.0  0.07934  0.16838  0.55236  1.0000
  O   O59       1.0  0.09310  0.22923  0.58224  1.0000
  O   O60       1.0  0.06108  0.19936  0.55973  1.0000
  C   C204      1.0  0.11875  0.24238  0.37897  1.0000
  H   H99       1.0  0.11385  0.25707  0.41418  1.0000
  C   C205      1.0  0.91567  0.79924  0.36418  1.0000
  C   C206      1.0  0.92502  0.81074  0.44050  1.0000
  C   C207      1.0  0.94192  0.82670  0.42834  1.0000
  N   N79       1.0  0.91686  0.80489  0.52696  1.0000
  N   N80       1.0  0.95229  0.83773  0.50201  1.0000
  O   O61       1.0  0.90985  0.82353  0.56791  1.0000
  O   O62       1.0  0.94226  0.85325  0.54654  1.0000
  O   O63       1.0  0.92817  0.79261  0.57779  1.0000
  O   O64       1.0  0.96035  0.82210  0.55396  1.0000
  C   C208      1.0  0.90225  0.77940  0.37546  1.0000
  H   H100      1.0  0.90706  0.76484  0.41160  1.0000
  C   C209      1.0  0.95122  0.19220  0.36556  1.0000
  C   C210      1.0  0.94261  0.20477  0.44076  1.0000
  C   C211      1.0  0.92599  0.22040  0.43096  1.0000
  H   H101      1.0  0.92117  0.23021  0.48663  1.0000
  H   H102      1.0  0.94903  0.20367  0.50374  1.0000
  C   C212      1.0  0.96971  0.18062  0.37840  1.0000
  H   H103      1.0  0.97921  0.18958  0.41850  1.0000
  C   C213      1.0  0.07708  0.83806  0.35940  1.0000
  C   C214      1.0  0.08873  0.83148  0.43575  1.0000
  C   C215      1.0  0.10310  0.81239  0.43101  1.0000
  H   H104      1.0  0.11055  0.80767  0.48913  1.0000
  H   H105      1.0  0.08655  0.84025  0.49695  1.0000
  C   C216      1.0  0.06346  0.85783  0.36815  1.0000
  H   H106      1.0  0.06812  0.87378  0.39591  1.0000
  C   C217      1.0  0.60545  0.72218  0.36909  1.0000
  C   C218      1.0  0.59629  0.71049  0.44552  1.0000
  C   C219      1.0  0.57944  0.69443  0.43371  1.0000
  N   N81       1.0  0.60459  0.71624  0.53177  1.0000
  N   N82       1.0  0.56925  0.68321  0.50753  1.0000
  O   O65       1.0  0.61177  0.69758  0.57196  1.0000
  O   O66       1.0  0.57942  0.66771  0.55141  1.0000
  O   O67       1.0  0.59333  0.72835  0.58337  1.0000
  O   O68       1.0  0.56121  0.69871  0.56007  1.0000
  C   C220      1.0  0.61890  0.74200  0.38016  1.0000
  H   H107      1.0  0.61430  0.75633  0.41806  1.0000
  C   C221      1.0  0.41561  0.29950  0.36453  1.0000
  C   C222      1.0  0.42490  0.31122  0.44057  1.0000
  C   C223      1.0  0.44183  0.32710  0.42810  1.0000
  N   N83       1.0  0.41665  0.30568  0.52713  1.0000
  N   N84       1.0  0.45216  0.33832  0.50155  1.0000
  O   O69       1.0  0.40962  0.32448  0.56706  1.0000
  O   O70       1.0  0.44212  0.35399  0.54534  1.0000
  O   O71       1.0  0.42789  0.29356  0.57876  1.0000
  O   O72       1.0  0.46017  0.32282  0.55420  1.0000
  C   C224      1.0  0.40209  0.27980  0.37643  1.0000
  H   H108      1.0  0.40662  0.26560  0.41514  1.0000
  C   C225      1.0  0.45124  0.69212  0.36585  1.0000
  C   C226      1.0  0.44267  0.70492  0.44067  1.0000
  C   C227      1.0  0.42603  0.72050  0.43047  1.0000
  H   H109      1.0  0.42123  0.73047  0.48579  1.0000
  H   H110      1.0  0.44913  0.70402  0.50360  1.0000
  C   C228      1.0  0.46972  0.68055  0.37891  1.0000
  H   H111      1.0  0.47921  0.68948  0.41912  1.0000
  C   C229      1.0  0.57703  0.33814  0.35993  1.0000
  C   C230      1.0  0.58866  0.33139  0.43614  1.0000
  C   C231      1.0  0.60302  0.31230  0.43090  1.0000
  H   H112      1.0  0.61046  0.30744  0.48890  1.0000
  H   H113      1.0  0.58646  0.34002  0.49759  1.0000
  C   C232      1.0  0.56339  0.35787  0.36919  1.0000
  H   H114      1.0  0.56799  0.37373  0.39787  1.0000
  C   C233      1.0  0.39155  0.10072  0.37470  1.0000
  C   C234      1.0  0.38717  0.11740  0.44700  1.0000
  C   C235      1.0  0.38215  0.14262  0.43085  1.0000
  H   H115      1.0  0.38010  0.15421  0.48564  1.0000
  H   H116      1.0  0.38843  0.11162  0.51326  1.0000
  C   C236      1.0  0.39938  0.07714  0.39717  1.0000
  H   H117      1.0  0.40748  0.07594  0.45358  1.0000
  C   C237      1.0  0.63030  0.92126  0.37800  1.0000
  C   C238      1.0  0.63471  0.90455  0.45018  1.0000
  C   C239      1.0  0.63948  0.87926  0.43396  1.0000
  H   H118      1.0  0.64162  0.86767  0.48870  1.0000
  H   H119      1.0  0.63371  0.91040  0.51645  1.0000
  C   C240      1.0  0.62285  0.94502  0.40084  1.0000
  H   H120      1.0  0.61489  0.94641  0.45763  1.0000
  C   C241      1.0  0.64097  0.15147  0.36770  1.0000
  C   C242      1.0  0.63772  0.13571  0.44450  1.0000
  C   C243      1.0  0.63215  0.11003  0.43261  1.0000
  N   N85       1.0  0.63981  0.14676  0.53208  1.0000
  N   N86       1.0  0.62813  0.09624  0.51313  1.0000
  O   O73       1.0  0.65312  0.13638  0.57812  1.0000
  O   O74       1.0  0.63979  0.07820  0.52414  1.0000
  O   O75       1.0  0.62395  0.14679  0.57620  1.0000
  O   O76       1.0  0.61058  0.08888  0.51833  1.0000
  C   C244      1.0  0.64288  0.17740  0.37758  1.0000
  H   H121      1.0  0.63284  0.18624  0.41516  1.0000
  C   C245      1.0  0.38154  0.87054  0.36806  1.0000
  C   C246      1.0  0.38484  0.88637  0.44458  1.0000
  C   C247      1.0  0.39028  0.91208  0.43224  1.0000
  N   N87       1.0  0.38295  0.87537  0.53236  1.0000
  N   N88       1.0  0.39440  0.92593  0.51250  1.0000
  O   O77       1.0  0.36968  0.88569  0.57879  1.0000
  O   O78       1.0  0.38268  0.94389  0.52395  1.0000
  O   O79       1.0  0.39889  0.87548  0.57589  1.0000
  O   O80       1.0  0.41193  0.93341  0.51696  1.0000
  C   C248      1.0  0.37973  0.84460  0.37829  1.0000
  H   H122      1.0  0.38965  0.83591  0.41696  1.0000
  C   C249      1.0  0.89150  0.60070  0.37330  1.0000
  C   C250      1.0  0.88697  0.61737  0.44542  1.0000
  C   C251      1.0  0.88186  0.64254  0.42901  1.0000
  H   H123      1.0  0.87969  0.65414  0.48371  1.0000
  H   H124      1.0  0.88818  0.61162  0.51173  1.0000
  C   C252      1.0  0.89941  0.57718  0.39602  1.0000
  H   H125      1.0  0.90747  0.57604  0.45258  1.0000
  C   C253      1.0  0.13035  0.42127  0.37666  1.0000
  C   C254      1.0  0.13491  0.40457  0.44864  1.0000
  C   C255      1.0  0.13977  0.37932  0.43215  1.0000
  H   H126      1.0  0.14203  0.36774  0.48680  1.0000
  H   H127      1.0  0.13396  0.41039  0.51497  1.0000
  C   C256      1.0  0.12283  0.44497  0.39976  1.0000
  H   H128      1.0  0.11492  0.44630  0.45670  1.0000
  C   C257      1.0  0.14113  0.65140  0.36975  1.0000
  C   C258      1.0  0.13770  0.63562  0.44635  1.0000
  C   C259      1.0  0.13207  0.60997  0.43414  1.0000
  N   N89       1.0  0.13969  0.64661  0.53409  1.0000
  N   N90       1.0  0.12790  0.59616  0.51445  1.0000
  O   O81       1.0  0.15289  0.63614  0.58050  1.0000
  O   O82       1.0  0.13951  0.57806  0.52568  1.0000
  O   O83       1.0  0.12376  0.64669  0.57768  1.0000
  O   O84       1.0  0.11033  0.58885  0.51906  1.0000
  C   C260      1.0  0.14320  0.67732  0.37987  1.0000
  H   H129      1.0  0.13338  0.68617  0.41859  1.0000
  C   C261      1.0  0.88130  0.37061  0.37000  1.0000
  C   C262      1.0  0.88480  0.38646  0.44633  1.0000
  C   C263      1.0  0.89031  0.41213  0.43368  1.0000
  N   N91       1.0  0.88301  0.37551  0.53426  1.0000
  N   N92       1.0  0.89459  0.42600  0.51373  1.0000
  O   O85       1.0  0.86985  0.38593  0.58110  1.0000
  O   O86       1.0  0.88293  0.44402  0.52542  1.0000
  O   O87       1.0  0.89902  0.37555  0.57723  1.0000
  O   O88       1.0  0.91214  0.43341  0.51760  1.0000
  C   C264      1.0  0.87933  0.34468  0.38045  1.0000
  H   H130      1.0  0.88903  0.33597  0.42021  1.0000
  C   C265      1.0  0.49075  0.00622  0.35244  1.0000
  C   C266      1.0  0.50312  0.00607  0.42977  1.0000
  C   C267      1.0  0.52330  0.01130  0.42173  1.0000
  H   H131      1.0  0.53178  0.01140  0.47940  1.0000
  H   H132      1.0  0.49753  0.00223  0.49304  1.0000
  C   C268      1.0  0.47126  0.99944  0.36440  1.0000
  H   H133      1.0  0.46840  0.98238  0.38836  1.0000
  C   C269      1.0  0.99076  0.50617  0.35250  1.0000
  C   C270      1.0  0.00310  0.50607  0.42988  1.0000
  C   C271      1.0  0.02329  0.51133  0.42188  1.0000
  H   H134      1.0  0.03175  0.51144  0.47958  1.0000
  H   H135      1.0  0.99752  0.50222  0.49314  1.0000
  C   C272      1.0  0.97127  0.49940  0.36441  1.0000
  H   H136      1.0  0.96840  0.48234  0.38842  1.0000
  C   C273      1.0  0.28102  0.25406  0.37059  1.0000
  C   C274      1.0  0.26773  0.25229  0.44559  1.0000
  C   C275      1.0  0.24741  0.25935  0.43555  1.0000
  N   N93       1.0  0.27588  0.24367  0.52900  1.0000
  N   N94       1.0  0.23369  0.25889  0.50841  1.0000
  O   O89       1.0  0.27580  0.25976  0.59142  1.0000
  O   O90       1.0  0.23050  0.23734  0.53961  1.0000
  O   O91       1.0  0.26883  0.22321  0.55601  1.0000
  O   O92       1.0  0.23762  0.27407  0.57119  1.0000
  C   C276      1.0  0.30021  0.24434  0.37595  1.0000
  H   H137      1.0  0.30143  0.22734  0.40321  1.0000
  C   C277      1.0  0.74008  0.76750  0.37125  1.0000
  C   C278      1.0  0.75347  0.76929  0.44587  1.0000
  C   C279      1.0  0.77377  0.76222  0.43527  1.0000
  N   N95       1.0  0.74543  0.77792  0.52948  1.0000
  N   N96       1.0  0.78759  0.76270  0.50774  1.0000
  O   O93       1.0  0.74559  0.76185  0.59194  1.0000
  O   O94       1.0  0.79083  0.78425  0.53882  1.0000
  O   O95       1.0  0.75251  0.79840  0.55622  1.0000
  O   O96       1.0  0.78374  0.74753  0.57066  1.0000
  C   C280      1.0  0.72090  0.77725  0.37710  1.0000
  H   H138      1.0  0.71973  0.79426  0.40432  1.0000
  C   C281      1.0  0.78188  0.26782  0.35666  1.0000
  C   C282      1.0  0.76833  0.26952  0.42973  1.0000
  C   C283      1.0  0.74845  0.26243  0.41981  1.0000
  H   H139      1.0  0.73942  0.26328  0.47556  1.0000
  H   H140      1.0  0.77289  0.27583  0.49212  1.0000
  C   C284      1.0  0.80105  0.27716  0.37008  1.0000
  H   H141      1.0  0.80223  0.29335  0.40351  1.0000
  C   C285      1.0  0.24123  0.75348  0.35652  1.0000
  C   C286      1.0  0.25487  0.75167  0.42926  1.0000
  C   C287      1.0  0.27473  0.75877  0.41904  1.0000
  H   H142      1.0  0.28382  0.75782  0.47456  1.0000
  H   H143      1.0  0.25037  0.74526  0.49162  1.0000
  C   C288      1.0  0.22205  0.74421  0.37026  1.0000
  H   H144      1.0  0.22084  0.72810  0.40406  1.0000
