data_image0
_chemical_formula_structural       HC3HNO2CHC3HNHC4HCHC14H10C17H12C5H2NH2NO2C5H2NH2NO2C2HNH2C10H7C13H9C3HC4HN2H2O2C3HC4HN2H2O2C4HNHO2
_chemical_formula_sum              "H66 C96 N12 O12"
_cell_length_a       44.8952
_cell_length_b       44.87
_cell_length_c       14.8495
_cell_angle_alpha    90
_cell_angle_beta     90
_cell_angle_gamma    120.03

_space_group_name_H-M_alt    "P 1"
_space_group_IT_number       1

loop_
  _space_group_symop_operation_xyz
  'x, y, z'

loop_
  _atom_site_type_symbol
  _atom_site_label
  _atom_site_symmetry_multiplicity
  _atom_site_fract_x
  _atom_site_fract_y
  _atom_site_fract_z
  _atom_site_occupancy
  H   H1        1.0  0.13992  0.51991  0.32097  1.0000
  C   C1        1.0  0.09945  0.54785  0.33889  1.0000
  C   C2        1.0  0.08082  0.55737  0.27962  1.0000
  C   C3        1.0  0.04439  0.53904  0.28205  1.0000
  H   H2        1.0  0.03141  0.54649  0.23927  1.0000
  N   N1        1.0  0.09876  0.58424  0.21656  1.0000
  O   O1        1.0  0.09232  0.60823  0.22748  1.0000
  O   O2        1.0  0.09136  0.57349  0.13697  1.0000
  C   C4        1.0  0.13630  0.56497  0.33937  1.0000
  H   H3        1.0  0.14505  0.61549  0.36167  1.0000
  C   C5        1.0  0.02563  0.51107  0.34138  1.0000
  C   C6        1.0  0.04419  0.50104  0.40007  1.0000
  C   C7        1.0  0.08064  0.51988  0.39822  1.0000
  H   H4        1.0  0.09389  0.51280  0.44115  1.0000
  N   N2        1.0  0.02852  0.47335  0.45610  1.0000
  H   H5        1.0  0.04182  0.46662  0.49418  1.0000
  C   C8        1.0  0.18973  0.56236  0.33474  1.0000
  C   C9        1.0  0.15359  0.54601  0.33044  1.0000
  C   C10       1.0  0.15657  0.60098  0.35231  1.0000
  C   C11       1.0  0.20991  0.59835  0.34734  1.0000
  H   H6        1.0  0.20118  0.54763  0.32890  1.0000
  C   C12       1.0  0.19276  0.61743  0.35624  1.0000
  H   H7        1.0  0.20647  0.64339  0.36790  1.0000
  C   C13       1.0  0.45469  0.85605  0.35120  1.0000
  C   C14       1.0  0.43499  0.81983  0.35519  1.0000
  C   C15       1.0  0.38266  0.74397  0.30865  1.0000
  C   C16       1.0  0.36174  0.70825  0.31547  1.0000
  C   C17       1.0  0.32537  0.69207  0.31484  1.0000
  C   C18       1.0  0.30424  0.65578  0.31534  1.0000
  C   C19       1.0  0.32039  0.63556  0.31466  1.0000
  C   C20       1.0  0.35665  0.65073  0.31525  1.0000
  C   C21       1.0  0.37688  0.68712  0.31474  1.0000
  C   C22       1.0  0.37145  0.62982  0.30839  1.0000
  C   C23       1.0  0.41404  0.61383  0.34737  1.0000
  C   C24       1.0  0.39499  0.57753  0.35512  1.0000
  C   C25       1.0  0.41150  0.55785  0.35109  1.0000
  C   C26       1.0  0.26854  0.64099  0.30858  1.0000
  H   H8        1.0  0.48077  0.86763  0.35946  1.0000
  H   H9        1.0  0.44734  0.80617  0.36588  1.0000
  H   H10       1.0  0.40315  0.69849  0.31158  1.0000
  H   H11       1.0  0.31402  0.70699  0.31180  1.0000
  H   H12       1.0  0.30547  0.60928  0.31148  1.0000
  H   H13       1.0  0.39701  0.53176  0.35969  1.0000
  H   H14       1.0  0.36899  0.56516  0.36602  1.0000
  H   H15       1.0  0.36078  0.61035  0.26487  1.0000
  H   H16       1.0  0.40210  0.75278  0.26506  1.0000
  H   H17       1.0  0.25974  0.65177  0.26541  1.0000
  C   C27       1.0  0.55995  0.15429  0.33683  1.0000
  C   C28       1.0  0.57960  0.19048  0.34173  1.0000
  C   C29       1.0  0.63286  0.26626  0.30697  1.0000
  C   C30       1.0  0.65357  0.30192  0.31461  1.0000
  C   C31       1.0  0.68994  0.31813  0.31414  1.0000
  C   C32       1.0  0.71097  0.35442  0.31467  1.0000
  C   C33       1.0  0.69479  0.37460  0.31393  1.0000
  C   C34       1.0  0.65852  0.35933  0.31445  1.0000
  C   C35       1.0  0.63833  0.32294  0.31389  1.0000
  C   C36       1.0  0.64361  0.38005  0.30672  1.0000
  C   C37       1.0  0.60181  0.39693  0.34883  1.0000
  C   C38       1.0  0.62107  0.43327  0.34164  1.0000
  C   C39       1.0  0.60455  0.45292  0.33678  1.0000
  C   C40       1.0  0.74662  0.36933  0.30710  1.0000
  C   C41       1.0  0.80533  0.41128  0.34862  1.0000
  C   C42       1.0  0.82579  0.44763  0.34944  1.0000
  C   C43       1.0  0.86193  0.46405  0.34456  1.0000
  H   H18       1.0  0.53372  0.14273  0.33264  1.0000
  H   H19       1.0  0.56704  0.20424  0.34143  1.0000
  H   H20       1.0  0.61205  0.31154  0.31059  1.0000
  H   H21       1.0  0.70131  0.30323  0.31104  1.0000
  H   H22       1.0  0.70968  0.40089  0.31060  1.0000
  H   H23       1.0  0.61924  0.47917  0.33291  1.0000
  H   H24       1.0  0.64740  0.44586  0.34166  1.0000
  H   H25       1.0  0.87595  0.49039  0.34568  1.0000
  H   H26       1.0  0.81453  0.46257  0.35398  1.0000
  H   H27       1.0  0.65327  0.39841  0.25998  1.0000
  H   H28       1.0  0.61456  0.25754  0.26008  1.0000
  H   H29       1.0  0.75531  0.35942  0.26106  1.0000
  C   C44       1.0  0.46473  0.55405  0.33875  1.0000
  C   C45       1.0  0.45552  0.52613  0.27880  1.0000
  C   C46       1.0  0.47388  0.50807  0.28129  1.0000
  C   C47       1.0  0.53359  0.49350  0.26072  1.0000
  C   C48       1.0  0.55004  0.47354  0.25774  1.0000
  H   H30       1.0  0.53280  0.50590  0.20361  1.0000
  H   H31       1.0  0.46663  0.48779  0.23805  1.0000
  N   N3        1.0  0.56333  0.47090  0.17761  1.0000
  H   H32       1.0  0.56165  0.48229  0.12363  1.0000
  H   H33       1.0  0.57395  0.45678  0.17060  1.0000
  N   N4        1.0  0.42893  0.51740  0.21503  1.0000
  O   O3        1.0  0.40495  0.48688  0.22486  1.0000
  O   O4        1.0  0.44003  0.52112  0.13573  1.0000
  C   C49       1.0  0.45854  0.91314  0.33903  1.0000
  C   C50       1.0  0.48638  0.93183  0.27888  1.0000
  C   C51       1.0  0.50448  0.96828  0.28138  1.0000
  C   C52       1.0  0.51929  0.04268  0.26104  1.0000
  C   C53       1.0  0.53929  0.07910  0.25811  1.0000
  H   H34       1.0  0.50690  0.02950  0.20390  1.0000
  H   H35       1.0  0.52471  0.98130  0.23802  1.0000
  N   N5        1.0  0.54201  0.09507  0.17798  1.0000
  H   H36       1.0  0.53067  0.08200  0.12393  1.0000
  H   H37       1.0  0.55622  0.11982  0.17095  1.0000
  N   N6        1.0  0.49499  0.91394  0.21491  1.0000
  O   O5        1.0  0.52549  0.92045  0.22444  1.0000
  O   O6        1.0  0.49120  0.92134  0.13569  1.0000
  C   C54       1.0  0.97005  0.47919  0.26075  1.0000
  C   C55       1.0  0.93365  0.46273  0.25778  1.0000
  H   H38       1.0  0.98324  0.47999  0.20364  1.0000
  N   N7        1.0  0.91768  0.44937  0.17773  1.0000
  H   H39       1.0  0.93072  0.45100  0.12374  1.0000
  H   H40       1.0  0.89292  0.43863  0.17084  1.0000
  C   C56       1.0  0.43884  0.87626  0.33957  1.0000
  C   C57       1.0  0.39871  0.80260  0.34779  1.0000
  C   C58       1.0  0.38281  0.82273  0.33649  1.0000
  C   C59       1.0  0.40254  0.85889  0.33210  1.0000
  C   C60       1.0  0.37840  0.76700  0.35681  1.0000
  C   C61       1.0  0.39877  0.63412  0.35643  1.0000
  C   C62       1.0  0.45007  0.62975  0.33580  1.0000
  C   C63       1.0  0.44756  0.57373  0.33924  1.0000
  C   C64       1.0  0.46649  0.61004  0.33143  1.0000
  C   C65       1.0  0.24548  0.61355  0.35629  1.0000
  H   H41       1.0  0.39004  0.87252  0.32361  1.0000
  H   H42       1.0  0.35658  0.81122  0.33174  1.0000
  H   H43       1.0  0.46478  0.65599  0.33080  1.0000
  H   H44       1.0  0.49261  0.62256  0.32276  1.0000
  H   H45       1.0  0.40965  0.65365  0.39971  1.0000
  H   H46       1.0  0.35891  0.75836  0.40013  1.0000
  H   H47       1.0  0.25407  0.60254  0.39926  1.0000
  C   C66       1.0  0.57601  0.13409  0.33970  1.0000
  C   C67       1.0  0.61591  0.20756  0.34942  1.0000
  C   C68       1.0  0.63182  0.18717  0.35274  1.0000
  C   C69       1.0  0.61221  0.15101  0.34768  1.0000
  C   C70       1.0  0.63596  0.24325  0.35845  1.0000
  C   C71       1.0  0.61741  0.37687  0.35794  1.0000
  C   C72       1.0  0.56549  0.38097  0.35173  1.0000
  C   C73       1.0  0.56828  0.43681  0.33920  1.0000
  C   C74       1.0  0.54897  0.40058  0.34671  1.0000
  C   C75       1.0  0.76968  0.39581  0.35759  1.0000
  C   C76       1.0  0.82229  0.39188  0.34365  1.0000
  C   C77       1.0  0.87872  0.44459  0.33917  1.0000
  C   C78       1.0  0.85845  0.40829  0.33883  1.0000
  H   H48       1.0  0.62456  0.13706  0.35061  1.0000
  H   H49       1.0  0.65798  0.19850  0.35920  1.0000
  H   H50       1.0  0.80846  0.36555  0.34515  1.0000
  H   H51       1.0  0.55065  0.35479  0.35786  1.0000
  H   H52       1.0  0.52266  0.38820  0.34934  1.0000
  H   H53       1.0  0.86994  0.39353  0.33649  1.0000
  H   H54       1.0  0.60766  0.35831  0.40418  1.0000
  H   H55       1.0  0.65446  0.25207  0.40484  1.0000
  H   H56       1.0  0.76093  0.40582  0.40322  1.0000
  C   C79       1.0  0.50162  0.51712  0.34128  1.0000
  C   C80       1.0  0.51137  0.54551  0.40058  1.0000
  C   C81       1.0  0.49246  0.56305  0.39873  1.0000
  H   H57       1.0  0.49933  0.58322  0.44213  1.0000
  C   C82       1.0  0.51835  0.49706  0.34013  1.0000
  C   C83       1.0  0.55151  0.45673  0.33781  1.0000
  C   C84       1.0  0.53608  0.45989  0.41823  1.0000
  C   C85       1.0  0.51939  0.47958  0.41792  1.0000
  H   H58       1.0  0.50816  0.48143  0.47609  1.0000
  N   N8        1.0  0.53810  0.44390  0.49857  1.0000
  N   N9        1.0  0.53887  0.55744  0.45721  1.0000
  H   H59       1.0  0.54541  0.57734  0.49569  1.0000
  H   H60       1.0  0.55426  0.54812  0.45697  1.0000
  O   O7        1.0  0.55417  0.46563  0.55928  1.0000
  O   O8        1.0  0.50877  0.42244  0.52768  1.0000
  C   C86       1.0  0.49554  0.98702  0.34155  1.0000
  C   C87       1.0  0.46721  0.96838  0.40102  1.0000
  C   C88       1.0  0.44966  0.93191  0.39921  1.0000
  H   H61       1.0  0.42954  0.91862  0.44275  1.0000
  C   C89       1.0  0.51566  0.02383  0.34044  1.0000
  C   C90       1.0  0.55607  0.09737  0.33824  1.0000
  C   C91       1.0  0.55284  0.07874  0.41865  1.0000
  C   C92       1.0  0.53313  0.04235  0.41827  1.0000
  H   H62       1.0  0.53123  0.02924  0.47645  1.0000
  N   N10       1.0  0.56880  0.09674  0.49905  1.0000
  N   N11       1.0  0.45541  0.98400  0.45787  1.0000
  H   H63       1.0  0.43541  0.97063  0.49604  1.0000
  H   H64       1.0  0.46460  0.00870  0.45710  1.0000
  O   O9        1.0  0.54704  0.09108  0.55966  1.0000
  O   O10       1.0  0.59019  0.08882  0.52827  1.0000
  C   C93       1.0  0.98886  0.49438  0.34022  1.0000
  C   C94       1.0  0.91539  0.46128  0.33786  1.0000
  C   C95       1.0  0.93397  0.47666  0.41832  1.0000
  C   C96       1.0  0.97034  0.49330  0.41807  1.0000
  H   H65       1.0  0.98343  0.50449  0.47626  1.0000
  N   N12       1.0  0.91593  0.47468  0.49857  1.0000
  H   H66       1.0  0.00379  0.45804  0.45590  1.0000
  O   O11       1.0  0.92151  0.45857  0.55934  1.0000
  O   O12       1.0  0.92388  0.50404  0.52763  1.0000
