data_image0
_chemical_formula_structural       HNCHNCHNCHCNCNCNC18H12CNCNCNC18H12C2NC2OH3C2NC2OH3C2NC2OH2
_chemical_formula_sum              "H36 N12 C57 O3"
_cell_length_a       29.4249
_cell_length_b       29.4249
_cell_length_c       14.9787
_cell_angle_alpha    90
_cell_angle_beta     90
_cell_angle_gamma    120

_space_group_name_H-M_alt    "P 1"
_space_group_IT_number       1

loop_
  _space_group_symop_operation_xyz
  'x, y, z'

loop_
  _atom_site_type_symbol
  _atom_site_label
  _atom_site_symmetry_multiplicity
  _atom_site_fract_x
  _atom_site_fract_y
  _atom_site_fract_z
  _atom_site_occupancy
  H   H1        1.0  0.01542  0.56785  0.53080  1.0000
  N   N1        1.0  0.50928  0.53828  0.27855  1.0000
  C   C1        1.0  0.53864  0.51463  0.27285  1.0000
  H   H2        1.0  0.56440  0.52411  0.22104  1.0000
  N   N2        1.0  0.46349  0.97136  0.27859  1.0000
  C   C2        1.0  0.48712  0.02436  0.27291  1.0000
  H   H3        1.0  0.47768  0.04063  0.22103  1.0000
  N   N3        1.0  0.03042  0.49250  0.27861  1.0000
  C   C3        1.0  0.97741  0.46315  0.27290  1.0000
  H   H4        1.0  0.96113  0.43738  0.22110  1.0000
  C   C4        1.0  0.36160  0.72157  0.33271  1.0000
  N   N4        1.0  0.38693  0.69353  0.33285  1.0000
  C   C5        1.0  0.36139  0.64018  0.33271  1.0000
  N   N5        1.0  0.30802  0.61484  0.33284  1.0000
  C   C6        1.0  0.28021  0.64039  0.33270  1.0000
  N   N6        1.0  0.30825  0.69375  0.33284  1.0000
  C   C7        1.0  0.38926  0.61203  0.33405  1.0000
  C   C8        1.0  0.44485  0.63854  0.33784  1.0000
  C   C9        1.0  0.47226  0.61073  0.34048  1.0000
  C   C10       1.0  0.44496  0.55531  0.34054  1.0000
  C   C11       1.0  0.38967  0.52856  0.33458  1.0000
  C   C12       1.0  0.36234  0.55642  0.33185  1.0000
  C   C13       1.0  0.38974  0.77758  0.33406  1.0000
  C   C14       1.0  0.44535  0.80628  0.33186  1.0000
  C   C15       1.0  0.47321  0.86146  0.33461  1.0000
  C   C16       1.0  0.44646  0.89001  0.34058  1.0000
  C   C17       1.0  0.39104  0.86188  0.34050  1.0000
  C   C18       1.0  0.36323  0.80666  0.33786  1.0000
  C   C19       1.0  0.22420  0.61252  0.33404  1.0000
  C   C20       1.0  0.19550  0.63943  0.33184  1.0000
  C   C21       1.0  0.14032  0.61211  0.33461  1.0000
  C   C22       1.0  0.11177  0.55682  0.34058  1.0000
  C   C23       1.0  0.13990  0.52952  0.34046  1.0000
  C   C24       1.0  0.19512  0.55693  0.33781  1.0000
  H   H5        1.0  0.51329  0.88061  0.33084  1.0000
  H   H6        1.0  0.46651  0.78738  0.32785  1.0000
  H   H7        1.0  0.37041  0.88137  0.34408  1.0000
  H   H8        1.0  0.32312  0.78799  0.33924  1.0000
  H   H9        1.0  0.21440  0.67949  0.32786  1.0000
  H   H10       1.0  0.12117  0.63304  0.33086  1.0000
  H   H11       1.0  0.21378  0.53548  0.33921  1.0000
  H   H12       1.0  0.12041  0.48940  0.34407  1.0000
  H   H13       1.0  0.32229  0.53526  0.32786  1.0000
  H   H14       1.0  0.36874  0.48848  0.33083  1.0000
  H   H15       1.0  0.51238  0.63136  0.34405  1.0000
  H   H16       1.0  0.46629  0.67865  0.33923  1.0000
  C   C25       1.0  0.64000  0.27997  0.33537  1.0000
  N   N7        1.0  0.61510  0.30840  0.33537  1.0000
  C   C26       1.0  0.64140  0.36178  0.33538  1.0000
  N   N8        1.0  0.69473  0.38668  0.33540  1.0000
  C   C27       1.0  0.72180  0.36038  0.33540  1.0000
  N   N9        1.0  0.69337  0.30705  0.33539  1.0000
  C   C28       1.0  0.61417  0.39042  0.33549  1.0000
  C   C29       1.0  0.56084  0.36644  0.36152  1.0000
  C   C30       1.0  0.53405  0.39487  0.36261  1.0000
  C   C31       1.0  0.55911  0.44805  0.33555  1.0000
  C   C32       1.0  0.61233  0.47201  0.30906  1.0000
  C   C33       1.0  0.63945  0.44390  0.30986  1.0000
  C   C34       1.0  0.61135  0.22410  0.33549  1.0000
  C   C35       1.0  0.55788  0.19590  0.30983  1.0000
  C   C36       1.0  0.52976  0.14067  0.30908  1.0000
  C   C37       1.0  0.55372  0.11142  0.33557  1.0000
  C   C38       1.0  0.60689  0.13954  0.36265  1.0000
  C   C39       1.0  0.63532  0.19474  0.36155  1.0000
  C   C40       1.0  0.77768  0.38761  0.33554  1.0000
  C   C41       1.0  0.80588  0.36233  0.30992  1.0000
  C   C42       1.0  0.86111  0.38945  0.30916  1.0000
  C   C43       1.0  0.89036  0.44266  0.33564  1.0000
  C   C44       1.0  0.86223  0.46771  0.36273  1.0000
  C   C45       1.0  0.80703  0.44094  0.36159  1.0000
  H   H17       1.0  0.49107  0.12208  0.29085  1.0000
  H   H18       1.0  0.53880  0.21528  0.29018  1.0000
  H   H19       1.0  0.62595  0.12004  0.38189  1.0000
  H   H20       1.0  0.67371  0.21322  0.38155  1.0000
  H   H21       1.0  0.78650  0.32387  0.29027  1.0000
  H   H22       1.0  0.87971  0.36936  0.29093  1.0000
  H   H23       1.0  0.78854  0.46085  0.38155  1.0000
  H   H24       1.0  0.88173  0.50628  0.38188  1.0000
  H   H25       1.0  0.67791  0.46298  0.29022  1.0000
  H   H26       1.0  0.63242  0.51070  0.29088  1.0000
  H   H27       1.0  0.49550  0.37581  0.38185  1.0000
  H   H28       1.0  0.54093  0.32805  0.38151  1.0000
  C   C46       1.0  0.47279  0.52753  0.34319  1.0000
  C   C47       1.0  0.53131  0.47612  0.33646  1.0000
  N   N10       1.0  0.49528  0.46618  0.40157  1.0000
  C   C48       1.0  0.46573  0.48974  0.40892  1.0000
  C   C49       1.0  0.43098  0.47654  0.48807  1.0000
  O   O1        1.0  0.44264  0.52195  0.54012  1.0000
  H   H29       1.0  0.43395  0.44793  0.53075  1.0000
  H   H30       1.0  0.39032  0.45839  0.46606  1.0000
  H   H31       1.0  0.47793  0.53593  0.56596  1.0000
  C   C50       1.0  0.47423  0.94561  0.34323  1.0000
  C   C51       1.0  0.52564  0.05554  0.33650  1.0000
  N   N11       1.0  0.53557  0.02945  0.40163  1.0000
  C   C52       1.0  0.51200  0.97636  0.40901  1.0000
  C   C53       1.0  0.52523  0.95480  0.48810  1.0000
  O   O2        1.0  0.47983  0.92100  0.54015  1.0000
  H   H32       1.0  0.55382  0.98636  0.53081  1.0000
  H   H33       1.0  0.54340  0.93231  0.46605  1.0000
  H   H34       1.0  0.46583  0.94228  0.56604  1.0000
  C   C54       1.0  0.05617  0.52899  0.34324  1.0000
  C   C55       1.0  0.94624  0.47048  0.33652  1.0000
  N   N12       1.0  0.97233  0.50651  0.40163  1.0000
  C   C56       1.0  0.02543  0.53605  0.40897  1.0000
  C   C57       1.0  0.04699  0.57081  0.48811  1.0000
  O   O3        1.0  0.08075  0.55916  0.54016  1.0000
  H   H35       1.0  0.06951  0.61147  0.46610  1.0000
  H   H36       1.0  0.05944  0.52387  0.56601  1.0000
