data_image0
_chemical_formula_structural       C3NC3NC5NC5NC20H18C4H4C3NC3NC5NC5NC20H18C4H4C3NC3NC5NC5NC20H18C4H4C3H2NC3H2NC3H2NC3H2NC3H2NC3H2NC8H8C8H8C8H8C3HNO2NC3HNO2NC3HNO2NC3HNO2NC3HNO2NC3HNO2N
_chemical_formula_sum              "C180 N30 H108 O12"
_cell_length_a       50.7029
_cell_length_b       50.7029
_cell_length_c       14.7936
_cell_angle_alpha    90.016
_cell_angle_beta     89.984
_cell_angle_gamma    120

_space_group_name_H-M_alt    "P 1"
_space_group_IT_number       1

loop_
  _space_group_symop_operation_xyz
  'x, y, z'

loop_
  _atom_site_type_symbol
  _atom_site_label
  _atom_site_symmetry_multiplicity
  _atom_site_fract_x
  _atom_site_fract_y
  _atom_site_fract_z
  _atom_site_occupancy
  C   C1        1.0  0.02234  0.63827  0.33692  1.0000
  C   C2        1.0  0.05383  0.65420  0.33765  1.0000
  C   C3        1.0  0.06410  0.63324  0.33850  1.0000
  N   N1        1.0  0.03841  0.60546  0.33936  1.0000
  C   C4        1.0  0.01250  0.60714  0.33765  1.0000
  C   C5        1.0  0.98147  0.58337  0.33599  1.0000
  C   C6        1.0  0.97179  0.55174  0.33634  1.0000
  N   N2        1.0  0.98906  0.53830  0.34063  1.0000
  C   C7        1.0  0.97201  0.50755  0.33714  1.0000
  C   C8        1.0  0.94181  0.50090  0.33038  1.0000
  C   C9        1.0  0.94166  0.52800  0.33015  1.0000
  C   C10       1.0  0.98199  0.48583  0.33768  1.0000
  C   C11       1.0  0.01317  0.49354  0.33857  1.0000
  N   N3        1.0  0.03886  0.52132  0.33946  1.0000
  C   C12       1.0  0.06476  0.51963  0.33770  1.0000
  C   C13       1.0  0.05493  0.48851  0.33707  1.0000
  C   C14       1.0  0.02344  0.47258  0.33782  1.0000
  C   C15       1.0  0.09579  0.54341  0.33591  1.0000
  C   C16       1.0  0.10547  0.57503  0.33644  1.0000
  N   N4        1.0  0.08820  0.58848  0.34072  1.0000
  C   C17       1.0  0.10526  0.61923  0.33733  1.0000
  C   C18       1.0  0.13547  0.62588  0.33058  1.0000
  C   C19       1.0  0.13560  0.59877  0.33022  1.0000
  C   C20       1.0  0.09528  0.64095  0.33768  1.0000
  C   C21       1.0  0.11836  0.67239  0.33058  1.0000
  C   C22       1.0  0.16983  0.73244  0.30777  1.0000
  C   C23       1.0  0.15003  0.71661  0.23482  1.0000
  C   C24       1.0  0.12491  0.68708  0.24571  1.0000
  C   C25       1.0  0.11906  0.53544  0.32678  1.0000
  C   C26       1.0  0.17105  0.52786  0.30245  1.0000
  C   C27       1.0  0.15299  0.52702  0.22811  1.0000
  C   C28       1.0  0.12755  0.53086  0.23983  1.0000
  C   C29       1.0  0.95893  0.45439  0.33045  1.0000
  C   C30       1.0  0.95245  0.43971  0.24557  1.0000
  C   C31       1.0  0.92738  0.41015  0.23461  1.0000
  C   C32       1.0  0.90760  0.39426  0.30757  1.0000
  C   C33       1.0  0.95819  0.59133  0.32695  1.0000
  C   C34       1.0  0.94980  0.59610  0.24011  1.0000
  C   C35       1.0  0.90612  0.59876  0.30277  1.0000
  C   C36       1.0  0.92433  0.59987  0.22845  1.0000
  H   H1        1.0  0.91877  0.60271  0.16400  1.0000
  H   H2        1.0  0.96166  0.59592  0.18426  1.0000
  H   H3        1.0  0.00901  0.64815  0.33576  1.0000
  H   H4        1.0  0.06687  0.67744  0.33704  1.0000
  H   H5        1.0  0.03853  0.58657  0.33934  1.0000
  H   H6        1.0  0.03874  0.54021  0.33900  1.0000
  H   H7        1.0  0.92247  0.52969  0.32398  1.0000
  H   H8        1.0  0.92271  0.47993  0.32437  1.0000
  H   H9        1.0  0.96545  0.45083  0.19028  1.0000
  H   H10       1.0  0.92326  0.40063  0.17140  1.0000
  H   H11       1.0  0.01040  0.44934  0.33720  1.0000
  H   H12       1.0  0.06826  0.47863  0.33583  1.0000
  H   H13       1.0  0.15455  0.64683  0.32426  1.0000
  H   H14       1.0  0.15479  0.59707  0.32386  1.0000
  H   H15       1.0  0.11578  0.53118  0.18398  1.0000
  H   H16       1.0  0.15859  0.52427  0.16360  1.0000
  H   H17       1.0  0.11190  0.67600  0.19041  1.0000
  H   H18       1.0  0.15420  0.72613  0.17161  1.0000
  C   C37       1.0  0.19655  0.52466  0.28695  1.0000
  C   C38       1.0  0.88237  0.36533  0.29263  1.0000
  C   C39       1.0  0.88054  0.60183  0.28732  1.0000
  C   C40       1.0  0.19514  0.76131  0.29288  1.0000
  H   H19       1.0  0.19891  0.51792  0.22589  1.0000
  H   H20       1.0  0.88128  0.35503  0.23439  1.0000
  H   H21       1.0  0.87822  0.60869  0.22640  1.0000
  H   H22       1.0  0.19626  0.77167  0.23475  1.0000
  C   C41       1.0  0.46326  0.47126  0.33719  1.0000
  C   C42       1.0  0.44734  0.48683  0.33793  1.0000
  C   C43       1.0  0.46830  0.51805  0.33851  1.0000
  N   N5        1.0  0.49608  0.52014  0.33937  1.0000
  C   C44       1.0  0.49439  0.49255  0.33773  1.0000
  C   C45       1.0  0.51816  0.48529  0.33591  1.0000
  C   C46       1.0  0.54979  0.50723  0.33619  1.0000
  N   N6        1.0  0.56324  0.53794  0.34047  1.0000
  C   C47       1.0  0.59398  0.55164  0.33690  1.0000
  C   C48       1.0  0.60063  0.52808  0.33007  1.0000
  C   C49       1.0  0.57352  0.50084  0.32978  1.0000
  C   C50       1.0  0.61571  0.58333  0.33742  1.0000
  C   C51       1.0  0.60801  0.60682  0.33842  1.0000
  N   N7        1.0  0.58024  0.60473  0.33933  1.0000
  C   C52       1.0  0.58192  0.63232  0.33767  1.0000
  C   C53       1.0  0.61305  0.65360  0.33702  1.0000
  C   C54       1.0  0.62897  0.63804  0.33777  1.0000
  C   C55       1.0  0.55815  0.63957  0.33595  1.0000
  C   C56       1.0  0.52653  0.61764  0.33616  1.0000
  N   N8        1.0  0.51308  0.58692  0.34042  1.0000
  C   C57       1.0  0.48233  0.57324  0.33692  1.0000
  C   C58       1.0  0.47569  0.59680  0.33014  1.0000
  C   C59       1.0  0.50280  0.62404  0.32989  1.0000
  C   C60       1.0  0.46061  0.54154  0.33746  1.0000
  C   C61       1.0  0.42916  0.53318  0.33035  1.0000
  C   C62       1.0  0.36911  0.52457  0.30767  1.0000
  C   C63       1.0  0.38492  0.52058  0.23469  1.0000
  C   C64       1.0  0.41444  0.52495  0.24555  1.0000
  C   C65       1.0  0.56613  0.67082  0.32676  1.0000
  C   C66       1.0  0.57373  0.73039  0.30239  1.0000
  C   C67       1.0  0.57455  0.71314  0.22804  1.0000
  C   C68       1.0  0.57068  0.68386  0.23979  1.0000
  C   C69       1.0  0.64715  0.59170  0.33023  1.0000
  C   C70       1.0  0.66187  0.59995  0.24542  1.0000
  C   C71       1.0  0.69143  0.60445  0.23454  1.0000
  C   C72       1.0  0.70729  0.60053  0.30751  1.0000
  C   C73       1.0  0.51019  0.45404  0.32687  1.0000
  C   C74       1.0  0.50542  0.44086  0.24004  1.0000
  C   C75       1.0  0.50281  0.39454  0.30264  1.0000
  C   C76       1.0  0.50167  0.41162  0.22835  1.0000
  H   H23       1.0  0.49881  0.40321  0.16390  1.0000
  H   H24       1.0  0.50558  0.45288  0.18419  1.0000
  H   H25       1.0  0.45337  0.44805  0.33598  1.0000
  H   H26       1.0  0.42410  0.47664  0.33720  1.0000
  H   H27       1.0  0.51497  0.53915  0.33875  1.0000
  H   H28       1.0  0.56134  0.58571  0.33902  1.0000
  H   H29       1.0  0.57183  0.47995  0.32372  1.0000
  H   H30       1.0  0.62159  0.52994  0.32402  1.0000
  H   H31       1.0  0.65078  0.60188  0.19014  1.0000
  H   H32       1.0  0.70100  0.60991  0.17139  1.0000
  H   H33       1.0  0.65221  0.64823  0.33702  1.0000
  H   H34       1.0  0.62294  0.67681  0.33583  1.0000
  H   H35       1.0  0.45473  0.59493  0.32428  1.0000
  H   H36       1.0  0.50450  0.64493  0.32404  1.0000
  H   H37       1.0  0.57034  0.67174  0.18394  1.0000
  H   H38       1.0  0.57726  0.72147  0.16352  1.0000
  H   H39       1.0  0.42552  0.52303  0.19022  1.0000
  H   H40       1.0  0.37537  0.51518  0.17152  1.0000
  C   C77       1.0  0.57695  0.75909  0.28689  1.0000
  C   C78       1.0  0.73623  0.60424  0.29265  1.0000
  C   C79       1.0  0.49975  0.36590  0.28718  1.0000
  C   C80       1.0  0.34024  0.52102  0.29280  1.0000
  H   H41       1.0  0.58373  0.76820  0.22585  1.0000
  H   H42       1.0  0.74655  0.61348  0.23447  1.0000
  H   H43       1.0  0.49290  0.35671  0.22625  1.0000
  H   H44       1.0  0.32988  0.51178  0.23468  1.0000
  C   C81       1.0  0.63030  0.07920  0.33685  1.0000
  C   C82       1.0  0.61473  0.04770  0.33759  1.0000
  C   C83       1.0  0.58351  0.03744  0.33833  1.0000
  N   N9        1.0  0.58142  0.06312  0.33925  1.0000
  C   C84       1.0  0.60901  0.08903  0.33760  1.0000
  C   C85       1.0  0.61626  0.12006  0.33598  1.0000
  C   C86       1.0  0.59431  0.12974  0.33632  1.0000
  N   N10       1.0  0.56360  0.11247  0.34055  1.0000
  C   C87       1.0  0.54991  0.12952  0.33714  1.0000
  C   C88       1.0  0.57346  0.15973  0.33037  1.0000
  C   C89       1.0  0.60070  0.15987  0.33005  1.0000
  C   C90       1.0  0.51821  0.11954  0.33758  1.0000
  C   C91       1.0  0.49472  0.08836  0.33836  1.0000
  N   N11       1.0  0.49682  0.06267  0.33927  1.0000
  C   C92       1.0  0.46923  0.03677  0.33746  1.0000
  C   C93       1.0  0.44794  0.04660  0.33663  1.0000
  C   C94       1.0  0.46350  0.07809  0.33741  1.0000
  C   C95       1.0  0.46198  0.00574  0.33579  1.0000
  C   C96       1.0  0.48392  0.99606  0.33607  1.0000
  N   N12       1.0  0.51464  0.01333  0.34027  1.0000
  C   C97       1.0  0.52833  0.99628  0.33685  1.0000
  C   C98       1.0  0.50478  0.96607  0.33017  1.0000
  C   C99       1.0  0.47753  0.96593  0.32995  1.0000
  C   C100      1.0  0.56003  0.00626  0.33740  1.0000
  C   C101      1.0  0.56840  0.98318  0.33025  1.0000
  C   C102      1.0  0.57701  0.93172  0.30757  1.0000
  C   C103      1.0  0.58096  0.95150  0.23455  1.0000
  C   C104      1.0  0.57656  0.97663  0.24540  1.0000
  C   C105      1.0  0.43074  0.98246  0.32658  1.0000
  C   C106      1.0  0.37117  0.93051  0.30233  1.0000
  C   C107      1.0  0.38842  0.94853  0.22794  1.0000
  C   C108      1.0  0.41769  0.97396  0.23964  1.0000
  C   C109      1.0  0.50983  0.14261  0.33029  1.0000
  C   C110      1.0  0.50168  0.14911  0.24539  1.0000
  C   C111      1.0  0.49718  0.17417  0.23445  1.0000
  C   C112      1.0  0.50105  0.19395  0.30740  1.0000
  C   C113      1.0  0.64751  0.14335  0.32690  1.0000
  C   C114      1.0  0.66067  0.15175  0.24004  1.0000
  C   C115      1.0  0.70701  0.19542  0.30270  1.0000
  C   C116      1.0  0.68991  0.17723  0.22838  1.0000
  H   H45       1.0  0.69833  0.18278  0.16393  1.0000
  H   H46       1.0  0.64863  0.13989  0.18419  1.0000
  H   H47       1.0  0.65351  0.09252  0.33569  1.0000
  H   H48       1.0  0.62493  0.03466  0.33683  1.0000
  H   H49       1.0  0.56240  0.06300  0.33905  1.0000
  H   H50       1.0  0.51584  0.06280  0.33938  1.0000
  H   H51       1.0  0.62159  0.17907  0.32405  1.0000
  H   H52       1.0  0.57159  0.17882  0.32440  1.0000
  H   H53       1.0  0.49978  0.13610  0.19012  1.0000
  H   H54       1.0  0.49180  0.17830  0.17122  1.0000
  H   H55       1.0  0.45331  0.09113  0.33667  1.0000
  H   H56       1.0  0.42473  0.03327  0.33532  1.0000
  H   H57       1.0  0.50664  0.94696  0.32453  1.0000
  H   H58       1.0  0.45663  0.94672  0.32424  1.0000
  H   H59       1.0  0.42982  0.98568  0.18376  1.0000
  H   H60       1.0  0.38008  0.94288  0.16344  1.0000
  H   H61       1.0  0.57848  0.98962  0.19009  1.0000
  H   H62       1.0  0.58634  0.94733  0.17136  1.0000
  C   C117      1.0  0.34247  0.90502  0.28688  1.0000
  C   C118      1.0  0.49737  0.21918  0.29246  1.0000
  C   C119      1.0  0.73566  0.22098  0.28726  1.0000
  C   C120      1.0  0.58059  0.90642  0.29271  1.0000
  H   H63       1.0  0.33336  0.90266  0.22583  1.0000
  H   H64       1.0  0.48820  0.22030  0.23419  1.0000
  H   H65       1.0  0.74487  0.22330  0.22636  1.0000
  H   H66       1.0  0.58987  0.90532  0.23463  1.0000
  C   C121      1.0  0.29946  0.52839  0.34568  1.0000
  C   C122      1.0  0.28590  0.52948  0.26313  1.0000
  C   C123      1.0  0.25828  0.52974  0.26165  1.0000
  H   H67       1.0  0.29641  0.53079  0.20292  1.0000
  H   H68       1.0  0.24972  0.53118  0.20046  1.0000
  N   N13       1.0  0.32638  0.52929  0.34934  1.0000
  C   C124      1.0  0.57323  0.85829  0.34556  1.0000
  C   C125      1.0  0.57213  0.84362  0.26302  1.0000
  C   C126      1.0  0.57186  0.81573  0.26155  1.0000
  H   H69       1.0  0.57081  0.85281  0.20281  1.0000
  H   H70       1.0  0.57042  0.80572  0.20036  1.0000
  N   N14       1.0  0.57230  0.88429  0.34923  1.0000
  C   C127      1.0  0.24327  0.80210  0.34570  1.0000
  C   C128      1.0  0.25793  0.81565  0.26314  1.0000
  C   C129      1.0  0.28581  0.84328  0.26163  1.0000
  H   H71       1.0  0.24875  0.80513  0.20294  1.0000
  H   H72       1.0  0.29584  0.85182  0.20042  1.0000
  N   N15       1.0  0.21727  0.77518  0.34939  1.0000
  C   C130      1.0  0.77720  0.59724  0.34568  1.0000
  C   C131      1.0  0.79085  0.59625  0.26317  1.0000
  C   C132      1.0  0.81857  0.59617  0.26178  1.0000
  H   H73       1.0  0.78032  0.59482  0.20293  1.0000
  H   H74       1.0  0.82719  0.59476  0.20061  1.0000
  N   N16       1.0  0.75020  0.59615  0.34928  1.0000
  C   C133      1.0  0.50433  0.26716  0.34554  1.0000
  C   C134      1.0  0.50536  0.28180  0.26303  1.0000
  C   C135      1.0  0.50541  0.30959  0.26164  1.0000
  H   H75       1.0  0.50677  0.27268  0.20280  1.0000
  H   H76       1.0  0.50684  0.31961  0.20049  1.0000
  N   N17       1.0  0.50540  0.24123  0.34915  1.0000
  C   C136      1.0  0.83441  0.32432  0.34565  1.0000
  C   C137      1.0  0.81976  0.31070  0.26314  1.0000
  C   C138      1.0  0.79197  0.28297  0.26173  1.0000
  H   H77       1.0  0.82888  0.32123  0.20291  1.0000
  H   H78       1.0  0.78195  0.27436  0.20057  1.0000
  N   N18       1.0  0.86031  0.35133  0.34929  1.0000
  C   C139      1.0  0.13766  0.68816  0.40422  1.0000
  C   C140      1.0  0.16296  0.71767  0.39299  1.0000
  C   C141      1.0  0.13672  0.53608  0.40161  1.0000
  C   C142      1.0  0.16224  0.53226  0.38962  1.0000
  C   C143      1.0  0.91440  0.40903  0.39279  1.0000
  C   C144      1.0  0.93963  0.43858  0.40407  1.0000
  C   C145      1.0  0.94041  0.59048  0.40177  1.0000
  C   C146      1.0  0.91485  0.59422  0.38985  1.0000
  H   H79       1.0  0.90233  0.59305  0.44556  1.0000
  H   H80       1.0  0.94546  0.58622  0.46521  1.0000
  H   H81       1.0  0.94329  0.44892  0.46590  1.0000
  H   H82       1.0  0.90072  0.39859  0.44746  1.0000
  H   H83       1.0  0.13160  0.54020  0.46513  1.0000
  H   H84       1.0  0.17465  0.53322  0.44537  1.0000
  H   H85       1.0  0.17667  0.72806  0.44764  1.0000
  H   H86       1.0  0.13398  0.67780  0.46601  1.0000
  C   C147      1.0  0.41341  0.53672  0.40404  1.0000
  C   C148      1.0  0.38390  0.53251  0.39285  1.0000
  C   C149      1.0  0.56552  0.68787  0.40157  1.0000
  C   C150      1.0  0.56935  0.71721  0.38957  1.0000
  C   C151      1.0  0.69249  0.59255  0.39269  1.0000
  C   C152      1.0  0.66294  0.58822  0.40390  1.0000
  C   C153      1.0  0.51109  0.43714  0.40165  1.0000
  C   C154      1.0  0.50736  0.40783  0.38973  1.0000
  H   H87       1.0  0.50855  0.39650  0.44543  1.0000
  H   H88       1.0  0.51535  0.44645  0.46509  1.0000
  H   H89       1.0  0.65257  0.58150  0.46567  1.0000
  H   H90       1.0  0.70290  0.58927  0.44735  1.0000
  H   H91       1.0  0.56144  0.67866  0.46512  1.0000
  H   H92       1.0  0.56842  0.72868  0.44533  1.0000
  H   H93       1.0  0.37352  0.53584  0.44752  1.0000
  H   H94       1.0  0.42379  0.54343  0.46580  1.0000
  C   C155      1.0  0.56490  0.96392  0.40397  1.0000
  C   C156      1.0  0.56911  0.93862  0.39277  1.0000
  C   C157      1.0  0.41369  0.96486  0.40146  1.0000
  C   C158      1.0  0.38434  0.93936  0.38951  1.0000
  C   C159      1.0  0.50897  0.18713  0.39265  1.0000
  C   C160      1.0  0.51329  0.16190  0.40392  1.0000
  C   C161      1.0  0.66443  0.16111  0.40172  1.0000
  C   C162      1.0  0.69373  0.18668  0.38978  1.0000
  H   H95       1.0  0.70508  0.19919  0.44551  1.0000
  H   H96       1.0  0.65511  0.15606  0.46515  1.0000
  H   H97       1.0  0.51994  0.15823  0.46576  1.0000
  H   H98       1.0  0.51222  0.20081  0.44731  1.0000
  H   H99       1.0  0.42291  0.97002  0.46500  1.0000
  H   H100      1.0  0.37288  0.92698  0.44529  1.0000
  H   H101      1.0  0.56583  0.92494  0.44747  1.0000
  H   H102      1.0  0.55822  0.96761  0.46576  1.0000
  C   C163      1.0  0.24311  0.52898  0.34274  1.0000
  C   C164      1.0  0.25689  0.52841  0.42508  1.0000
  C   C165      1.0  0.28477  0.52815  0.42756  1.0000
  H   H103      1.0  0.24658  0.52829  0.48476  1.0000
  N   N19       1.0  0.29837  0.52760  0.51059  1.0000
  O   O1        1.0  0.30470  0.55063  0.55780  1.0000
  O   O2        1.0  0.28118  0.50415  0.55554  1.0000
  N   N20       1.0  0.21728  0.53017  0.34641  1.0000
  C   C166      1.0  0.57265  0.80136  0.34263  1.0000
  C   C167      1.0  0.57318  0.81570  0.42497  1.0000
  C   C168      1.0  0.57344  0.84384  0.42745  1.0000
  H   H104      1.0  0.57329  0.80551  0.48466  1.0000
  N   N21       1.0  0.57397  0.85799  0.51048  1.0000
  O   O3        1.0  0.55093  0.84130  0.55763  1.0000
  O   O4        1.0  0.59741  0.86426  0.55548  1.0000
  N   N22       1.0  0.57143  0.77433  0.34631  1.0000
  C   C169      1.0  0.30021  0.85846  0.34270  1.0000
  C   C170      1.0  0.28587  0.84468  0.42506  1.0000
  C   C171      1.0  0.25773  0.81680  0.42756  1.0000
  H   H105      1.0  0.29606  0.85500  0.48472  1.0000
  N   N23       1.0  0.24357  0.80321  0.51061  1.0000
  O   O5        1.0  0.26027  0.79687  0.55778  1.0000
  O   O6        1.0  0.23731  0.82039  0.55557  1.0000
  N   N24       1.0  0.32724  0.88428  0.34634  1.0000
  C   C172      1.0  0.83376  0.59706  0.34290  1.0000
  C   C173      1.0  0.81991  0.59754  0.42520  1.0000
  C   C174      1.0  0.79193  0.59760  0.42760  1.0000
  H   H106      1.0  0.83024  0.59775  0.48491  1.0000
  N   N25       1.0  0.77825  0.59807  0.51059  1.0000
  O   O7        1.0  0.77204  0.57509  0.55784  1.0000
  O   O8        1.0  0.79531  0.62157  0.55553  1.0000
  N   N26       1.0  0.85968  0.59604  0.34661  1.0000
  C   C175      1.0  0.50451  0.32390  0.34276  1.0000
  C   C176      1.0  0.50401  0.30957  0.42506  1.0000
  C   C177      1.0  0.50395  0.28152  0.42746  1.0000
  H   H107      1.0  0.50379  0.31969  0.48477  1.0000
  N   N27       1.0  0.50345  0.26737  0.51045  1.0000
  O   O9        1.0  0.52642  0.28415  0.55775  1.0000
  O   O10       1.0  0.47994  0.26094  0.55533  1.0000
  N   N28       1.0  0.50552  0.35083  0.34648  1.0000
  C   C178      1.0  0.77767  0.26775  0.34284  1.0000
  C   C179      1.0  0.79198  0.28161  0.42515  1.0000
  C   C180      1.0  0.82003  0.30960  0.42757  1.0000
  H   H108      1.0  0.78185  0.27128  0.48486  1.0000
  N   N29       1.0  0.83416  0.32327  0.51057  1.0000
  O   O11       1.0  0.81737  0.32947  0.55781  1.0000
  O   O12       1.0  0.84058  0.30620  0.55550  1.0000
  N   N30       1.0  0.75073  0.24185  0.34655  1.0000
