data_image0
_chemical_formula_structural       HCOC4HC3HOHC2H2C4HC4HO2H2C2H2C4HC4HO2H2C2H2NC2HN2C2HN2C2HN2C2HN2C2HN2C2HNC2HC2HC2H2C2HC2HC2H2C2HC2HC2H2CNC2OH3NCNC2OH3NCNC2OH3NCNC2OH3NCNC2OH3NCNC2OH3N
_chemical_formula_sum              "H54 C78 O12 N24"
_cell_length_a       31.6587
_cell_length_b       31.6587
_cell_length_c       14.9593
_cell_angle_alpha    90
_cell_angle_beta     90
_cell_angle_gamma    120

_space_group_name_H-M_alt    "P 1"
_space_group_IT_number       1

loop_
  _space_group_symop_operation_xyz
  'x, y, z'

loop_
  _atom_site_type_symbol
  _atom_site_label
  _atom_site_symmetry_multiplicity
  _atom_site_fract_x
  _atom_site_fract_y
  _atom_site_fract_z
  _atom_site_occupancy
  H   H1        1.0  0.01767  0.60882  0.28756  1.0000
  C   C1        1.0  0.02795  0.51842  0.30675  1.0000
  O   O1        1.0  0.02281  0.58689  0.24811  1.0000
  C   C2        1.0  0.97624  0.48435  0.30683  1.0000
  C   C3        1.0  0.87857  0.41792  0.35564  1.0000
  C   C4        1.0  0.90663  0.39863  0.31982  1.0000
  C   C5        1.0  0.95556  0.43268  0.29472  1.0000
  H   H2        1.0  0.84313  0.39457  0.37232  1.0000
  C   C6        1.0  0.04862  0.57008  0.29462  1.0000
  C   C7        1.0  0.09756  0.60413  0.31972  1.0000
  C   C8        1.0  0.12562  0.58481  0.35541  1.0000
  H   H3        1.0  0.16103  0.60814  0.37236  1.0000
  O   O2        1.0  0.98136  0.41590  0.24809  1.0000
  H   H4        1.0  0.98653  0.39397  0.28747  1.0000
  C   C9        1.0  0.88445  0.34722  0.30890  1.0000
  C   C10       1.0  0.11976  0.65554  0.30883  1.0000
  H   H5        1.0  0.90177  0.33194  0.27589  1.0000
  H   H6        1.0  0.10244  0.67084  0.27586  1.0000
  C   C11       1.0  0.51905  0.49251  0.30668  1.0000
  C   C12       1.0  0.58551  0.46132  0.35539  1.0000
  C   C13       1.0  0.60478  0.50865  0.31951  1.0000
  C   C14       1.0  0.57071  0.52351  0.29446  1.0000
  H   H7        1.0  0.60884  0.44922  0.37215  1.0000
  C   C15       1.0  0.48495  0.51011  0.30673  1.0000
  C   C16       1.0  0.43329  0.47908  0.29449  1.0000
  C   C17       1.0  0.39921  0.49397  0.31936  1.0000
  C   C18       1.0  0.41848  0.54140  0.35480  1.0000
  H   H8        1.0  0.39510  0.55348  0.37130  1.0000
  O   O3        1.0  0.58744  0.56607  0.24779  1.0000
  O   O4        1.0  0.41652  0.43644  0.24807  1.0000
  H   H9        1.0  0.60941  0.59319  0.28711  1.0000
  H   H10       1.0  0.39460  0.40939  0.28757  1.0000
  C   C19       1.0  0.65619  0.53787  0.30850  1.0000
  C   C20       1.0  0.34780  0.46470  0.30849  1.0000
  H   H11       1.0  0.67145  0.57045  0.27546  1.0000
  H   H12       1.0  0.33254  0.43207  0.27560  1.0000
  C   C21       1.0  0.51086  0.02726  0.30697  1.0000
  C   C22       1.0  0.54209  0.12496  0.35561  1.0000
  C   C23       1.0  0.49472  0.09686  0.31988  1.0000
  C   C24       1.0  0.47985  0.04792  0.29485  1.0000
  H   H13       1.0  0.55418  0.16041  0.37217  1.0000
  C   C25       1.0  0.49325  0.97556  0.30687  1.0000
  C   C26       1.0  0.52427  0.95492  0.29474  1.0000
  C   C27       1.0  0.50943  0.90600  0.31982  1.0000
  C   C28       1.0  0.46205  0.87791  0.35549  1.0000
  H   H14       1.0  0.45000  0.84251  0.37245  1.0000
  O   O5        1.0  0.43725  0.02209  0.24826  1.0000
  O   O6        1.0  0.56689  0.98076  0.24821  1.0000
  H   H15       1.0  0.41016  0.01692  0.28768  1.0000
  H   H16       1.0  0.59397  0.98592  0.28764  1.0000
  C   C29       1.0  0.46547  0.11901  0.30897  1.0000
  C   C30       1.0  0.53868  0.88384  0.30894  1.0000
  H   H17       1.0  0.43286  0.10167  0.27602  1.0000
  H   H18       1.0  0.57131  0.90120  0.27606  1.0000
  N   N1        1.0  0.23292  0.44005  0.30609  1.0000
  C   C31       1.0  0.18882  0.43808  0.30877  1.0000
  C   C32       1.0  0.18469  0.47470  0.35502  1.0000
  H   H19       1.0  0.16052  0.41264  0.27130  1.0000
  N   N2        1.0  0.14530  0.48111  0.34797  1.0000
  N   N3        1.0  0.56346  0.79374  0.30661  1.0000
  C   C33       1.0  0.56555  0.75167  0.30931  1.0000
  C   C34       1.0  0.52877  0.71077  0.35502  1.0000
  H   H20       1.0  0.59103  0.74886  0.27190  1.0000
  N   N4        1.0  0.52235  0.66498  0.34764  1.0000
  N   N5        1.0  0.20990  0.77038  0.30637  1.0000
  C   C35       1.0  0.25203  0.81448  0.30891  1.0000
  C   C36       1.0  0.29282  0.81865  0.35509  1.0000
  H   H21       1.0  0.25484  0.84283  0.27167  1.0000
  N   N6        1.0  0.33861  0.85807  0.34805  1.0000
  N   N7        1.0  0.77105  0.56255  0.30592  1.0000
  C   C37       1.0  0.81514  0.56451  0.30846  1.0000
  C   C38       1.0  0.81932  0.52792  0.35473  1.0000
  H   H22       1.0  0.84348  0.59001  0.27114  1.0000
  N   N8        1.0  0.85874  0.52154  0.34773  1.0000
  N   N9        1.0  0.44075  0.20916  0.30657  1.0000
  C   C39       1.0  0.43874  0.25127  0.30919  1.0000
  C   C40       1.0  0.47539  0.29207  0.35529  1.0000
  H   H23       1.0  0.41327  0.25408  0.27176  1.0000
  N   N10       1.0  0.48177  0.33785  0.34810  1.0000
  N   N11       1.0  0.79430  0.23235  0.30653  1.0000
  C   C41       1.0  0.75223  0.18821  0.30927  1.0000
  C   C42       1.0  0.71140  0.18406  0.35528  1.0000
  H   H24       1.0  0.74936  0.15993  0.27175  1.0000
  N   N12       1.0  0.66560  0.14469  0.34806  1.0000
  C   C43       1.0  0.94304  0.50046  0.33190  1.0000
  C   C44       1.0  0.89433  0.46806  0.35613  1.0000
  H   H25       1.0  0.95513  0.53623  0.34537  1.0000
  C   C45       1.0  0.10982  0.53467  0.35612  1.0000
  C   C46       1.0  0.06113  0.50226  0.33174  1.0000
  H   H26       1.0  0.04897  0.46653  0.34567  1.0000
  C   C47       1.0  0.14433  0.52081  0.38030  1.0000
  C   C48       1.0  0.85976  0.48186  0.38007  1.0000
  H   H27       1.0  0.17603  0.54771  0.40817  1.0000
  H   H28       1.0  0.82803  0.45500  0.40793  1.0000
  C   C49       1.0  0.50293  0.44319  0.33174  1.0000
  C   C50       1.0  0.53537  0.42695  0.35609  1.0000
  H   H29       1.0  0.46720  0.41960  0.34571  1.0000
  C   C51       1.0  0.46861  0.57577  0.35549  1.0000
  C   C52       1.0  0.50105  0.55944  0.33165  1.0000
  H   H30       1.0  0.53682  0.58310  0.34509  1.0000
  C   C53       1.0  0.48244  0.62420  0.37905  1.0000
  C   C54       1.0  0.52151  0.37856  0.38017  1.0000
  H   H31       1.0  0.45544  0.62900  0.40654  1.0000
  H   H32       1.0  0.54845  0.37381  0.40800  1.0000
  C   C55       1.0  0.56017  0.06048  0.33204  1.0000
  C   C56       1.0  0.57647  0.10920  0.35615  1.0000
  H   H33       1.0  0.58385  0.04839  0.34554  1.0000
  C   C57       1.0  0.42767  0.89366  0.35618  1.0000
  C   C58       1.0  0.44391  0.94234  0.33182  1.0000
  H   H34       1.0  0.42031  0.95447  0.34574  1.0000
  C   C59       1.0  0.37932  0.85910  0.38031  1.0000
  C   C60       1.0  0.62489  0.14377  0.37996  1.0000
  H   H35       1.0  0.37449  0.82739  0.40818  1.0000
  H   H36       1.0  0.62966  0.17550  0.40765  1.0000
  C   C61       1.0  0.27314  0.47470  0.34997  1.0000
  N   N13       1.0  0.22508  0.50793  0.39975  1.0000
  C   C62       1.0  0.26853  0.50956  0.40182  1.0000
  C   C63       1.0  0.30835  0.54963  0.45373  1.0000
  O   O7        1.0  0.33010  0.53213  0.51677  1.0000
  H   H37       1.0  0.29522  0.57108  0.48937  1.0000
  H   H38       1.0  0.33638  0.57437  0.40733  1.0000
  H   H39       1.0  0.30552  0.51286  0.56250  1.0000
  N   N14       1.0  0.31798  0.48015  0.34106  1.0000
  C   C64       1.0  0.52863  0.79915  0.35017  1.0000
  N   N15       1.0  0.49535  0.71779  0.39940  1.0000
  C   C65       1.0  0.49367  0.75957  0.40164  1.0000
  C   C66       1.0  0.45333  0.75909  0.45304  1.0000
  O   O8        1.0  0.47053  0.79811  0.51652  1.0000
  H   H40       1.0  0.43175  0.72439  0.48821  1.0000
  H   H41       1.0  0.42879  0.76253  0.40634  1.0000
  H   H42       1.0  0.48960  0.79265  0.56246  1.0000
  N   N16       1.0  0.52316  0.83853  0.34135  1.0000
  C   C67       1.0  0.20440  0.73019  0.35025  1.0000
  N   N17       1.0  0.28572  0.77827  0.39976  1.0000
  C   C68       1.0  0.24392  0.73481  0.40194  1.0000
  C   C69       1.0  0.24428  0.69499  0.45365  1.0000
  O   O9        1.0  0.20517  0.67325  0.51695  1.0000
  H   H43       1.0  0.27893  0.70811  0.48902  1.0000
  H   H44       1.0  0.24088  0.66695  0.40714  1.0000
  H   H45       1.0  0.21057  0.69783  0.56276  1.0000
  N   N18       1.0  0.16503  0.68531  0.34142  1.0000
  C   C70       1.0  0.73086  0.52790  0.34988  1.0000
  N   N19       1.0  0.77896  0.49468  0.39949  1.0000
  C   C71       1.0  0.73550  0.49303  0.40164  1.0000
  C   C72       1.0  0.69572  0.45294  0.45359  1.0000
  O   O10       1.0  0.67405  0.47044  0.51680  1.0000
  H   H46       1.0  0.70886  0.43147  0.48908  1.0000
  H   H47       1.0  0.66763  0.42823  0.40722  1.0000
  H   H48       1.0  0.69867  0.48968  0.56249  1.0000
  N   N20       1.0  0.68599  0.52241  0.34108  1.0000
  C   C73       1.0  0.47545  0.20366  0.35040  1.0000
  N   N21       1.0  0.50868  0.28497  0.39996  1.0000
  C   C74       1.0  0.51034  0.24317  0.40211  1.0000
  C   C75       1.0  0.55048  0.24351  0.45392  1.0000
  O   O11       1.0  0.53306  0.20434  0.51712  1.0000
  H   H49       1.0  0.57197  0.27813  0.48939  1.0000
  H   H50       1.0  0.57517  0.24015  0.40746  1.0000
  H   H51       1.0  0.51384  0.20971  0.56290  1.0000
  N   N22       1.0  0.48093  0.16428  0.34154  1.0000
  C   C76       1.0  0.79978  0.27257  0.35026  1.0000
  N   N23       1.0  0.71848  0.22448  0.39981  1.0000
  C   C77       1.0  0.76028  0.26795  0.40197  1.0000
  C   C78       1.0  0.75988  0.30778  0.45357  1.0000
  O   O12       1.0  0.79899  0.32959  0.51686  1.0000
  H   H52       1.0  0.72523  0.29466  0.48893  1.0000
  H   H53       1.0  0.76326  0.33578  0.40697  1.0000
  H   H54       1.0  0.79360  0.30505  0.56273  1.0000
  N   N24       1.0  0.83917  0.31743  0.34143  1.0000
