data_image0
_chemical_formula_structural       C2OCHC2OCH3C2HC2HCHNC3HC2HNC3HC4OH4C6O2H4C6O2H4NCNHCHCNHCNHCNHC3HO2C3HOC3OHC3HOC3OHC2NHC3NCH3C2NCH3C3NCH3C3NCH3C3NCH3C3OH4C6O2H4C6O2H4NCNHCHCNHCNHCNHC3HO2C3HOC3OHC3HOC3OHC2NHC3NCH3C2NCH3C3NCH3C3NCH3C3NCH3C6O2H3C6O2H4C6O2H4CNHCNHCNHCNHCNHCNHC3HOC3OHC3HOC3OHC3HOC3OHC3NCH3C3NCH3C3NCH3C3NCH3C3NCH3C3NCH3C6O2H3C6O2H4C6O2H4CNHCNHCNHCNHCNHCNHC3HOC3OHC3HOC3OHC3HOC3OHC3NCH3C3NCH3C3NCH3C3NCH3C3NCH3C3NCH3
_chemical_formula_sum              "C264 O48 H168 N48"
_cell_length_a       46.1003
_cell_length_b       46.1003
_cell_length_c       14.9298
_cell_angle_alpha    90
_cell_angle_beta     90
_cell_angle_gamma    120

_space_group_name_H-M_alt    "P 1"
_space_group_IT_number       1

loop_
  _space_group_symop_operation_xyz
  'x, y, z'

loop_
  _atom_site_type_symbol
  _atom_site_label
  _atom_site_symmetry_multiplicity
  _atom_site_fract_x
  _atom_site_fract_y
  _atom_site_fract_z
  _atom_site_occupancy
  C   C1        1.0  0.02168  0.26150  0.31452  1.0000
  C   C2        1.0  0.04177  0.29743  0.30718  1.0000
  O   O1        1.0  0.02981  0.31698  0.27418  1.0000
  C   C3        1.0  0.04022  0.24471  0.33094  1.0000
  H   H1        1.0  0.02840  0.21963  0.34195  1.0000
  C   C4        1.0  0.02168  0.76150  0.31452  1.0000
  C   C5        1.0  0.04177  0.79743  0.30718  1.0000
  O   O2        1.0  0.02981  0.81698  0.27418  1.0000
  C   C6        1.0  0.04022  0.74471  0.33094  1.0000
  H   H2        1.0  0.02840  0.71963  0.34195  1.0000
  H   H3        1.0  0.02586  0.31189  0.20987  1.0000
  H   H4        1.0  0.02586  0.81189  0.20987  1.0000
  C   C7        1.0  0.07600  0.31513  0.33281  1.0000
  C   C8        1.0  0.07519  0.26141  0.34410  1.0000
  H   H5        1.0  0.08139  0.25512  0.52354  1.0000
  C   C9        1.0  0.07600  0.81513  0.33281  1.0000
  C   C10       1.0  0.07519  0.76141  0.34410  1.0000
  H   H6        1.0  0.08139  0.75512  0.52354  1.0000
  C   C11       1.0  0.10523  0.23743  0.27249  1.0000
  H   H7        1.0  0.09392  0.23648  0.21274  1.0000
  N   N1        1.0  0.10848  0.37001  0.26913  1.0000
  C   C12       1.0  0.09250  0.29671  0.34833  1.0000
  C   C13       1.0  0.09337  0.24418  0.35319  1.0000
  C   C14       1.0  0.10617  0.25760  0.52011  1.0000
  H   H8        1.0  0.10705  0.24056  0.56935  1.0000
  C   C15       1.0  0.09508  0.35034  0.34258  1.0000
  C   C16       1.0  0.10523  0.73743  0.27249  1.0000
  H   H9        1.0  0.09392  0.73648  0.21274  1.0000
  N   N2        1.0  0.10848  0.87001  0.26913  1.0000
  C   C17       1.0  0.09250  0.79671  0.34833  1.0000
  C   C18       1.0  0.09337  0.74417  0.35319  1.0000
  C   C19       1.0  0.10617  0.75760  0.52011  1.0000
  H   H10       1.0  0.10705  0.74056  0.56935  1.0000
  C   C20       1.0  0.09508  0.85034  0.34258  1.0000
  C   C21       1.0  0.48535  0.24322  0.31447  1.0000
  C   C22       1.0  0.43097  0.18960  0.33211  1.0000
  C   C23       1.0  0.46524  0.20730  0.30692  1.0000
  O   O3        1.0  0.47722  0.18774  0.27402  1.0000
  H   H11       1.0  0.98121  0.19284  0.20972  1.0000
  H   H12       1.0  0.52586  0.31189  0.20987  1.0000
  H   H13       1.0  0.37196  0.18795  0.29377  1.0000
  H   H14       1.0  0.13502  0.31692  0.29424  1.0000
  C   C24       1.0  0.26269  0.24338  0.31536  1.0000
  C   C25       1.0  0.31638  0.24279  0.33390  1.0000
  C   C26       1.0  0.29863  0.25927  0.30813  1.0000
  C   C27       1.0  0.24432  0.26135  0.31499  1.0000
  C   C28       1.0  0.20838  0.24545  0.30745  1.0000
  C   C29       1.0  0.19062  0.26200  0.33229  1.0000
  O   O4        1.0  0.31817  0.29077  0.27504  1.0000
  O   O5        1.0  0.18885  0.21389  0.27475  1.0000
  H   H15       1.0  0.31311  0.28958  0.21071  1.0000
  H   H16       1.0  0.19396  0.21494  0.21046  1.0000
  H   H17       1.0  0.31810  0.18548  0.29561  1.0000
  H   H18       1.0  0.18890  0.31928  0.29306  1.0000
  C   C30       1.0  0.26255  0.02054  0.31441  1.0000
  C   C31       1.0  0.26324  0.07490  0.33148  1.0000
  C   C32       1.0  0.24666  0.04058  0.30682  1.0000
  C   C33       1.0  0.24456  0.48422  0.31474  1.0000
  C   C34       1.0  0.26044  0.46417  0.30716  1.0000
  C   C35       1.0  0.24391  0.42988  0.33227  1.0000
  O   O6        1.0  0.21507  0.02851  0.27426  1.0000
  O   O7        1.0  0.29197  0.47619  0.27419  1.0000
  H   H19       1.0  0.21609  0.52444  0.20998  1.0000
  H   H20       1.0  0.29081  0.98011  0.20987  1.0000
  H   H21       1.0  0.32045  0.13390  0.29176  1.0000
  H   H22       1.0  0.18658  0.37092  0.29282  1.0000
  N   N3        1.0  0.13596  0.23998  0.26882  1.0000
  C   C36       1.0  0.26853  0.36913  0.27192  1.0000
  N   N4        1.0  0.26614  0.39740  0.26825  1.0000
  H   H23       1.0  0.26976  0.35884  0.21232  1.0000
  C   C37       1.0  0.13672  0.40070  0.27283  1.0000
  H   H24       1.0  0.14683  0.41224  0.21313  1.0000
  C   C38       1.0  0.40170  0.26744  0.27310  1.0000
  N   N5        1.0  0.37098  0.26492  0.26989  1.0000
  H   H25       1.0  0.41293  0.26847  0.21316  1.0000
  C   C39       1.0  0.23853  0.13582  0.27287  1.0000
  N   N6        1.0  0.24097  0.10759  0.26852  1.0000
  H   H26       1.0  0.23722  0.14614  0.21339  1.0000
  C   C40       1.0  0.37029  0.10421  0.27160  1.0000
  N   N7        1.0  0.39846  0.13496  0.26829  1.0000
  H   H27       1.0  0.36003  0.09293  0.21174  1.0000
  C   C41       1.0  0.46681  0.26000  0.33110  1.0000
  C   C42       1.0  0.43183  0.24332  0.34392  1.0000
  C   C43       1.0  0.41447  0.20800  0.34775  1.0000
  H   H28       1.0  0.47864  0.28508  0.34220  1.0000
  O   O8        1.0  0.38040  0.19130  0.35559  1.0000
  O   O9        1.0  0.12658  0.31341  0.35609  1.0000
  C   C44       1.0  0.24596  0.20806  0.33183  1.0000
  C   C45       1.0  0.26270  0.18985  0.34536  1.0000
  C   C46       1.0  0.29800  0.20789  0.34966  1.0000
  H   H29       1.0  0.22085  0.19472  0.34223  1.0000
  O   O10       1.0  0.31477  0.19059  0.35743  1.0000
  C   C47       1.0  0.20897  0.29692  0.34759  1.0000
  C   C48       1.0  0.24429  0.31493  0.34382  1.0000
  C   C49       1.0  0.26103  0.29669  0.33120  1.0000
  O   O11       1.0  0.19221  0.31424  0.35498  1.0000
  H   H30       1.0  0.28612  0.31001  0.34205  1.0000
  C   C50       1.0  0.29790  0.03915  0.33061  1.0000
  C   C51       1.0  0.31617  0.07416  0.34284  1.0000
  C   C52       1.0  0.29819  0.09149  0.34643  1.0000
  H   H31       1.0  0.31117  0.02737  0.34210  1.0000
  O   O12       1.0  0.31554  0.12558  0.35371  1.0000
  C   C53       1.0  0.20898  0.41332  0.34757  1.0000
  C   C54       1.0  0.19100  0.43065  0.34409  1.0000
  C   C55       1.0  0.20925  0.46564  0.33142  1.0000
  O   O13       1.0  0.19164  0.37922  0.35477  1.0000
  H   H32       1.0  0.19597  0.47744  0.34250  1.0000
  C   C56       1.0  0.11360  0.24945  0.43013  1.0000
  C   C57       1.0  0.15542  0.24580  0.34254  1.0000
  N   N8        1.0  0.14369  0.25116  0.42062  1.0000
  H   H33       1.0  0.12485  0.28324  0.53790  1.0000
  C   C58       1.0  0.25607  0.36520  0.42939  1.0000
  C   C59       1.0  0.26148  0.35036  0.35231  1.0000
  C   C60       1.0  0.26011  0.41085  0.34196  1.0000
  N   N9        1.0  0.25449  0.39365  0.41998  1.0000
  C   C61       1.0  0.24779  0.34958  0.51932  1.0000
  H   H34       1.0  0.25025  0.32726  0.52285  1.0000
  H   H35       1.0  0.22213  0.34262  0.53685  1.0000
  H   H36       1.0  0.26477  0.36746  0.56872  1.0000
  C   C62       1.0  0.14078  0.39210  0.42996  1.0000
  C   C63       1.0  0.15559  0.41245  0.35307  1.0000
  N   N10       1.0  0.11241  0.36201  0.42042  1.0000
  C   C64       1.0  0.15649  0.39932  0.51977  1.0000
  H   H37       1.0  0.17877  0.42411  0.52341  1.0000
  H   H38       1.0  0.16352  0.38062  0.53680  1.0000
  H   H39       1.0  0.13863  0.39828  0.56945  1.0000
  C   C65       1.0  0.39354  0.25524  0.43056  1.0000
  C   C66       1.0  0.41369  0.26056  0.35337  1.0000
  C   C67       1.0  0.35159  0.25896  0.34382  1.0000
  N   N11       1.0  0.36344  0.25353  0.42159  1.0000
  C   C68       1.0  0.40108  0.24701  0.52032  1.0000
  H   H40       1.0  0.42587  0.24949  0.52342  1.0000
  H   H41       1.0  0.38243  0.22135  0.53802  1.0000
  H   H42       1.0  0.40025  0.26400  0.56981  1.0000
  C   C69       1.0  0.25090  0.13933  0.43009  1.0000
  C   C70       1.0  0.24552  0.15442  0.35355  1.0000
  C   C71       1.0  0.24703  0.09389  0.34167  1.0000
  N   N12       1.0  0.25260  0.11097  0.41991  1.0000
  C   C72       1.0  0.25923  0.15474  0.52027  1.0000
  H   H43       1.0  0.25677  0.17704  0.52440  1.0000
  H   H44       1.0  0.28491  0.16166  0.53756  1.0000
  H   H45       1.0  0.24229  0.13673  0.56950  1.0000
  C   C73       1.0  0.36633  0.11247  0.42932  1.0000
  C   C74       1.0  0.35159  0.09236  0.35207  1.0000
  C   C75       1.0  0.41191  0.15439  0.34217  1.0000
  N   N13       1.0  0.39468  0.14259  0.42005  1.0000
  C   C76       1.0  0.35057  0.10502  0.51907  1.0000
  H   H46       1.0  0.32829  0.08021  0.52232  1.0000
  H   H47       1.0  0.34351  0.12366  0.53652  1.0000
  H   H48       1.0  0.36841  0.10594  0.56865  1.0000
  C   C77       1.0  0.48535  0.74322  0.31447  1.0000
  C   C78       1.0  0.43096  0.68959  0.33211  1.0000
  C   C79       1.0  0.46524  0.70729  0.30692  1.0000
  O   O14       1.0  0.47722  0.68774  0.27402  1.0000
  H   H49       1.0  0.98121  0.69284  0.20972  1.0000
  H   H50       1.0  0.52586  0.81189  0.20987  1.0000
  H   H51       1.0  0.37195  0.68795  0.29377  1.0000
  H   H52       1.0  0.13502  0.81692  0.29424  1.0000
  C   C80       1.0  0.26269  0.74338  0.31536  1.0000
  C   C81       1.0  0.31638  0.74279  0.33390  1.0000
  C   C82       1.0  0.29863  0.75927  0.30813  1.0000
  C   C83       1.0  0.24432  0.76135  0.31499  1.0000
  C   C84       1.0  0.20838  0.74545  0.30745  1.0000
  C   C85       1.0  0.19062  0.76200  0.33229  1.0000
  O   O15       1.0  0.31817  0.79077  0.27504  1.0000
  O   O16       1.0  0.18885  0.71388  0.27475  1.0000
  H   H53       1.0  0.31311  0.78958  0.21071  1.0000
  H   H54       1.0  0.19396  0.71494  0.21046  1.0000
  H   H55       1.0  0.31810  0.68548  0.29561  1.0000
  H   H56       1.0  0.18890  0.81927  0.29306  1.0000
  C   C86       1.0  0.26255  0.52054  0.31441  1.0000
  C   C87       1.0  0.26324  0.57490  0.33148  1.0000
  C   C88       1.0  0.24666  0.54058  0.30682  1.0000
  C   C89       1.0  0.24456  0.98422  0.31474  1.0000
  C   C90       1.0  0.26044  0.96417  0.30716  1.0000
  C   C91       1.0  0.24391  0.92988  0.33227  1.0000
  O   O17       1.0  0.21507  0.52851  0.27426  1.0000
  O   O18       1.0  0.29197  0.97619  0.27419  1.0000
  H   H57       1.0  0.21609  0.02444  0.20998  1.0000
  H   H58       1.0  0.29081  0.48011  0.20987  1.0000
  H   H59       1.0  0.32045  0.63391  0.29176  1.0000
  H   H60       1.0  0.18658  0.87092  0.29282  1.0000
  N   N14       1.0  0.13596  0.73998  0.26882  1.0000
  C   C92       1.0  0.26853  0.86913  0.27192  1.0000
  N   N15       1.0  0.26614  0.89740  0.26825  1.0000
  H   H61       1.0  0.26976  0.85884  0.21232  1.0000
  C   C93       1.0  0.13672  0.90070  0.27283  1.0000
  H   H62       1.0  0.14683  0.91224  0.21313  1.0000
  C   C94       1.0  0.40170  0.76744  0.27310  1.0000
  N   N16       1.0  0.37097  0.76492  0.26989  1.0000
  H   H63       1.0  0.41293  0.76847  0.21316  1.0000
  C   C95       1.0  0.23852  0.63582  0.27287  1.0000
  N   N17       1.0  0.24097  0.60759  0.26852  1.0000
  H   H64       1.0  0.23722  0.64613  0.21339  1.0000
  C   C96       1.0  0.37029  0.60421  0.27160  1.0000
  N   N18       1.0  0.39846  0.63496  0.26829  1.0000
  H   H65       1.0  0.36003  0.59293  0.21174  1.0000
  C   C97       1.0  0.46681  0.76000  0.33110  1.0000
  C   C98       1.0  0.43183  0.74332  0.34392  1.0000
  C   C99       1.0  0.41447  0.70800  0.34775  1.0000
  H   H66       1.0  0.47864  0.78508  0.34220  1.0000
  O   O19       1.0  0.38040  0.69130  0.35559  1.0000
  O   O20       1.0  0.12658  0.81341  0.35609  1.0000
  C   C100      1.0  0.24596  0.70806  0.33183  1.0000
  C   C101      1.0  0.26270  0.68985  0.34536  1.0000
  C   C102      1.0  0.29800  0.70789  0.34966  1.0000
  H   H67       1.0  0.22085  0.69471  0.34223  1.0000
  O   O21       1.0  0.31477  0.69058  0.35743  1.0000
  C   C103      1.0  0.20897  0.79692  0.34759  1.0000
  C   C104      1.0  0.24429  0.81493  0.34382  1.0000
  C   C105      1.0  0.26104  0.79668  0.33120  1.0000
  O   O22       1.0  0.19221  0.81424  0.35498  1.0000
  H   H68       1.0  0.28612  0.81002  0.34205  1.0000
  C   C106      1.0  0.29790  0.53915  0.33061  1.0000
  C   C107      1.0  0.31617  0.57416  0.34284  1.0000
  C   C108      1.0  0.29819  0.59149  0.34643  1.0000
  H   H69       1.0  0.31117  0.52737  0.34210  1.0000
  O   O23       1.0  0.31554  0.62558  0.35371  1.0000
  C   C109      1.0  0.20898  0.91332  0.34757  1.0000
  C   C110      1.0  0.19100  0.93065  0.34409  1.0000
  C   C111      1.0  0.20925  0.96564  0.33142  1.0000
  O   O24       1.0  0.19164  0.87922  0.35477  1.0000
  H   H70       1.0  0.19597  0.97744  0.34250  1.0000
  C   C112      1.0  0.11360  0.74945  0.43013  1.0000
  C   C113      1.0  0.15542  0.74580  0.34254  1.0000
  N   N19       1.0  0.14369  0.75116  0.42062  1.0000
  H   H71       1.0  0.12484  0.78324  0.53790  1.0000
  C   C114      1.0  0.25607  0.86520  0.42939  1.0000
  C   C115      1.0  0.26148  0.85036  0.35231  1.0000
  C   C116      1.0  0.26011  0.91085  0.34196  1.0000
  N   N20       1.0  0.25449  0.89364  0.41998  1.0000
  C   C117      1.0  0.24779  0.84957  0.51932  1.0000
  H   H72       1.0  0.25025  0.82726  0.52285  1.0000
  H   H73       1.0  0.22213  0.84262  0.53685  1.0000
  H   H74       1.0  0.26477  0.86746  0.56872  1.0000
  C   C118      1.0  0.14078  0.89210  0.42996  1.0000
  C   C119      1.0  0.15559  0.91245  0.35307  1.0000
  N   N21       1.0  0.11241  0.86201  0.42042  1.0000
  C   C120      1.0  0.15649  0.89932  0.51977  1.0000
  H   H75       1.0  0.17877  0.92411  0.52341  1.0000
  H   H76       1.0  0.16352  0.88062  0.53680  1.0000
  H   H77       1.0  0.13863  0.89828  0.56945  1.0000
  C   C121      1.0  0.39354  0.75524  0.43056  1.0000
  C   C122      1.0  0.41368  0.76056  0.35337  1.0000
  C   C123      1.0  0.35159  0.75896  0.34382  1.0000
  N   N22       1.0  0.36344  0.75353  0.42159  1.0000
  C   C124      1.0  0.40108  0.74701  0.52032  1.0000
  H   H78       1.0  0.42587  0.74949  0.52342  1.0000
  H   H79       1.0  0.38243  0.72135  0.53802  1.0000
  H   H80       1.0  0.40025  0.76400  0.56981  1.0000
  C   C125      1.0  0.25090  0.63933  0.43009  1.0000
  C   C126      1.0  0.24552  0.65442  0.35355  1.0000
  C   C127      1.0  0.24703  0.59389  0.34167  1.0000
  N   N23       1.0  0.25260  0.61097  0.41991  1.0000
  C   C128      1.0  0.25923  0.65474  0.52027  1.0000
  H   H81       1.0  0.25677  0.67704  0.52440  1.0000
  H   H82       1.0  0.28491  0.66166  0.53756  1.0000
  H   H83       1.0  0.24229  0.63673  0.56950  1.0000
  C   C129      1.0  0.36633  0.61247  0.42932  1.0000
  C   C130      1.0  0.35158  0.59236  0.35207  1.0000
  C   C131      1.0  0.41191  0.65439  0.34217  1.0000
  N   N24       1.0  0.39468  0.64259  0.42005  1.0000
  C   C132      1.0  0.35057  0.60502  0.51907  1.0000
  H   H84       1.0  0.32829  0.58021  0.52232  1.0000
  H   H85       1.0  0.34351  0.62366  0.53652  1.0000
  H   H86       1.0  0.36840  0.60594  0.56865  1.0000
  C   C133      1.0  0.98535  0.24322  0.31447  1.0000
  C   C134      1.0  0.93097  0.18960  0.33211  1.0000
  C   C135      1.0  0.96525  0.20730  0.30692  1.0000
  C   C136      1.0  0.52168  0.26150  0.31452  1.0000
  C   C137      1.0  0.54177  0.29743  0.30718  1.0000
  C   C138      1.0  0.57600  0.31513  0.33281  1.0000
  O   O25       1.0  0.97722  0.18774  0.27402  1.0000
  O   O26       1.0  0.52981  0.31698  0.27418  1.0000
  H   H87       1.0  0.48121  0.19284  0.20972  1.0000
  H   H88       1.0  0.87196  0.18795  0.29377  1.0000
  H   H89       1.0  0.63502  0.31692  0.29424  1.0000
  C   C139      1.0  0.76269  0.24338  0.31536  1.0000
  C   C140      1.0  0.81638  0.24279  0.33390  1.0000
  C   C141      1.0  0.79863  0.25927  0.30813  1.0000
  C   C142      1.0  0.74432  0.26135  0.31499  1.0000
  C   C143      1.0  0.70839  0.24545  0.30745  1.0000
  C   C144      1.0  0.69062  0.26200  0.33229  1.0000
  O   O27       1.0  0.81817  0.29077  0.27504  1.0000
  O   O28       1.0  0.68885  0.21389  0.27475  1.0000
  H   H90       1.0  0.81310  0.28958  0.21071  1.0000
  H   H91       1.0  0.69396  0.21494  0.21046  1.0000
  H   H92       1.0  0.81810  0.18548  0.29561  1.0000
  H   H93       1.0  0.68890  0.31928  0.29306  1.0000
  C   C145      1.0  0.76255  0.02054  0.31441  1.0000
  C   C146      1.0  0.76324  0.07490  0.33148  1.0000
  C   C147      1.0  0.74666  0.04058  0.30682  1.0000
  C   C148      1.0  0.74456  0.48422  0.31474  1.0000
  C   C149      1.0  0.76044  0.46417  0.30716  1.0000
  C   C150      1.0  0.74391  0.42988  0.33227  1.0000
  O   O29       1.0  0.71507  0.02851  0.27426  1.0000
  O   O30       1.0  0.79197  0.47619  0.27419  1.0000
  H   H94       1.0  0.71609  0.52444  0.20998  1.0000
  H   H95       1.0  0.79081  0.98011  0.20987  1.0000
  H   H96       1.0  0.82046  0.13390  0.29176  1.0000
  H   H97       1.0  0.68658  0.37092  0.29282  1.0000
  C   C151      1.0  0.60523  0.23743  0.27249  1.0000
  N   N25       1.0  0.63596  0.23998  0.26882  1.0000
  H   H98       1.0  0.59393  0.23648  0.21274  1.0000
  C   C152      1.0  0.76853  0.36913  0.27192  1.0000
  N   N26       1.0  0.76614  0.39740  0.26825  1.0000
  H   H99       1.0  0.76976  0.35884  0.21232  1.0000
  C   C153      1.0  0.63672  0.40070  0.27283  1.0000
  N   N27       1.0  0.60848  0.37001  0.26913  1.0000
  H   H100      1.0  0.64683  0.41224  0.21313  1.0000
  C   C154      1.0  0.90170  0.26744  0.27310  1.0000
  N   N28       1.0  0.87098  0.26492  0.26989  1.0000
  H   H101      1.0  0.91293  0.26847  0.21316  1.0000
  C   C155      1.0  0.73852  0.13582  0.27287  1.0000
  N   N29       1.0  0.74097  0.10759  0.26852  1.0000
  H   H102      1.0  0.73722  0.14614  0.21339  1.0000
  C   C156      1.0  0.87029  0.10421  0.27160  1.0000
  N   N30       1.0  0.89846  0.13496  0.26829  1.0000
  H   H103      1.0  0.86003  0.09293  0.21174  1.0000
  C   C157      1.0  0.96681  0.26000  0.33110  1.0000
  C   C158      1.0  0.93183  0.24332  0.34392  1.0000
  C   C159      1.0  0.91447  0.20800  0.34775  1.0000
  H   H104      1.0  0.97864  0.28508  0.34220  1.0000
  O   O31       1.0  0.88040  0.19130  0.35559  1.0000
  C   C160      1.0  0.59250  0.29671  0.34833  1.0000
  C   C161      1.0  0.57519  0.26141  0.34410  1.0000
  C   C162      1.0  0.54022  0.24471  0.33094  1.0000
  O   O32       1.0  0.62658  0.31341  0.35609  1.0000
  H   H105      1.0  0.52840  0.21963  0.34195  1.0000
  C   C163      1.0  0.74596  0.20806  0.33183  1.0000
  C   C164      1.0  0.76270  0.18985  0.34536  1.0000
  C   C165      1.0  0.79800  0.20789  0.34966  1.0000
  H   H106      1.0  0.72085  0.19472  0.34223  1.0000
  O   O33       1.0  0.81477  0.19059  0.35743  1.0000
  C   C166      1.0  0.70897  0.29692  0.34759  1.0000
  C   C167      1.0  0.74429  0.31493  0.34382  1.0000
  C   C168      1.0  0.76104  0.29669  0.33120  1.0000
  O   O34       1.0  0.69221  0.31424  0.35498  1.0000
  H   H107      1.0  0.78612  0.31001  0.34205  1.0000
  C   C169      1.0  0.79790  0.03915  0.33061  1.0000
  C   C170      1.0  0.81617  0.07416  0.34284  1.0000
  C   C171      1.0  0.79819  0.09149  0.34643  1.0000
  H   H108      1.0  0.81117  0.02737  0.34210  1.0000
  O   O35       1.0  0.81554  0.12558  0.35371  1.0000
  C   C172      1.0  0.70898  0.41332  0.34757  1.0000
  C   C173      1.0  0.69100  0.43065  0.34409  1.0000
  C   C174      1.0  0.70925  0.46564  0.33142  1.0000
  O   O36       1.0  0.69164  0.37922  0.35477  1.0000
  H   H109      1.0  0.69597  0.47744  0.34250  1.0000
  C   C175      1.0  0.61360  0.24945  0.43013  1.0000
  C   C176      1.0  0.59337  0.24418  0.35319  1.0000
  C   C177      1.0  0.65542  0.24580  0.34254  1.0000
  N   N31       1.0  0.64369  0.25116  0.42062  1.0000
  C   C178      1.0  0.60617  0.25760  0.52011  1.0000
  H   H110      1.0  0.58139  0.25512  0.52354  1.0000
  H   H111      1.0  0.62485  0.28324  0.53790  1.0000
  H   H112      1.0  0.60705  0.24056  0.56935  1.0000
  C   C179      1.0  0.75607  0.36520  0.42939  1.0000
  C   C180      1.0  0.76148  0.35036  0.35231  1.0000
  C   C181      1.0  0.76011  0.41085  0.34196  1.0000
  N   N32       1.0  0.75449  0.39365  0.41998  1.0000
  C   C182      1.0  0.74779  0.34958  0.51932  1.0000
  H   H113      1.0  0.75025  0.32726  0.52285  1.0000
  H   H114      1.0  0.72213  0.34262  0.53685  1.0000
  H   H115      1.0  0.76477  0.36746  0.56872  1.0000
  C   C183      1.0  0.64078  0.39210  0.42996  1.0000
  C   C184      1.0  0.65559  0.41245  0.35307  1.0000
  C   C185      1.0  0.59508  0.35034  0.34258  1.0000
  N   N33       1.0  0.61241  0.36201  0.42042  1.0000
  C   C186      1.0  0.65649  0.39932  0.51977  1.0000
  H   H116      1.0  0.67877  0.42411  0.52341  1.0000
  H   H117      1.0  0.66352  0.38062  0.53680  1.0000
  H   H118      1.0  0.63863  0.39828  0.56945  1.0000
  C   C187      1.0  0.89354  0.25524  0.43056  1.0000
  C   C188      1.0  0.91369  0.26056  0.35337  1.0000
  C   C189      1.0  0.85159  0.25896  0.34382  1.0000
  N   N34       1.0  0.86344  0.25353  0.42159  1.0000
  C   C190      1.0  0.90108  0.24701  0.52032  1.0000
  H   H119      1.0  0.92587  0.24949  0.52342  1.0000
  H   H120      1.0  0.88243  0.22135  0.53802  1.0000
  H   H121      1.0  0.90025  0.26400  0.56981  1.0000
  C   C191      1.0  0.75090  0.13933  0.43009  1.0000
  C   C192      1.0  0.74552  0.15442  0.35355  1.0000
  C   C193      1.0  0.74703  0.09389  0.34167  1.0000
  N   N35       1.0  0.75260  0.11097  0.41991  1.0000
  C   C194      1.0  0.75923  0.15474  0.52027  1.0000
  H   H122      1.0  0.75677  0.17704  0.52440  1.0000
  H   H123      1.0  0.78491  0.16166  0.53756  1.0000
  H   H124      1.0  0.74229  0.13673  0.56950  1.0000
  C   C195      1.0  0.86633  0.11247  0.42932  1.0000
  C   C196      1.0  0.85159  0.09236  0.35207  1.0000
  C   C197      1.0  0.91191  0.15439  0.34217  1.0000
  N   N36       1.0  0.89468  0.14259  0.42005  1.0000
  C   C198      1.0  0.85057  0.10502  0.51907  1.0000
  H   H125      1.0  0.82829  0.08021  0.52232  1.0000
  H   H126      1.0  0.84351  0.12366  0.53652  1.0000
  H   H127      1.0  0.86840  0.10594  0.56865  1.0000
  C   C199      1.0  0.98535  0.74322  0.31447  1.0000
  C   C200      1.0  0.93097  0.68959  0.33211  1.0000
  C   C201      1.0  0.96524  0.70729  0.30692  1.0000
  C   C202      1.0  0.52168  0.76150  0.31452  1.0000
  C   C203      1.0  0.54177  0.79743  0.30718  1.0000
  C   C204      1.0  0.57600  0.81513  0.33281  1.0000
  O   O37       1.0  0.97722  0.68774  0.27402  1.0000
  O   O38       1.0  0.52981  0.81698  0.27418  1.0000
  H   H128      1.0  0.48121  0.69284  0.20972  1.0000
  H   H129      1.0  0.87196  0.68795  0.29377  1.0000
  H   H130      1.0  0.63502  0.81692  0.29424  1.0000
  C   C205      1.0  0.76268  0.74338  0.31536  1.0000
  C   C206      1.0  0.81637  0.74279  0.33390  1.0000
  C   C207      1.0  0.79863  0.75927  0.30813  1.0000
  C   C208      1.0  0.74432  0.76135  0.31499  1.0000
  C   C209      1.0  0.70838  0.74545  0.30745  1.0000
  C   C210      1.0  0.69062  0.76200  0.33229  1.0000
  O   O39       1.0  0.81817  0.79077  0.27504  1.0000
  O   O40       1.0  0.68885  0.71388  0.27475  1.0000
  H   H131      1.0  0.81311  0.78958  0.21071  1.0000
  H   H132      1.0  0.69396  0.71494  0.21046  1.0000
  H   H133      1.0  0.81810  0.68548  0.29561  1.0000
  H   H134      1.0  0.68890  0.81927  0.29306  1.0000
  C   C211      1.0  0.76255  0.52054  0.31441  1.0000
  C   C212      1.0  0.76324  0.57490  0.33148  1.0000
  C   C213      1.0  0.74666  0.54058  0.30682  1.0000
  C   C214      1.0  0.74456  0.98422  0.31474  1.0000
  C   C215      1.0  0.76044  0.96417  0.30716  1.0000
  C   C216      1.0  0.74391  0.92988  0.33227  1.0000
  O   O41       1.0  0.71507  0.52851  0.27426  1.0000
  O   O42       1.0  0.79197  0.97619  0.27419  1.0000
  H   H135      1.0  0.71609  0.02444  0.20998  1.0000
  H   H136      1.0  0.79081  0.48011  0.20987  1.0000
  H   H137      1.0  0.82045  0.63391  0.29176  1.0000
  H   H138      1.0  0.68658  0.87092  0.29282  1.0000
  C   C217      1.0  0.60523  0.73743  0.27249  1.0000
  N   N37       1.0  0.63596  0.73998  0.26882  1.0000
  H   H139      1.0  0.59392  0.73648  0.21274  1.0000
  C   C218      1.0  0.76853  0.86913  0.27192  1.0000
  N   N38       1.0  0.76614  0.89740  0.26825  1.0000
  H   H140      1.0  0.76976  0.85884  0.21232  1.0000
  C   C219      1.0  0.63672  0.90070  0.27283  1.0000
  N   N39       1.0  0.60848  0.87001  0.26913  1.0000
  H   H141      1.0  0.64682  0.91224  0.21313  1.0000
  C   C220      1.0  0.90170  0.76744  0.27310  1.0000
  N   N40       1.0  0.87097  0.76492  0.26989  1.0000
  H   H142      1.0  0.91293  0.76847  0.21316  1.0000
  C   C221      1.0  0.73852  0.63582  0.27287  1.0000
  N   N41       1.0  0.74097  0.60759  0.26852  1.0000
  H   H143      1.0  0.73722  0.64613  0.21339  1.0000
  C   C222      1.0  0.87029  0.60421  0.27160  1.0000
  N   N42       1.0  0.89846  0.63496  0.26829  1.0000
  H   H144      1.0  0.86003  0.59293  0.21174  1.0000
  C   C223      1.0  0.96681  0.76000  0.33110  1.0000
  C   C224      1.0  0.93183  0.74332  0.34392  1.0000
  C   C225      1.0  0.91447  0.70800  0.34775  1.0000
  H   H145      1.0  0.97864  0.78508  0.34220  1.0000
  O   O43       1.0  0.88040  0.69130  0.35559  1.0000
  C   C226      1.0  0.59250  0.79671  0.34833  1.0000
  C   C227      1.0  0.57519  0.76141  0.34410  1.0000
  C   C228      1.0  0.54022  0.74471  0.33094  1.0000
  O   O44       1.0  0.62658  0.81341  0.35609  1.0000
  H   H146      1.0  0.52840  0.71963  0.34195  1.0000
  C   C229      1.0  0.74596  0.70806  0.33183  1.0000
  C   C230      1.0  0.76270  0.68985  0.34536  1.0000
  C   C231      1.0  0.79800  0.70789  0.34966  1.0000
  H   H147      1.0  0.72085  0.69471  0.34223  1.0000
  O   O45       1.0  0.81477  0.69058  0.35743  1.0000
  C   C232      1.0  0.70898  0.79692  0.34759  1.0000
  C   C233      1.0  0.74429  0.81493  0.34382  1.0000
  C   C234      1.0  0.76103  0.79668  0.33120  1.0000
  O   O46       1.0  0.69221  0.81424  0.35498  1.0000
  H   H148      1.0  0.78612  0.81002  0.34205  1.0000
  C   C235      1.0  0.79789  0.53915  0.33061  1.0000
  C   C236      1.0  0.81617  0.57416  0.34284  1.0000
  C   C237      1.0  0.79819  0.59149  0.34643  1.0000
  H   H149      1.0  0.81117  0.52737  0.34210  1.0000
  O   O47       1.0  0.81554  0.62558  0.35371  1.0000
  C   C238      1.0  0.70898  0.91332  0.34757  1.0000
  C   C239      1.0  0.69100  0.93065  0.34409  1.0000
  C   C240      1.0  0.70925  0.96564  0.33142  1.0000
  O   O48       1.0  0.69164  0.87922  0.35477  1.0000
  H   H150      1.0  0.69597  0.97744  0.34250  1.0000
  C   C241      1.0  0.61360  0.74945  0.43013  1.0000
  C   C242      1.0  0.59337  0.74417  0.35319  1.0000
  C   C243      1.0  0.65542  0.74580  0.34254  1.0000
  N   N43       1.0  0.64369  0.75116  0.42062  1.0000
  C   C244      1.0  0.60617  0.75760  0.52011  1.0000
  H   H151      1.0  0.58139  0.75512  0.52354  1.0000
  H   H152      1.0  0.62484  0.78324  0.53790  1.0000
  H   H153      1.0  0.60705  0.74056  0.56935  1.0000
  C   C245      1.0  0.75607  0.86520  0.42939  1.0000
  C   C246      1.0  0.76148  0.85036  0.35231  1.0000
  C   C247      1.0  0.76011  0.91085  0.34196  1.0000
  N   N44       1.0  0.75448  0.89364  0.41998  1.0000
  C   C248      1.0  0.74779  0.84957  0.51932  1.0000
  H   H154      1.0  0.75025  0.82726  0.52285  1.0000
  H   H155      1.0  0.72213  0.84262  0.53685  1.0000
  H   H156      1.0  0.76477  0.86746  0.56872  1.0000
  C   C249      1.0  0.64078  0.89210  0.42996  1.0000
  C   C250      1.0  0.65559  0.91245  0.35307  1.0000
  C   C251      1.0  0.59508  0.85034  0.34258  1.0000
  N   N45       1.0  0.61241  0.86201  0.42042  1.0000
  C   C252      1.0  0.65649  0.89932  0.51977  1.0000
  H   H157      1.0  0.67877  0.92411  0.52341  1.0000
  H   H158      1.0  0.66352  0.88062  0.53680  1.0000
  H   H159      1.0  0.63863  0.89828  0.56945  1.0000
  C   C253      1.0  0.89354  0.75524  0.43056  1.0000
  C   C254      1.0  0.91368  0.76056  0.35337  1.0000
  C   C255      1.0  0.85159  0.75896  0.34382  1.0000
  N   N46       1.0  0.86344  0.75353  0.42159  1.0000
  C   C256      1.0  0.90108  0.74701  0.52032  1.0000
  H   H160      1.0  0.92587  0.74949  0.52342  1.0000
  H   H161      1.0  0.88243  0.72135  0.53802  1.0000
  H   H162      1.0  0.90025  0.76400  0.56981  1.0000
  C   C257      1.0  0.75090  0.63933  0.43009  1.0000
  C   C258      1.0  0.74552  0.65442  0.35355  1.0000
  C   C259      1.0  0.74703  0.59389  0.34167  1.0000
  N   N47       1.0  0.75260  0.61097  0.41991  1.0000
  C   C260      1.0  0.75923  0.65474  0.52027  1.0000
  H   H163      1.0  0.75677  0.67704  0.52440  1.0000
  H   H164      1.0  0.78491  0.66166  0.53756  1.0000
  H   H165      1.0  0.74229  0.63673  0.56950  1.0000
  C   C261      1.0  0.86633  0.61247  0.42932  1.0000
  C   C262      1.0  0.85159  0.59236  0.35207  1.0000
  C   C263      1.0  0.91191  0.65439  0.34217  1.0000
  N   N48       1.0  0.89468  0.64259  0.42005  1.0000
  C   C264      1.0  0.85057  0.60502  0.51907  1.0000
  H   H166      1.0  0.82829  0.58021  0.52232  1.0000
  H   H167      1.0  0.84351  0.62366  0.53652  1.0000
  H   H168      1.0  0.86840  0.60594  0.56865  1.0000
