data_image0
_chemical_formula_structural       CNCHOHCNCHOHCNCHOHNC18H12NC18H12C2NC2H3CH3CH2C2NC2H2CH3CH3C2NC2H3CH2CH3CNCHOHCNCHOHCNCHOHNC18H12NC18H12C2NC2H3CH3CH2C2NC2H2CH3CH3C2NC2H3CH2CH3CNCHOHCNCHOHCNCHOHNC18H12NC18H12C2NC2H3CH3CH2C2NC2H2CH3CH3C2NC2H3CH2CH3CNCHOHCNCHOHCNCHOHNC18H12NC18H12C2NC2H3CH3CH2C2NC2H2CH3CH3C2NC2H3CH2CH3
_chemical_formula_sum              "C240 N32 H216 O12"
_cell_length_a       50.2519
_cell_length_b       50.2519
_cell_length_c       14.5842
_cell_angle_alpha    90
_cell_angle_beta     90
_cell_angle_gamma    120

_space_group_name_H-M_alt    "P 1"
_space_group_IT_number       1

loop_
  _space_group_symop_operation_xyz
  'x, y, z'

loop_
  _atom_site_type_symbol
  _atom_site_label
  _atom_site_symmetry_multiplicity
  _atom_site_fract_x
  _atom_site_fract_y
  _atom_site_fract_z
  _atom_site_occupancy
  C   C1        1.0  0.28058  0.29373  0.31584  1.0000
  N   N1        1.0  0.29685  0.27862  0.31081  1.0000
  C   C2        1.0  0.29313  0.25650  0.37222  1.0000
  H   H1        1.0  0.22758  0.26225  0.00588  1.0000
  O   O1        1.0  0.28678  0.31562  0.25169  1.0000
  H   H2        1.0  0.31216  0.28458  0.26253  1.0000
  C   C3        1.0  0.26876  0.50547  0.27997  1.0000
  N   N2        1.0  0.28458  0.03691  0.27692  1.0000
  C   C4        1.0  0.29222  0.05488  0.35383  1.0000
  H   H3        1.0  0.26616  0.51524  0.01909  1.0000
  O   O2        1.0  0.26242  0.49006  0.19927  1.0000
  H   H4        1.0  0.29002  0.04649  0.21684  1.0000
  C   C5        1.0  0.04267  0.29468  0.31642  1.0000
  N   N3        1.0  0.51128  0.27966  0.31125  1.0000
  C   C6        1.0  0.49270  0.25692  0.37093  1.0000
  H   H5        1.0  0.06487  0.26217  0.00289  1.0000
  O   O3        1.0  0.05851  0.31694  0.25336  1.0000
  H   H6        1.0  0.50215  0.28607  0.26363  1.0000
  N   N4        1.0  0.19210  0.35480  0.35807  1.0000
  C   C7        1.0  0.20788  0.33724  0.36688  1.0000
  C   C8        1.0  0.20904  0.38860  0.35331  1.0000
  C   C9        1.0  0.15875  0.33740  0.36658  1.0000
  C   C10       1.0  0.13967  0.31676  0.29771  1.0000
  C   C11       1.0  0.10726  0.29993  0.30589  1.0000
  C   C12       1.0  0.09182  0.30383  0.38158  1.0000
  C   C13       1.0  0.11076  0.32634  0.44663  1.0000
  C   C14       1.0  0.14329  0.34152  0.44179  1.0000
  C   C15       1.0  0.22699  0.34086  0.44291  1.0000
  C   C16       1.0  0.24432  0.32566  0.44765  1.0000
  C   C17       1.0  0.24105  0.30347  0.38182  1.0000
  C   C18       1.0  0.22200  0.29992  0.30563  1.0000
  C   C19       1.0  0.20658  0.31689  0.29740  1.0000
  C   C20       1.0  0.24172  0.40637  0.35408  1.0000
  C   C21       1.0  0.25796  0.43890  0.35717  1.0000
  C   C22       1.0  0.24245  0.45586  0.36097  1.0000
  C   C23       1.0  0.21016  0.43879  0.35008  1.0000
  C   C24       1.0  0.19405  0.40624  0.34738  1.0000
  H   H7        1.0  0.25989  0.33136  0.49959  1.0000
  H   H8        1.0  0.22981  0.35622  0.49327  1.0000
  H   H9        1.0  0.19457  0.31446  0.23866  1.0000
  H   H10       1.0  0.21977  0.28526  0.25362  1.0000
  H   H11       1.0  0.14921  0.31398  0.23942  1.0000
  H   H12       1.0  0.09479  0.28508  0.25429  1.0000
  H   H13       1.0  0.25449  0.39574  0.35320  1.0000
  H   H14       1.0  0.28147  0.45023  0.35959  1.0000
  H   H15       1.0  0.19791  0.45003  0.34717  1.0000
  H   H16       1.0  0.17071  0.39547  0.34153  1.0000
  H   H17       1.0  0.15586  0.35711  0.49161  1.0000
  H   H18       1.0  0.10089  0.33212  0.49841  1.0000
  N   N5        1.0  0.35890  0.18870  0.36589  1.0000
  C   C25       1.0  0.34228  0.20523  0.36714  1.0000
  C   C26       1.0  0.34240  0.15558  0.36293  1.0000
  C   C27       1.0  0.39205  0.20537  0.36608  1.0000
  C   C28       1.0  0.40935  0.22221  0.28901  1.0000
  C   C29       1.0  0.44189  0.23894  0.29031  1.0000
  C   C30       1.0  0.45919  0.23981  0.36860  1.0000
  C   C31       1.0  0.44150  0.22230  0.44506  1.0000
  C   C32       1.0  0.40894  0.20567  0.44401  1.0000
  C   C33       1.0  0.33752  0.21789  0.28639  1.0000
  C   C34       1.0  0.32178  0.23470  0.28788  1.0000
  C   C35       1.0  0.30955  0.23951  0.37000  1.0000
  C   C36       1.0  0.31390  0.22615  0.45040  1.0000
  C   C37       1.0  0.33005  0.20974  0.44920  1.0000
  C   C38       1.0  0.34093  0.13949  0.28187  1.0000
  C   C39       1.0  0.32469  0.10694  0.27840  1.0000
  C   C40       1.0  0.30901  0.08844  0.35577  1.0000
  C   C41       1.0  0.31101  0.10501  0.43709  1.0000
  C   C42       1.0  0.32712  0.13755  0.44061  1.0000
  H   H19       1.0  0.31874  0.24283  0.22688  1.0000
  H   H20       1.0  0.34544  0.21474  0.22514  1.0000
  H   H21       1.0  0.33307  0.20117  0.50939  1.0000
  H   H22       1.0  0.30581  0.22882  0.51206  1.0000
  H   H23       1.0  0.39821  0.22221  0.23041  1.0000
  H   H24       1.0  0.45280  0.25010  0.23154  1.0000
  H   H25       1.0  0.35180  0.15161  0.22411  1.0000
  H   H26       1.0  0.32500  0.09697  0.21774  1.0000
  H   H27       1.0  0.30040  0.09344  0.49581  1.0000
  H   H28       1.0  0.32783  0.14814  0.50112  1.0000
  H   H29       1.0  0.39741  0.19379  0.50137  1.0000
  H   H30       1.0  0.45228  0.22179  0.50397  1.0000
  C   C43       1.0  0.25379  0.26374  0.44981  1.0000
  C   C44       1.0  0.25825  0.28732  0.38543  1.0000
  N   N6        1.0  0.27174  0.25051  0.43811  1.0000
  C   C45       1.0  0.23045  0.25039  0.52794  1.0000
  C   C46       1.0  0.22841  0.22040  0.56940  1.0000
  H   H31       1.0  0.22225  0.20288  0.51647  1.0000
  H   H32       1.0  0.21112  0.21041  0.62357  1.0000
  H   H33       1.0  0.25038  0.22535  0.59928  1.0000
  C   C47       1.0  0.19721  0.24060  0.49406  1.0000
  H   H34       1.0  0.19125  0.22568  0.43403  1.0000
  H   H35       1.0  0.19482  0.26031  0.47596  1.0000
  H   H36       1.0  0.18018  0.22816  0.54744  1.0000
  C   C48       1.0  0.23968  0.27364  0.60954  1.0000
  H   H37       1.0  0.26433  0.28472  0.62318  1.0000
  H   H38       1.0  0.23376  0.29128  0.59621  1.0000
  C   C49       1.0  0.26673  0.50750  0.44555  1.0000
  C   C50       1.0  0.25901  0.48908  0.36410  1.0000
  N   N7        1.0  0.28263  0.03875  0.43359  1.0000
  C   C51       1.0  0.25936  0.49618  0.54438  1.0000
  C   C52       1.0  0.27152  0.52352  0.61515  1.0000
  H   H39       1.0  0.29645  0.03816  0.61020  1.0000
  H   H40       1.0  0.26108  0.03774  0.60256  1.0000
  C   C53       1.0  0.27508  0.47708  0.57062  1.0000
  H   H41       1.0  0.29954  0.48977  0.55379  1.0000
  H   H42       1.0  0.26467  0.45514  0.53512  1.0000
  H   H43       1.0  0.27284  0.47191  0.64394  1.0000
  C   C54       1.0  0.22386  0.47645  0.56005  1.0000
  H   H44       1.0  0.21225  0.48837  0.53384  1.0000
  H   H45       1.0  0.21836  0.47181  0.63289  1.0000
  H   H46       1.0  0.21410  0.45420  0.52659  1.0000
  C   C55       1.0  0.03927  0.26378  0.44812  1.0000
  C   C56       1.0  0.05848  0.28777  0.38505  1.0000
  N   N8        1.0  0.50811  0.25053  0.43587  1.0000
  C   C57       1.0  0.04924  0.25022  0.52564  1.0000
  C   C58       1.0  0.02119  0.22059  0.56827  1.0000
  H   H47       1.0  0.50458  0.22602  0.59880  1.0000
  H   H48       1.0  0.02849  0.21051  0.62216  1.0000
  H   H49       1.0  0.50935  0.20298  0.51588  1.0000
  C   C59       1.0  0.06404  0.27357  0.60669  1.0000
  H   H50       1.0  0.05090  0.28505  0.62120  1.0000
  H   H51       1.0  0.08762  0.29088  0.59221  1.0000
  C   C60       1.0  0.07209  0.23985  0.49033  1.0000
  H   H52       1.0  0.06253  0.22474  0.43090  1.0000
  H   H53       1.0  0.07680  0.22743  0.54346  1.0000
  H   H54       1.0  0.09418  0.25930  0.47079  1.0000
  C   C61       1.0  0.28058  0.79373  0.31584  1.0000
  N   N9        1.0  0.29685  0.77862  0.31081  1.0000
  C   C62       1.0  0.29313  0.75650  0.37222  1.0000
  H   H55       1.0  0.22758  0.76225  0.00589  1.0000
  O   O4        1.0  0.28678  0.81562  0.25169  1.0000
  H   H56       1.0  0.31216  0.78458  0.26253  1.0000
  C   C63       1.0  0.26876  0.00547  0.27997  1.0000
  N   N10       1.0  0.28458  0.53691  0.27693  1.0000
  C   C64       1.0  0.29222  0.55488  0.35383  1.0000
  H   H57       1.0  0.26616  0.01524  0.01909  1.0000
  O   O5        1.0  0.26242  0.99006  0.19927  1.0000
  H   H58       1.0  0.29002  0.54649  0.21684  1.0000
  C   C65       1.0  0.04267  0.79468  0.31642  1.0000
  N   N11       1.0  0.51128  0.77966  0.31125  1.0000
  C   C66       1.0  0.49270  0.75692  0.37093  1.0000
  H   H59       1.0  0.06487  0.76218  0.00289  1.0000
  O   O6        1.0  0.05851  0.81694  0.25336  1.0000
  H   H60       1.0  0.50215  0.78607  0.26363  1.0000
  N   N12       1.0  0.19210  0.85480  0.35807  1.0000
  C   C67       1.0  0.20788  0.83724  0.36688  1.0000
  C   C68       1.0  0.20904  0.88860  0.35331  1.0000
  C   C69       1.0  0.15875  0.83740  0.36658  1.0000
  C   C70       1.0  0.13967  0.81676  0.29771  1.0000
  C   C71       1.0  0.10726  0.79993  0.30589  1.0000
  C   C72       1.0  0.09182  0.80383  0.38158  1.0000
  C   C73       1.0  0.11076  0.82634  0.44663  1.0000
  C   C74       1.0  0.14329  0.84152  0.44179  1.0000
  C   C75       1.0  0.22699  0.84086  0.44291  1.0000
  C   C76       1.0  0.24432  0.82566  0.44765  1.0000
  C   C77       1.0  0.24105  0.80347  0.38182  1.0000
  C   C78       1.0  0.22200  0.79992  0.30563  1.0000
  C   C79       1.0  0.20658  0.81689  0.29740  1.0000
  C   C80       1.0  0.24172  0.90637  0.35408  1.0000
  C   C81       1.0  0.25796  0.93890  0.35717  1.0000
  C   C82       1.0  0.24245  0.95586  0.36096  1.0000
  C   C83       1.0  0.21016  0.93879  0.35008  1.0000
  C   C84       1.0  0.19405  0.90624  0.34738  1.0000
  H   H61       1.0  0.25989  0.83136  0.49959  1.0000
  H   H62       1.0  0.22981  0.85622  0.49327  1.0000
  H   H63       1.0  0.19457  0.81446  0.23866  1.0000
  H   H64       1.0  0.21977  0.78526  0.25362  1.0000
  H   H65       1.0  0.14921  0.81398  0.23942  1.0000
  H   H66       1.0  0.09479  0.78508  0.25429  1.0000
  H   H67       1.0  0.25449  0.89574  0.35320  1.0000
  H   H68       1.0  0.28147  0.95023  0.35959  1.0000
  H   H69       1.0  0.19791  0.95003  0.34717  1.0000
  H   H70       1.0  0.17071  0.89547  0.34153  1.0000
  H   H71       1.0  0.15586  0.85711  0.49161  1.0000
  H   H72       1.0  0.10089  0.83213  0.49841  1.0000
  N   N13       1.0  0.35890  0.68870  0.36589  1.0000
  C   C85       1.0  0.34228  0.70523  0.36714  1.0000
  C   C86       1.0  0.34240  0.65558  0.36293  1.0000
  C   C87       1.0  0.39205  0.70537  0.36608  1.0000
  C   C88       1.0  0.40935  0.72221  0.28901  1.0000
  C   C89       1.0  0.44189  0.73894  0.29031  1.0000
  C   C90       1.0  0.45919  0.73981  0.36860  1.0000
  C   C91       1.0  0.44150  0.72230  0.44506  1.0000
  C   C92       1.0  0.40894  0.70567  0.44401  1.0000
  C   C93       1.0  0.33752  0.71789  0.28639  1.0000
  C   C94       1.0  0.32178  0.73470  0.28788  1.0000
  C   C95       1.0  0.30955  0.73951  0.37000  1.0000
  C   C96       1.0  0.31390  0.72615  0.45041  1.0000
  C   C97       1.0  0.33005  0.70974  0.44920  1.0000
  C   C98       1.0  0.34093  0.63949  0.28187  1.0000
  C   C99       1.0  0.32469  0.60694  0.27840  1.0000
  C   C100      1.0  0.30901  0.58844  0.35577  1.0000
  C   C101      1.0  0.31101  0.60501  0.43709  1.0000
  C   C102      1.0  0.32712  0.63755  0.44061  1.0000
  H   H73       1.0  0.31874  0.74283  0.22688  1.0000
  H   H74       1.0  0.34544  0.71474  0.22514  1.0000
  H   H75       1.0  0.33308  0.70117  0.50939  1.0000
  H   H76       1.0  0.30581  0.72882  0.51206  1.0000
  H   H77       1.0  0.39821  0.72221  0.23041  1.0000
  H   H78       1.0  0.45280  0.75010  0.23154  1.0000
  H   H79       1.0  0.35180  0.65161  0.22411  1.0000
  H   H80       1.0  0.32500  0.59697  0.21774  1.0000
  H   H81       1.0  0.30040  0.59344  0.49581  1.0000
  H   H82       1.0  0.32783  0.64814  0.50112  1.0000
  H   H83       1.0  0.39741  0.69379  0.50137  1.0000
  H   H84       1.0  0.45228  0.72179  0.50397  1.0000
  C   C103      1.0  0.25379  0.76374  0.44982  1.0000
  C   C104      1.0  0.25825  0.78732  0.38543  1.0000
  N   N14       1.0  0.27174  0.75051  0.43811  1.0000
  C   C105      1.0  0.23045  0.75039  0.52794  1.0000
  C   C106      1.0  0.22841  0.72040  0.56940  1.0000
  H   H85       1.0  0.22225  0.70288  0.51647  1.0000
  H   H86       1.0  0.21112  0.71042  0.62357  1.0000
  H   H87       1.0  0.25038  0.72536  0.59928  1.0000
  C   C107      1.0  0.19721  0.74060  0.49406  1.0000
  H   H88       1.0  0.19125  0.72568  0.43404  1.0000
  H   H89       1.0  0.19482  0.76031  0.47596  1.0000
  H   H90       1.0  0.18018  0.72816  0.54744  1.0000
  C   C108      1.0  0.23968  0.77364  0.60954  1.0000
  H   H91       1.0  0.26433  0.78472  0.62318  1.0000
  H   H92       1.0  0.23377  0.79128  0.59621  1.0000
  C   C109      1.0  0.26673  0.00750  0.44555  1.0000
  C   C110      1.0  0.25901  0.98908  0.36410  1.0000
  N   N15       1.0  0.28263  0.53875  0.43360  1.0000
  C   C111      1.0  0.25936  0.99619  0.54438  1.0000
  C   C112      1.0  0.27151  0.02352  0.61515  1.0000
  H   H93       1.0  0.29645  0.53816  0.61020  1.0000
  H   H94       1.0  0.26108  0.53774  0.60256  1.0000
  C   C113      1.0  0.27508  0.97708  0.57062  1.0000
  H   H95       1.0  0.29954  0.98977  0.55378  1.0000
  H   H96       1.0  0.26467  0.95514  0.53512  1.0000
  H   H97       1.0  0.27285  0.97191  0.64394  1.0000
  C   C114      1.0  0.22386  0.97645  0.56005  1.0000
  H   H98       1.0  0.21225  0.98837  0.53384  1.0000
  H   H99       1.0  0.21836  0.97181  0.63289  1.0000
  H   H100      1.0  0.21410  0.95420  0.52659  1.0000
  C   C115      1.0  0.03927  0.76378  0.44812  1.0000
  C   C116      1.0  0.05848  0.78777  0.38505  1.0000
  N   N16       1.0  0.50812  0.75054  0.43587  1.0000
  C   C117      1.0  0.04924  0.75022  0.52564  1.0000
  C   C118      1.0  0.02119  0.72059  0.56827  1.0000
  H   H101      1.0  0.50459  0.72602  0.59880  1.0000
  H   H102      1.0  0.02849  0.71051  0.62217  1.0000
  H   H103      1.0  0.50935  0.70298  0.51589  1.0000
  C   C119      1.0  0.06404  0.77357  0.60669  1.0000
  H   H104      1.0  0.05090  0.78506  0.62120  1.0000
  H   H105      1.0  0.08762  0.79088  0.59221  1.0000
  C   C120      1.0  0.07209  0.73985  0.49033  1.0000
  H   H106      1.0  0.06253  0.72474  0.43090  1.0000
  H   H107      1.0  0.07680  0.72742  0.54346  1.0000
  H   H108      1.0  0.09418  0.75930  0.47079  1.0000
  C   C121      1.0  0.78058  0.29373  0.31584  1.0000
  N   N17       1.0  0.79685  0.27862  0.31081  1.0000
  C   C122      1.0  0.79313  0.25650  0.37222  1.0000
  H   H109      1.0  0.72758  0.26225  0.00588  1.0000
  O   O7        1.0  0.78678  0.31562  0.25169  1.0000
  H   H110      1.0  0.81216  0.28458  0.26253  1.0000
  C   C123      1.0  0.76876  0.50547  0.27997  1.0000
  N   N18       1.0  0.78458  0.03691  0.27692  1.0000
  C   C124      1.0  0.79222  0.05488  0.35383  1.0000
  H   H111      1.0  0.76616  0.51524  0.01909  1.0000
  O   O8        1.0  0.76242  0.49006  0.19927  1.0000
  H   H112      1.0  0.79002  0.04649  0.21684  1.0000
  C   C125      1.0  0.54267  0.29468  0.31642  1.0000
  N   N19       1.0  0.01128  0.27966  0.31125  1.0000
  C   C126      1.0  0.99270  0.25692  0.37093  1.0000
  H   H113      1.0  0.56487  0.26217  0.00289  1.0000
  O   O9        1.0  0.55851  0.31694  0.25336  1.0000
  H   H114      1.0  0.00215  0.28607  0.26363  1.0000
  N   N20       1.0  0.69210  0.35480  0.35807  1.0000
  C   C127      1.0  0.70788  0.33724  0.36688  1.0000
  C   C128      1.0  0.70904  0.38860  0.35331  1.0000
  C   C129      1.0  0.65875  0.33740  0.36658  1.0000
  C   C130      1.0  0.63967  0.31676  0.29771  1.0000
  C   C131      1.0  0.60727  0.29993  0.30589  1.0000
  C   C132      1.0  0.59182  0.30383  0.38158  1.0000
  C   C133      1.0  0.61076  0.32634  0.44663  1.0000
  C   C134      1.0  0.64328  0.34152  0.44179  1.0000
  C   C135      1.0  0.72699  0.34086  0.44291  1.0000
  C   C136      1.0  0.74432  0.32566  0.44765  1.0000
  C   C137      1.0  0.74105  0.30347  0.38182  1.0000
  C   C138      1.0  0.72200  0.29992  0.30563  1.0000
  C   C139      1.0  0.70657  0.31689  0.29740  1.0000
  C   C140      1.0  0.74172  0.40637  0.35408  1.0000
  C   C141      1.0  0.75796  0.43890  0.35717  1.0000
  C   C142      1.0  0.74245  0.45586  0.36097  1.0000
  C   C143      1.0  0.71016  0.43879  0.35008  1.0000
  C   C144      1.0  0.69405  0.40624  0.34738  1.0000
  H   H115      1.0  0.75989  0.33136  0.49959  1.0000
  H   H116      1.0  0.72981  0.35622  0.49327  1.0000
  H   H117      1.0  0.69457  0.31446  0.23866  1.0000
  H   H118      1.0  0.71977  0.28526  0.25362  1.0000
  H   H119      1.0  0.64921  0.31398  0.23942  1.0000
  H   H120      1.0  0.59479  0.28508  0.25429  1.0000
  H   H121      1.0  0.75449  0.39574  0.35320  1.0000
  H   H122      1.0  0.78147  0.45023  0.35959  1.0000
  H   H123      1.0  0.69791  0.45003  0.34717  1.0000
  H   H124      1.0  0.67071  0.39547  0.34153  1.0000
  H   H125      1.0  0.65586  0.35711  0.49161  1.0000
  H   H126      1.0  0.60089  0.33212  0.49841  1.0000
  N   N21       1.0  0.85890  0.18870  0.36589  1.0000
  C   C145      1.0  0.84228  0.20523  0.36714  1.0000
  C   C146      1.0  0.84240  0.15558  0.36293  1.0000
  C   C147      1.0  0.89205  0.20537  0.36608  1.0000
  C   C148      1.0  0.90935  0.22221  0.28901  1.0000
  C   C149      1.0  0.94189  0.23894  0.29031  1.0000
  C   C150      1.0  0.95919  0.23981  0.36860  1.0000
  C   C151      1.0  0.94150  0.22230  0.44506  1.0000
  C   C152      1.0  0.90894  0.20567  0.44401  1.0000
  C   C153      1.0  0.83751  0.21789  0.28639  1.0000
  C   C154      1.0  0.82178  0.23470  0.28788  1.0000
  C   C155      1.0  0.80955  0.23951  0.37000  1.0000
  C   C156      1.0  0.81390  0.22615  0.45040  1.0000
  C   C157      1.0  0.83005  0.20974  0.44920  1.0000
  C   C158      1.0  0.84093  0.13949  0.28187  1.0000
  C   C159      1.0  0.82469  0.10694  0.27840  1.0000
  C   C160      1.0  0.80901  0.08844  0.35577  1.0000
  C   C161      1.0  0.81101  0.10501  0.43709  1.0000
  C   C162      1.0  0.82712  0.13755  0.44061  1.0000
  H   H127      1.0  0.81874  0.24283  0.22688  1.0000
  H   H128      1.0  0.84544  0.21474  0.22514  1.0000
  H   H129      1.0  0.83307  0.20117  0.50939  1.0000
  H   H130      1.0  0.80581  0.22882  0.51206  1.0000
  H   H131      1.0  0.89821  0.22221  0.23041  1.0000
  H   H132      1.0  0.95281  0.25010  0.23154  1.0000
  H   H133      1.0  0.85180  0.15161  0.22411  1.0000
  H   H134      1.0  0.82499  0.09697  0.21774  1.0000
  H   H135      1.0  0.80040  0.09344  0.49581  1.0000
  H   H136      1.0  0.82783  0.14814  0.50112  1.0000
  H   H137      1.0  0.89741  0.19379  0.50137  1.0000
  H   H138      1.0  0.95228  0.22179  0.50397  1.0000
  C   C163      1.0  0.75379  0.26374  0.44981  1.0000
  C   C164      1.0  0.75825  0.28732  0.38543  1.0000
  N   N22       1.0  0.77174  0.25051  0.43811  1.0000
  C   C165      1.0  0.73045  0.25039  0.52794  1.0000
  C   C166      1.0  0.72841  0.22040  0.56940  1.0000
  H   H139      1.0  0.72225  0.20288  0.51647  1.0000
  H   H140      1.0  0.71112  0.21041  0.62357  1.0000
  H   H141      1.0  0.75038  0.22535  0.59928  1.0000
  C   C167      1.0  0.69721  0.24060  0.49406  1.0000
  H   H142      1.0  0.69125  0.22568  0.43403  1.0000
  H   H143      1.0  0.69482  0.26031  0.47596  1.0000
  H   H144      1.0  0.68018  0.22816  0.54744  1.0000
  C   C168      1.0  0.73968  0.27364  0.60954  1.0000
  H   H145      1.0  0.76433  0.28472  0.62318  1.0000
  H   H146      1.0  0.73377  0.29128  0.59621  1.0000
  C   C169      1.0  0.76673  0.50750  0.44555  1.0000
  C   C170      1.0  0.75901  0.48908  0.36410  1.0000
  N   N23       1.0  0.78263  0.03875  0.43359  1.0000
  C   C171      1.0  0.75936  0.49618  0.54438  1.0000
  C   C172      1.0  0.77152  0.52352  0.61515  1.0000
  H   H147      1.0  0.79645  0.03816  0.61020  1.0000
  H   H148      1.0  0.76108  0.03774  0.60256  1.0000
  C   C173      1.0  0.77507  0.47708  0.57062  1.0000
  H   H149      1.0  0.79954  0.48977  0.55379  1.0000
  H   H150      1.0  0.76467  0.45514  0.53512  1.0000
  H   H151      1.0  0.77285  0.47191  0.64394  1.0000
  C   C174      1.0  0.72386  0.47645  0.56005  1.0000
  H   H152      1.0  0.71225  0.48837  0.53384  1.0000
  H   H153      1.0  0.71836  0.47181  0.63289  1.0000
  H   H154      1.0  0.71410  0.45420  0.52659  1.0000
  C   C175      1.0  0.53927  0.26378  0.44812  1.0000
  C   C176      1.0  0.55848  0.28777  0.38505  1.0000
  N   N24       1.0  0.00812  0.25053  0.43587  1.0000
  C   C177      1.0  0.54924  0.25022  0.52564  1.0000
  C   C178      1.0  0.52119  0.22059  0.56827  1.0000
  H   H155      1.0  0.00459  0.22602  0.59880  1.0000
  H   H156      1.0  0.52849  0.21051  0.62216  1.0000
  H   H157      1.0  0.00935  0.20298  0.51588  1.0000
  C   C179      1.0  0.56404  0.27357  0.60669  1.0000
  H   H158      1.0  0.55090  0.28505  0.62120  1.0000
  H   H159      1.0  0.58762  0.29088  0.59221  1.0000
  C   C180      1.0  0.57209  0.23985  0.49033  1.0000
  H   H160      1.0  0.56253  0.22474  0.43090  1.0000
  H   H161      1.0  0.57680  0.22743  0.54346  1.0000
  H   H162      1.0  0.59418  0.25930  0.47079  1.0000
  C   C181      1.0  0.78058  0.79373  0.31584  1.0000
  N   N25       1.0  0.79685  0.77862  0.31081  1.0000
  C   C182      1.0  0.79313  0.75650  0.37222  1.0000
  H   H163      1.0  0.72758  0.76225  0.00589  1.0000
  O   O10       1.0  0.78678  0.81562  0.25169  1.0000
  H   H164      1.0  0.81216  0.78458  0.26253  1.0000
  C   C183      1.0  0.76876  0.00547  0.27997  1.0000
  N   N26       1.0  0.78458  0.53691  0.27693  1.0000
  C   C184      1.0  0.79222  0.55488  0.35383  1.0000
  H   H165      1.0  0.76616  0.01524  0.01909  1.0000
  O   O11       1.0  0.76242  0.99006  0.19927  1.0000
  H   H166      1.0  0.79002  0.54649  0.21684  1.0000
  C   C185      1.0  0.54267  0.79468  0.31642  1.0000
  N   N27       1.0  0.01128  0.77966  0.31125  1.0000
  C   C186      1.0  0.99270  0.75692  0.37093  1.0000
  H   H167      1.0  0.56487  0.76218  0.00289  1.0000
  O   O12       1.0  0.55851  0.81694  0.25336  1.0000
  H   H168      1.0  0.00215  0.78607  0.26363  1.0000
  N   N28       1.0  0.69210  0.85480  0.35807  1.0000
  C   C187      1.0  0.70788  0.83724  0.36688  1.0000
  C   C188      1.0  0.70904  0.88860  0.35331  1.0000
  C   C189      1.0  0.65875  0.83740  0.36658  1.0000
  C   C190      1.0  0.63967  0.81676  0.29771  1.0000
  C   C191      1.0  0.60727  0.79993  0.30589  1.0000
  C   C192      1.0  0.59182  0.80383  0.38158  1.0000
  C   C193      1.0  0.61076  0.82634  0.44663  1.0000
  C   C194      1.0  0.64329  0.84152  0.44179  1.0000
  C   C195      1.0  0.72699  0.84086  0.44291  1.0000
  C   C196      1.0  0.74432  0.82566  0.44765  1.0000
  C   C197      1.0  0.74105  0.80347  0.38182  1.0000
  C   C198      1.0  0.72200  0.79992  0.30563  1.0000
  C   C199      1.0  0.70658  0.81689  0.29740  1.0000
  C   C200      1.0  0.74172  0.90637  0.35408  1.0000
  C   C201      1.0  0.75796  0.93890  0.35717  1.0000
  C   C202      1.0  0.74245  0.95586  0.36096  1.0000
  C   C203      1.0  0.71016  0.93879  0.35008  1.0000
  C   C204      1.0  0.69405  0.90624  0.34738  1.0000
  H   H169      1.0  0.75989  0.83136  0.49959  1.0000
  H   H170      1.0  0.72981  0.85622  0.49327  1.0000
  H   H171      1.0  0.69457  0.81446  0.23866  1.0000
  H   H172      1.0  0.71977  0.78526  0.25362  1.0000
  H   H173      1.0  0.64921  0.81398  0.23942  1.0000
  H   H174      1.0  0.59479  0.78508  0.25429  1.0000
  H   H175      1.0  0.75449  0.89574  0.35320  1.0000
  H   H176      1.0  0.78147  0.95023  0.35959  1.0000
  H   H177      1.0  0.69791  0.95003  0.34717  1.0000
  H   H178      1.0  0.67071  0.89547  0.34153  1.0000
  H   H179      1.0  0.65586  0.85711  0.49161  1.0000
  H   H180      1.0  0.60089  0.83213  0.49841  1.0000
  N   N29       1.0  0.85890  0.68870  0.36589  1.0000
  C   C205      1.0  0.84228  0.70523  0.36714  1.0000
  C   C206      1.0  0.84240  0.65558  0.36293  1.0000
  C   C207      1.0  0.89205  0.70537  0.36608  1.0000
  C   C208      1.0  0.90935  0.72221  0.28901  1.0000
  C   C209      1.0  0.94189  0.73894  0.29031  1.0000
  C   C210      1.0  0.95919  0.73981  0.36860  1.0000
  C   C211      1.0  0.94151  0.72230  0.44506  1.0000
  C   C212      1.0  0.90894  0.70567  0.44401  1.0000
  C   C213      1.0  0.83752  0.71789  0.28639  1.0000
  C   C214      1.0  0.82178  0.73470  0.28788  1.0000
  C   C215      1.0  0.80955  0.73951  0.37000  1.0000
  C   C216      1.0  0.81390  0.72615  0.45041  1.0000
  C   C217      1.0  0.83005  0.70974  0.44920  1.0000
  C   C218      1.0  0.84093  0.63949  0.28187  1.0000
  C   C219      1.0  0.82469  0.60694  0.27840  1.0000
  C   C220      1.0  0.80901  0.58844  0.35577  1.0000
  C   C221      1.0  0.81101  0.60501  0.43709  1.0000
  C   C222      1.0  0.82712  0.63755  0.44061  1.0000
  H   H181      1.0  0.81874  0.74283  0.22688  1.0000
  H   H182      1.0  0.84544  0.71474  0.22514  1.0000
  H   H183      1.0  0.83308  0.70117  0.50939  1.0000
  H   H184      1.0  0.80581  0.72882  0.51206  1.0000
  H   H185      1.0  0.89821  0.72221  0.23041  1.0000
  H   H186      1.0  0.95281  0.75010  0.23154  1.0000
  H   H187      1.0  0.85180  0.65161  0.22411  1.0000
  H   H188      1.0  0.82500  0.59697  0.21774  1.0000
  H   H189      1.0  0.80040  0.59344  0.49581  1.0000
  H   H190      1.0  0.82783  0.64814  0.50112  1.0000
  H   H191      1.0  0.89741  0.69379  0.50137  1.0000
  H   H192      1.0  0.95228  0.72179  0.50397  1.0000
  C   C223      1.0  0.75379  0.76374  0.44982  1.0000
  C   C224      1.0  0.75825  0.78732  0.38543  1.0000
  N   N30       1.0  0.77174  0.75051  0.43811  1.0000
  C   C225      1.0  0.73045  0.75039  0.52794  1.0000
  C   C226      1.0  0.72841  0.72040  0.56940  1.0000
  H   H193      1.0  0.72225  0.70288  0.51647  1.0000
  H   H194      1.0  0.71112  0.71042  0.62357  1.0000
  H   H195      1.0  0.75038  0.72536  0.59928  1.0000
  C   C227      1.0  0.69721  0.74060  0.49406  1.0000
  H   H196      1.0  0.69125  0.72568  0.43404  1.0000
  H   H197      1.0  0.69482  0.76031  0.47596  1.0000
  H   H198      1.0  0.68018  0.72816  0.54744  1.0000
  C   C228      1.0  0.73968  0.77364  0.60954  1.0000
  H   H199      1.0  0.76433  0.78472  0.62318  1.0000
  H   H200      1.0  0.73377  0.79128  0.59621  1.0000
  C   C229      1.0  0.76673  0.00750  0.44555  1.0000
  C   C230      1.0  0.75901  0.98908  0.36410  1.0000
  N   N31       1.0  0.78263  0.53875  0.43360  1.0000
  C   C231      1.0  0.75936  0.99619  0.54438  1.0000
  C   C232      1.0  0.77152  0.02352  0.61515  1.0000
  H   H201      1.0  0.79645  0.53816  0.61020  1.0000
  H   H202      1.0  0.76108  0.53774  0.60256  1.0000
  C   C233      1.0  0.77507  0.97708  0.57062  1.0000
  H   H203      1.0  0.79954  0.98977  0.55378  1.0000
  H   H204      1.0  0.76467  0.95514  0.53512  1.0000
  H   H205      1.0  0.77285  0.97191  0.64394  1.0000
  C   C234      1.0  0.72386  0.97645  0.56005  1.0000
  H   H206      1.0  0.71225  0.98837  0.53384  1.0000
  H   H207      1.0  0.71836  0.97181  0.63289  1.0000
  H   H208      1.0  0.71410  0.95420  0.52659  1.0000
  C   C235      1.0  0.53927  0.76378  0.44812  1.0000
  C   C236      1.0  0.55848  0.78777  0.38505  1.0000
  N   N32       1.0  0.00812  0.75054  0.43587  1.0000
  C   C237      1.0  0.54924  0.75022  0.52564  1.0000
  C   C238      1.0  0.52119  0.72059  0.56827  1.0000
  H   H209      1.0  0.00459  0.72602  0.59880  1.0000
  H   H210      1.0  0.52849  0.71051  0.62217  1.0000
  H   H211      1.0  0.00935  0.70298  0.51589  1.0000
  C   C239      1.0  0.56404  0.77357  0.60669  1.0000
  H   H212      1.0  0.55090  0.78506  0.62120  1.0000
  H   H213      1.0  0.58762  0.79088  0.59221  1.0000
  C   C240      1.0  0.57209  0.73985  0.49033  1.0000
  H   H214      1.0  0.56253  0.72474  0.43090  1.0000
  H   H215      1.0  0.57680  0.72742  0.54346  1.0000
  H   H216      1.0  0.59418  0.75930  0.47079  1.0000
