data_image0
_chemical_formula_structural       CNC4H2CH3CNC4H2CH3CNC4H2CH3C4HCNHCH3C4HCNHCH3C4HCNHCH3C6H3C6H3C6H3C6H3C4HCNHCH3C4HCNHCH3C4HCNHCH3CNC4H2CH3CNC4H2CH3CNC4H2CH3
_chemical_formula_sum              "C96 N12 H72"
_cell_length_a       34.3901
_cell_length_b       34.4005
_cell_length_c       14.7977
_cell_angle_alpha    90
_cell_angle_beta     90
_cell_angle_gamma    119.993

_space_group_name_H-M_alt    "P 1"
_space_group_IT_number       1

loop_
  _space_group_symop_operation_xyz
  'x, y, z'

loop_
  _atom_site_type_symbol
  _atom_site_label
  _atom_site_symmetry_multiplicity
  _atom_site_fract_x
  _atom_site_fract_y
  _atom_site_fract_z
  _atom_site_occupancy
  C   C1        1.0  0.31864  0.18955  0.32017  1.0000
  N   N1        1.0  0.27320  0.16511  0.32186  1.0000
  C   C2        1.0  0.19928  0.10252  0.34992  1.0000
  C   C3        1.0  0.17472  0.11381  0.28702  1.0000
  C   C4        1.0  0.12699  0.08971  0.29060  1.0000
  C   C5        1.0  0.10278  0.05474  0.35321  1.0000
  H   H1        1.0  0.10916  0.09696  0.24485  1.0000
  H   H2        1.0  0.33327  0.22029  0.28969  1.0000
  C   C6        1.0  0.19643  0.14867  0.21554  1.0000
  H   H3        1.0  0.21902  0.14197  0.17527  1.0000
  H   H4        1.0  0.21530  0.18177  0.24654  1.0000
  H   H5        1.0  0.17233  0.14978  0.16905  1.0000
  C   C7        1.0  0.82189  0.13180  0.32222  1.0000
  N   N2        1.0  0.84630  0.11075  0.32343  1.0000
  C   C8        1.0  0.90946  0.10016  0.34919  1.0000
  C   C9        1.0  0.89935  0.06559  0.28393  1.0000
  C   C10       1.0  0.92315  0.04168  0.28787  1.0000
  C   C11       1.0  0.95675  0.05114  0.35312  1.0000
  H   H6        1.0  0.91680  0.01750  0.24052  1.0000
  H   H7        1.0  0.79070  0.11526  0.29369  1.0000
  C   C12       1.0  0.86623  0.05441  0.20955  1.0000
  H   H8        1.0  0.87382  0.08474  0.17218  1.0000
  H   H9        1.0  0.83241  0.03935  0.23743  1.0000
  H   H10       1.0  0.86636  0.03052  0.16104  1.0000
  C   C13       1.0  0.87979  0.69312  0.32070  1.0000
  N   N3        1.0  0.90075  0.73857  0.32208  1.0000
  C   C14       1.0  0.91154  0.81234  0.34878  1.0000
  C   C15       1.0  0.94670  0.83688  0.28460  1.0000
  C   C16       1.0  0.97042  0.88459  0.28835  1.0000
  C   C17       1.0  0.96028  0.90872  0.35236  1.0000
  H   H11       1.0  0.99503  0.90244  0.24178  1.0000
  H   H12       1.0  0.89618  0.67851  0.29131  1.0000
  C   C18       1.0  0.95887  0.81508  0.21158  1.0000
  H   H13       1.0  0.92902  0.79235  0.17287  1.0000
  H   H14       1.0  0.97363  0.79634  0.24096  1.0000
  H   H15       1.0  0.98335  0.83914  0.16395  1.0000
  C   C19       1.0  0.49189  0.17647  0.32606  1.0000
  C   C20       1.0  0.56686  0.16334  0.33901  1.0000
  C   C21       1.0  0.56249  0.18559  0.26163  1.0000
  C   C22       1.0  0.52432  0.19099  0.25640  1.0000
  H   H16       1.0  0.52244  0.21007  0.20517  1.0000
  C   C23       1.0  0.66665  0.15231  0.30697  1.0000
  N   N4        1.0  0.62474  0.14678  0.30178  1.0000
  H   H17       1.0  0.67804  0.14158  0.25415  1.0000
  C   C24       1.0  0.59722  0.20837  0.19023  1.0000
  H   H18       1.0  0.62789  0.20734  0.20179  1.0000
  H   H19       1.0  0.60672  0.24373  0.18614  1.0000
  H   H20       1.0  0.58349  0.19259  0.12506  1.0000
  C   C25       1.0  0.83521  0.31847  0.32513  1.0000
  C   C26       1.0  0.84839  0.40655  0.33769  1.0000
  C   C27       1.0  0.82588  0.37976  0.26064  1.0000
  C   C28       1.0  0.82045  0.33619  0.25557  1.0000
  H   H21       1.0  0.80119  0.31511  0.20466  1.0000
  C   C29       1.0  0.85937  0.51730  0.30531  1.0000
  N   N5        1.0  0.86487  0.48091  0.30015  1.0000
  H   H22       1.0  0.86998  0.53934  0.25237  1.0000
  C   C30       1.0  0.80289  0.39158  0.18946  1.0000
  H   H23       1.0  0.80399  0.42332  0.20089  1.0000
  H   H24       1.0  0.76749  0.36573  0.18587  1.0000
  H   H25       1.0  0.81845  0.39347  0.12410  1.0000
  C   C31       1.0  0.69330  0.51981  0.32457  1.0000
  C   C32       1.0  0.60519  0.44494  0.33725  1.0000
  C   C33       1.0  0.63194  0.44921  0.26013  1.0000
  C   C34       1.0  0.67552  0.48734  0.25500  1.0000
  H   H26       1.0  0.69657  0.48916  0.20401  1.0000
  C   C35       1.0  0.49444  0.34512  0.30509  1.0000
  N   N6        1.0  0.53082  0.38701  0.29983  1.0000
  H   H27       1.0  0.47239  0.33366  0.25216  1.0000
  C   C36       1.0  0.62009  0.41441  0.18894  1.0000
  H   H28       1.0  0.58837  0.38377  0.20044  1.0000
  H   H29       1.0  0.64596  0.40490  0.18522  1.0000
  H   H30       1.0  0.61814  0.42807  0.12361  1.0000
  C   C37       1.0  0.05463  0.02979  0.35453  1.0000
  C   C38       1.0  0.02922  0.05191  0.35486  1.0000
  C   C39       1.0  0.98164  0.02793  0.35457  1.0000
  C   C40       1.0  0.95948  0.98041  0.35407  1.0000
  C   C41       1.0  0.98348  0.95683  0.35395  1.0000
  C   C42       1.0  0.03102  0.98221  0.35407  1.0000
  H   H31       1.0  0.92510  0.96260  0.35336  1.0000
  H   H32       1.0  0.04884  0.96566  0.35336  1.0000
  H   H33       1.0  0.04573  0.08629  0.35482  1.0000
  C   C43       1.0  0.46543  0.19748  0.33708  1.0000
  C   C44       1.0  0.48827  0.24442  0.34892  1.0000
  C   C45       1.0  0.46536  0.26830  0.36333  1.0000
  C   C46       1.0  0.41789  0.24405  0.36393  1.0000
  C   C47       1.0  0.39315  0.19650  0.35378  1.0000
  C   C48       1.0  0.41802  0.17396  0.34104  1.0000
  H   H34       1.0  0.40137  0.26136  0.37575  1.0000
  H   H35       1.0  0.40158  0.13999  0.33114  1.0000
  H   H36       1.0  0.52274  0.26174  0.34746  1.0000
  C   C49       1.0  0.81427  0.27105  0.33666  1.0000
  C   C50       1.0  0.76738  0.24698  0.34937  1.0000
  C   C51       1.0  0.74358  0.20026  0.36448  1.0000
  C   C52       1.0  0.76789  0.17709  0.36503  1.0000
  C   C53       1.0  0.81541  0.19984  0.35388  1.0000
  C   C54       1.0  0.83782  0.24719  0.34031  1.0000
  H   H37       1.0  0.75061  0.14332  0.37745  1.0000
  H   H38       1.0  0.87174  0.26473  0.32957  1.0000
  H   H39       1.0  0.75002  0.26409  0.34800  1.0000
  C   C55       1.0  0.74074  0.54628  0.33596  1.0000
  C   C56       1.0  0.76484  0.52346  0.34833  1.0000
  C   C57       1.0  0.81160  0.54639  0.36322  1.0000
  C   C58       1.0  0.83478  0.59385  0.36388  1.0000
  C   C59       1.0  0.81198  0.61859  0.35314  1.0000
  C   C60       1.0  0.76461  0.59368  0.33981  1.0000
  H   H40       1.0  0.86858  0.61035  0.37606  1.0000
  H   H41       1.0  0.74705  0.61007  0.32945  1.0000
  H   H42       1.0  0.74773  0.48901  0.34690  1.0000
  C   C61       1.0  0.34465  0.17196  0.35628  1.0000
  C   C62       1.0  0.24774  0.12300  0.35603  1.0000
  C   C63       1.0  0.27213  0.10339  0.39487  1.0000
  C   C64       1.0  0.31987  0.12847  0.39430  1.0000
  H   H43       1.0  0.33720  0.11480  0.42375  1.0000
  C   C65       1.0  0.12860  0.04532  0.41375  1.0000
  N   N7        1.0  0.17402  0.06913  0.40955  1.0000
  H   H44       1.0  0.11374  0.02098  0.46200  1.0000
  C   C66       1.0  0.25025  0.05725  0.43365  1.0000
  H   H45       1.0  0.23186  0.05583  0.49476  1.0000
  H   H46       1.0  0.27421  0.04653  0.45221  1.0000
  H   H47       1.0  0.22722  0.03314  0.38436  1.0000
  C   C67       1.0  0.84001  0.17590  0.35605  1.0000
  C   C68       1.0  0.88896  0.12801  0.35503  1.0000
  C   C69       1.0  0.90923  0.17251  0.39131  1.0000
  C   C70       1.0  0.88413  0.19512  0.39133  1.0000
  H   H48       1.0  0.89832  0.22650  0.41916  1.0000
  C   C71       1.0  0.96505  0.08521  0.41590  1.0000
  N   N8        1.0  0.94150  0.10710  0.41139  1.0000
  H   H49       1.0  0.98842  0.09367  0.46591  1.0000
  C   C72       1.0  0.95614  0.19723  0.42617  1.0000
  H   H50       1.0  0.95863  0.18156  0.48828  1.0000
  H   H51       1.0  0.96747  0.23235  0.44175  1.0000
  H   H52       1.0  0.97913  0.19690  0.37576  1.0000
  C   C73       1.0  0.83589  0.66710  0.35553  1.0000
  C   C74       1.0  0.88369  0.76394  0.35479  1.0000
  C   C75       1.0  0.83941  0.73960  0.39224  1.0000
  C   C76       1.0  0.81684  0.69189  0.39202  1.0000
  H   H53       1.0  0.78562  0.67461  0.42057  1.0000
  C   C77       1.0  0.92567  0.88290  0.41412  1.0000
  N   N9        1.0  0.90398  0.83748  0.40978  1.0000
  H   H54       1.0  0.91670  0.89775  0.46334  1.0000
  C   C78       1.0  0.81481  0.76158  0.42884  1.0000
  H   H55       1.0  0.83104  0.77985  0.49053  1.0000
  H   H56       1.0  0.77989  0.73769  0.44575  1.0000
  H   H57       1.0  0.81447  0.78475  0.37890  1.0000
  C   C79       1.0  0.49690  0.15263  0.39834  1.0000
  N   N10       1.0  0.53390  0.14816  0.40275  1.0000
  C   C80       1.0  0.60733  0.16383  0.36232  1.0000
  C   C81       1.0  0.63433  0.18851  0.43749  1.0000
  C   C82       1.0  0.67846  0.19546  0.44286  1.0000
  C   C83       1.0  0.69612  0.17919  0.37599  1.0000
  H   H58       1.0  0.69967  0.21628  0.49195  1.0000
  H   H59       1.0  0.47632  0.14370  0.45354  1.0000
  C   C84       1.0  0.61971  0.21079  0.50487  1.0000
  H   H60       1.0  0.61079  0.23335  0.47064  1.0000
  H   H61       1.0  0.64576  0.23057  0.55440  1.0000
  H   H62       1.0  0.59060  0.18549  0.54194  1.0000
  C   C85       1.0  0.85930  0.34744  0.39707  1.0000
  N   N11       1.0  0.86378  0.38891  0.40130  1.0000
  C   C86       1.0  0.84795  0.44655  0.36091  1.0000
  C   C87       1.0  0.82345  0.44899  0.43630  1.0000
  C   C88       1.0  0.81653  0.48617  0.44169  1.0000
  C   C89       1.0  0.83265  0.51997  0.37460  1.0000
  H   H63       1.0  0.79582  0.48664  0.49095  1.0000
  H   H64       1.0  0.86841  0.33591  0.45220  1.0000
  C   C90       1.0  0.80132  0.41220  0.50392  1.0000
  H   H65       1.0  0.77866  0.38067  0.46994  1.0000
  H   H66       1.0  0.78165  0.41853  0.55362  1.0000
  H   H67       1.0  0.82671  0.40843  0.54077  1.0000
  C   C91       1.0  0.66436  0.51494  0.39657  1.0000
  N   N12       1.0  0.62288  0.47797  0.40087  1.0000
  C   C92       1.0  0.56520  0.40451  0.36055  1.0000
  C   C93       1.0  0.56279  0.37763  0.43601  1.0000
  C   C94       1.0  0.52561  0.33352  0.44148  1.0000
  C   C95       1.0  0.49178  0.31577  0.37443  1.0000
  H   H68       1.0  0.52516  0.31240  0.49084  1.0000
  H   H69       1.0  0.67592  0.53557  0.45170  1.0000
  C   C96       1.0  0.59959  0.39234  0.50365  1.0000
  H   H70       1.0  0.63114  0.40122  0.46968  1.0000
  H   H71       1.0  0.59328  0.36637  0.55340  1.0000
  H   H72       1.0  0.60333  0.42149  0.54045  1.0000
