data_image0
_chemical_formula_structural       CNC2NC4NC18H14C2NC16H12C3NC2NC5NC4NC18H14CNC16H12C11H11CNCNC4NC16H13NCHNCHNCHNCHNCHNCHNCHNCHNCHNCHNCHNCHC7NC12H12C2NC3NC3NC18H14C12H12C3NC3NC3NC18H14C3NC3NC2NC5NC20H15C8NC14H13C2NC2OHC2NC2OHC2NC2OHC2NC2OHC2NC2OHC2NC2OHC2NC2OHC2NC2OHC2NC2OHC2NC2OHC2NC2OHC2NC2OH
_chemical_formula_sum              "C324 N48 H180 O12"
_cell_length_a       56.8895
_cell_length_b       56.8895
_cell_length_c       14.9867
_cell_angle_alpha    90.0018
_cell_angle_beta     89.9652
_cell_angle_gamma    120

_space_group_name_H-M_alt    "P 1"
_space_group_IT_number       1

loop_
  _space_group_symop_operation_xyz
  'x, y, z'

loop_
  _atom_site_type_symbol
  _atom_site_label
  _atom_site_symmetry_multiplicity
  _atom_site_fract_x
  _atom_site_fract_y
  _atom_site_fract_z
  _atom_site_occupancy
  C   C1        1.0  0.28738  0.53079  0.32898  1.0000
  N   N1        1.0  0.27844  0.48863  0.33597  1.0000
  C   C2        1.0  0.30585  0.50387  0.33093  1.0000
  C   C3        1.0  0.32569  0.49562  0.32980  1.0000
  N   N2        1.0  0.29518  0.44559  0.33145  1.0000
  C   C4        1.0  0.29712  0.42288  0.33074  1.0000
  C   C5        1.0  0.32487  0.43164  0.32872  1.0000
  C   C6        1.0  0.33888  0.45965  0.32847  1.0000
  C   C7        1.0  0.27564  0.39550  0.33261  1.0000
  N   N3        1.0  0.23531  0.40239  0.33570  1.0000
  C   C8        1.0  0.20787  0.38713  0.34061  1.0000
  C   C9        1.0  0.22647  0.36025  0.34154  1.0000
  C   C10       1.0  0.21673  0.46833  0.34064  1.0000
  C   C11       1.0  0.23818  0.49570  0.33918  1.0000
  C   C12       1.0  0.23113  0.51647  0.34121  1.0000
  C   C13       1.0  0.22230  0.52362  0.26306  1.0000
  C   C14       1.0  0.21756  0.54564  0.26353  1.0000
  C   C15       1.0  0.22148  0.56108  0.34192  1.0000
  C   C16       1.0  0.14672  0.36074  0.26689  1.0000
  C   C17       1.0  0.11860  0.34235  0.26762  1.0000
  C   C18       1.0  0.28313  0.37506  0.33191  1.0000
  C   C19       1.0  0.30453  0.33909  0.33039  1.0000
  C   C20       1.0  0.29879  0.34830  0.24980  1.0000
  C   C21       1.0  0.28829  0.36605  0.25039  1.0000
  C   C22       1.0  0.35347  0.51639  0.32834  1.0000
  C   C23       1.0  0.36672  0.52756  0.24664  1.0000
  C   C24       1.0  0.39316  0.55012  0.24577  1.0000
  C   C25       1.0  0.40712  0.56218  0.32622  1.0000
  H   H1        1.0  0.40199  0.55773  0.18522  1.0000
  H   H2        1.0  0.35690  0.51988  0.18737  1.0000
  H   H3        1.0  0.28586  0.54793  0.32577  1.0000
  H   H4        1.0  0.26876  0.46921  0.34147  1.0000
  H   H5        1.0  0.24498  0.42182  0.33069  1.0000
  H   H6        1.0  0.35955  0.47149  0.32709  1.0000
  H   H7        1.0  0.33379  0.41989  0.32802  1.0000
  H   H8        1.0  0.28521  0.37299  0.19100  1.0000
  H   H9        1.0  0.30243  0.34241  0.18935  1.0000
  H   H10       1.0  0.22812  0.34318  0.34378  1.0000
  H   H11       1.0  0.15719  0.36435  0.20819  1.0000
  H   H12       1.0  0.10943  0.33285  0.20925  1.0000
  H   H13       1.0  0.21160  0.55058  0.20541  1.0000
  H   H14       1.0  0.21991  0.51327  0.20478  1.0000
  C   C26       1.0  0.53766  0.75682  0.32906  1.0000
  C   C27       1.0  0.56456  0.80221  0.33134  1.0000
  N   N4        1.0  0.62283  0.84982  0.33193  1.0000
  C   C28       1.0  0.64554  0.87448  0.33127  1.0000
  C   C29       1.0  0.63677  0.89346  0.32942  1.0000
  C   C30       1.0  0.60876  0.87946  0.32922  1.0000
  C   C31       1.0  0.67293  0.88039  0.33301  1.0000
  C   C32       1.0  0.68131  0.82099  0.34080  1.0000
  C   C33       1.0  0.70818  0.86646  0.34151  1.0000
  C   C34       1.0  0.60012  0.74865  0.34109  1.0000
  C   C35       1.0  0.54482  0.69892  0.26354  1.0000
  C   C36       1.0  0.52277  0.67218  0.26403  1.0000
  C   C37       1.0  0.70775  0.78626  0.26725  1.0000
  C   C38       1.0  0.72617  0.77657  0.26800  1.0000
  C   C39       1.0  0.69336  0.90831  0.33223  1.0000
  C   C40       1.0  0.72013  0.95070  0.24997  1.0000
  C   C41       1.0  0.70238  0.92245  0.25066  1.0000
  C   C42       1.0  0.54095  0.83944  0.24706  1.0000
  C   C43       1.0  0.51841  0.84336  0.24606  1.0000
  H   H15       1.0  0.51089  0.84465  0.18547  1.0000
  H   H16       1.0  0.54872  0.83738  0.18783  1.0000
  H   H17       1.0  0.52054  0.73816  0.32553  1.0000
  H   H18       1.0  0.59692  0.88829  0.32795  1.0000
  H   H19       1.0  0.64853  0.91414  0.32878  1.0000
  H   H20       1.0  0.69544  0.91241  0.19130  1.0000
  H   H21       1.0  0.72602  0.96021  0.18947  1.0000
  H   H22       1.0  0.72524  0.88519  0.34392  1.0000
  H   H23       1.0  0.70419  0.79315  0.20856  1.0000
  H   H24       1.0  0.73571  0.77691  0.20966  1.0000
  H   H25       1.0  0.51782  0.66129  0.20590  1.0000
  H   H26       1.0  0.55516  0.70689  0.20523  1.0000
  C   C44       1.0  0.28739  0.75686  0.32626  1.0000
  C   C45       1.0  0.31162  0.78108  0.32858  1.0000
  C   C46       1.0  0.30585  0.80220  0.33502  1.0000
  N   N5        1.0  0.27839  0.79001  0.33568  1.0000
  C   C47       1.0  0.26623  0.76259  0.33060  1.0000
  C   C48       1.0  0.23814  0.74275  0.32956  1.0000
  N   N6        1.0  0.21861  0.77325  0.33107  1.0000
  C   C49       1.0  0.19396  0.77130  0.33038  1.0000
  C   C50       1.0  0.17497  0.74355  0.32858  1.0000
  C   C51       1.0  0.18898  0.72954  0.32838  1.0000
  C   C52       1.0  0.18805  0.79277  0.33213  1.0000
  C   C53       1.0  0.20780  0.82087  0.33555  1.0000
  N   N7        1.0  0.23527  0.83312  0.33507  1.0000
  C   C54       1.0  0.24743  0.86055  0.33999  1.0000
  C   C55       1.0  0.22621  0.86622  0.34374  1.0000
  C   C56       1.0  0.20196  0.84195  0.34063  1.0000
  C   C57       1.0  0.27555  0.88038  0.34194  1.0000
  N   N8        1.0  0.29511  0.84978  0.33976  1.0000
  C   C58       1.0  0.31978  0.85171  0.34037  1.0000
  C   C59       1.0  0.32570  0.83027  0.33896  1.0000
  C   C60       1.0  0.35353  0.83732  0.34115  1.0000
  C   C61       1.0  0.36956  0.84615  0.26305  1.0000
  C   C62       1.0  0.39631  0.85086  0.26365  1.0000
  C   C63       1.0  0.40777  0.84692  0.34214  1.0000
  C   C64       1.0  0.28293  0.90831  0.34490  1.0000
  C   C65       1.0  0.28220  0.92175  0.26662  1.0000
  C   C66       1.0  0.29187  0.94986  0.26747  1.0000
  C   C67       1.0  0.30253  0.96533  0.34634  1.0000
  C   C68       1.0  0.16012  0.78528  0.33145  1.0000
  C   C69       1.0  0.10275  0.76385  0.32998  1.0000
  C   C70       1.0  0.11771  0.76956  0.24939  1.0000
  C   C71       1.0  0.14596  0.78008  0.24995  1.0000
  C   C72       1.0  0.23114  0.71497  0.32809  1.0000
  C   C73       1.0  0.22904  0.70174  0.24637  1.0000
  C   C74       1.0  0.22515  0.67529  0.24547  1.0000
  C   C75       1.0  0.22325  0.66131  0.32589  1.0000
  H   H27       1.0  0.22390  0.66647  0.18490  1.0000
  H   H28       1.0  0.23117  0.71157  0.18712  1.0000
  H   H29       1.0  0.33028  0.78262  0.32521  1.0000
  H   H30       1.0  0.26865  0.79967  0.34152  1.0000
  H   H31       1.0  0.24504  0.82345  0.33053  1.0000
  H   H32       1.0  0.18015  0.70887  0.32716  1.0000
  H   H33       1.0  0.15430  0.73462  0.32796  1.0000
  H   H34       1.0  0.15598  0.78314  0.19055  1.0000
  H   H35       1.0  0.10818  0.76588  0.18894  1.0000
  H   H36       1.0  0.18323  0.84028  0.34290  1.0000
  H   H37       1.0  0.27535  0.91131  0.20789  1.0000
  H   H38       1.0  0.29156  0.95906  0.20913  1.0000
  H   H39       1.0  0.40724  0.85682  0.20557  1.0000
  H   H40       1.0  0.36163  0.84854  0.20470  1.0000
  C   C76       1.0  0.78522  0.54190  0.33161  1.0000
  N   N9        1.0  0.79589  0.60017  0.33212  1.0000
  C   C77       1.0  0.79394  0.62288  0.33147  1.0000
  C   C78       1.0  0.76619  0.61411  0.32963  1.0000
  C   C79       1.0  0.75218  0.58610  0.32941  1.0000
  C   C80       1.0  0.81542  0.65026  0.33321  1.0000
  C   C81       1.0  0.88319  0.65864  0.34085  1.0000
  C   C82       1.0  0.86460  0.68552  0.34148  1.0000
  C   C83       1.0  0.87434  0.57745  0.34120  1.0000
  C   C84       1.0  0.86884  0.52219  0.26368  1.0000
  C   C85       1.0  0.87357  0.50016  0.26415  1.0000
  C   C86       1.0  0.94437  0.68500  0.26715  1.0000
  C   C87       1.0  0.97249  0.70339  0.26779  1.0000
  C   C88       1.0  0.80793  0.67070  0.33241  1.0000
  C   C89       1.0  0.79230  0.69745  0.25017  1.0000
  C   C90       1.0  0.80283  0.67972  0.25085  1.0000
  C   C91       1.0  0.72438  0.51824  0.24739  1.0000
  C   C92       1.0  0.69793  0.49570  0.24648  1.0000
  H   H41       1.0  0.68911  0.48813  0.18592  1.0000
  H   H42       1.0  0.73422  0.52596  0.18813  1.0000
  H   H43       1.0  0.80523  0.49786  0.32612  1.0000
  H   H44       1.0  0.73151  0.57426  0.32819  1.0000
  H   H45       1.0  0.75726  0.62587  0.32905  1.0000
  H   H46       1.0  0.80589  0.67275  0.19149  1.0000
  H   H47       1.0  0.78869  0.70333  0.18968  1.0000
  H   H48       1.0  0.86294  0.70259  0.34370  1.0000
  H   H49       1.0  0.93392  0.68135  0.20842  1.0000
  H   H50       1.0  0.98168  0.71284  0.20935  1.0000
  H   H51       1.0  0.87959  0.49526  0.20606  1.0000
  H   H52       1.0  0.87125  0.53256  0.20541  1.0000
  C   C93       1.0  0.44553  0.17129  0.33161  1.0000
  C   C94       1.0  0.45429  0.15231  0.32957  1.0000
  C   C95       1.0  0.48230  0.16631  0.32938  1.0000
  C   C96       1.0  0.54626  0.34687  0.26413  1.0000
  C   C97       1.0  0.56828  0.37363  0.26459  1.0000
  C   C98       1.0  0.38342  0.25957  0.26755  1.0000
  C   C99       1.0  0.36502  0.26930  0.26817  1.0000
  C   C100      1.0  0.37098  0.09512  0.25012  1.0000
  C   C101      1.0  0.38873  0.12336  0.25091  1.0000
  C   C102      1.0  0.55019  0.20640  0.24753  1.0000
  C   C103      1.0  0.57275  0.20250  0.24656  1.0000
  H   H53       1.0  0.58034  0.20129  0.18599  1.0000
  H   H54       1.0  0.54250  0.20854  0.18829  1.0000
  H   H55       1.0  0.57057  0.30761  0.32685  1.0000
  H   H56       1.0  0.49414  0.15748  0.32799  1.0000
  H   H57       1.0  0.39569  0.13343  0.19158  1.0000
  H   H58       1.0  0.36511  0.08564  0.18960  1.0000
  H   H59       1.0  0.36582  0.16058  0.34438  1.0000
  H   H60       1.0  0.38705  0.25272  0.20887  1.0000
  H   H61       1.0  0.35555  0.26898  0.20976  1.0000
  H   H62       1.0  0.57323  0.38454  0.20647  1.0000
  H   H63       1.0  0.53592  0.33891  0.20585  1.0000
  C   C104      1.0  0.77946  0.26470  0.32908  1.0000
  N   N10       1.0  0.81268  0.25577  0.33641  1.0000
  C   C105      1.0  0.82485  0.28318  0.33130  1.0000
  N   N11       1.0  0.87246  0.27253  0.33177  1.0000
  C   C106      1.0  0.89712  0.27448  0.33106  1.0000
  C   C107      1.0  0.91610  0.30223  0.32924  1.0000
  C   C108      1.0  0.90210  0.31624  0.32910  1.0000
  C   C109      1.0  0.90303  0.25300  0.33274  1.0000
  N   N12       1.0  0.85580  0.21265  0.33566  1.0000
  C   C110      1.0  0.84364  0.18522  0.34056  1.0000
  C   C111      1.0  0.88911  0.20383  0.34120  1.0000
  C   C112      1.0  0.77129  0.19406  0.34107  1.0000
  C   C113      1.0  0.76537  0.21551  0.33966  1.0000
  C   C114      1.0  0.72155  0.19964  0.26373  1.0000
  C   C115      1.0  0.69480  0.19494  0.26433  1.0000
  C   C116      1.0  0.68331  0.19887  0.34280  1.0000
  C   C117      1.0  0.80892  0.12406  0.26704  1.0000
  C   C118      1.0  0.79923  0.09595  0.26779  1.0000
  C   C119      1.0  0.93095  0.26050  0.33196  1.0000
  C   C120      1.0  0.98832  0.28191  0.33025  1.0000
  C   C121      1.0  0.97336  0.27616  0.24971  1.0000
  C   C122      1.0  0.94511  0.26565  0.25039  1.0000
  C   C123      1.0  0.85994  0.33081  0.32882  1.0000
  C   C124      1.0  0.86208  0.34406  0.24710  1.0000
  C   C125      1.0  0.86601  0.37052  0.24616  1.0000
  H   H64       1.0  0.86731  0.37936  0.18559  1.0000
  H   H65       1.0  0.86004  0.33426  0.18785  1.0000
  H   H66       1.0  0.76080  0.26315  0.32558  1.0000
  H   H67       1.0  0.82242  0.24611  0.34262  1.0000
  H   H68       1.0  0.91093  0.33691  0.32787  1.0000
  H   H69       1.0  0.93678  0.31116  0.32858  1.0000
  H   H70       1.0  0.93508  0.26257  0.19104  1.0000
  H   H71       1.0  0.98287  0.27980  0.18923  1.0000
  H   H72       1.0  0.90784  0.20549  0.34358  1.0000
  H   H73       1.0  0.81581  0.13453  0.20834  1.0000
  H   H74       1.0  0.79958  0.08678  0.20944  1.0000
  H   H75       1.0  0.68390  0.18901  0.20624  1.0000
  H   H76       1.0  0.72950  0.19727  0.20539  1.0000
  N   N13       1.0  0.23141  0.60212  0.26966  1.0000
  C   C126      1.0  0.23265  0.62638  0.25983  1.0000
  H   H77       1.0  0.24307  0.63826  0.20666  1.0000
  N   N14       1.0  0.46625  0.62959  0.27023  1.0000
  C   C127      1.0  0.44200  0.60657  0.26039  1.0000
  H   H78       1.0  0.43014  0.60509  0.20717  1.0000
  N   N15       1.0  0.43894  0.83702  0.26997  1.0000
  C   C128      1.0  0.46196  0.83578  0.26026  1.0000
  H   H79       1.0  0.46350  0.82545  0.20697  1.0000
  N   N16       1.0  0.85973  0.44368  0.27025  1.0000
  C   C129      1.0  0.85850  0.41943  0.26042  1.0000
  H   H80       1.0  0.84810  0.40755  0.20727  1.0000
  N   N17       1.0  0.62476  0.41626  0.27071  1.0000
  C   C130      1.0  0.64902  0.43928  0.26086  1.0000
  H   H81       1.0  0.66091  0.44076  0.20769  1.0000
  N   N18       1.0  0.65222  0.20888  0.27071  1.0000
  C   C131      1.0  0.62920  0.21012  0.26097  1.0000
  H   H82       1.0  0.62770  0.22049  0.20776  1.0000
  N   N19       1.0  0.06142  0.32545  0.27450  1.0000
  C   C132      1.0  0.03414  0.31296  0.26466  1.0000
  H   H83       1.0  0.02647  0.31821  0.21161  1.0000
  N   N20       1.0  0.74306  0.73628  0.27491  1.0000
  C   C133      1.0  0.75556  0.72149  0.26502  1.0000
  H   H84       1.0  0.75026  0.70852  0.21211  1.0000
  N   N21       1.0  0.33216  0.00703  0.27456  1.0000
  C   C134      1.0  0.34695  0.03433  0.26479  1.0000
  H   H85       1.0  0.35994  0.04201  0.21187  1.0000
  N   N22       1.0  0.02965  0.72023  0.27469  1.0000
  C   C135      1.0  0.05694  0.73271  0.26476  1.0000
  H   H86       1.0  0.06461  0.72741  0.21181  1.0000
  N   N23       1.0  0.34811  0.30957  0.27490  1.0000
  C   C136      1.0  0.33562  0.32436  0.26498  1.0000
  H   H87       1.0  0.34088  0.33728  0.21193  1.0000
  N   N24       1.0  0.75896  0.03878  0.27468  1.0000
  C   C137      1.0  0.74418  0.01149  0.26479  1.0000
  H   H88       1.0  0.73121  0.00383  0.21187  1.0000
  C   C138      1.0  0.31160  0.53078  0.32674  1.0000
  C   C139      1.0  0.26625  0.50391  0.33533  1.0000
  C   C140      1.0  0.31984  0.46830  0.33015  1.0000
  C   C141      1.0  0.24755  0.38716  0.33622  1.0000
  C   C142      1.0  0.20220  0.36024  0.34456  1.0000
  C   C143      1.0  0.18806  0.39543  0.34237  1.0000
  C   C144      1.0  0.19401  0.42285  0.34154  1.0000
  N   N25       1.0  0.21866  0.44559  0.34017  1.0000
  C   C145      1.0  0.18904  0.45965  0.34271  1.0000
  C   C146      1.0  0.17504  0.43165  0.34224  1.0000
  C   C147      1.0  0.23041  0.55381  0.41986  1.0000
  C   C148      1.0  0.23495  0.53167  0.41982  1.0000
  C   C149      1.0  0.16012  0.37489  0.34523  1.0000
  C   C150      1.0  0.10309  0.33753  0.34645  1.0000
  C   C151      1.0  0.11673  0.35174  0.42472  1.0000
  C   C152      1.0  0.14489  0.36993  0.42448  1.0000
  C   C153      1.0  0.28795  0.36541  0.41264  1.0000
  C   C154      1.0  0.29830  0.34753  0.41171  1.0000
  C   C155      1.0  0.36740  0.52767  0.40893  1.0000
  C   C156      1.0  0.39391  0.55010  0.40771  1.0000
  H   H89       1.0  0.40292  0.55833  0.46756  1.0000
  H   H90       1.0  0.35802  0.52020  0.46899  1.0000
  H   H91       1.0  0.33024  0.54789  0.32194  1.0000
  H   H92       1.0  0.28487  0.37209  0.47259  1.0000
  H   H93       1.0  0.30252  0.34184  0.47166  1.0000
  H   H94       1.0  0.18356  0.34314  0.34952  1.0000
  H   H95       1.0  0.18016  0.47144  0.34333  1.0000
  H   H96       1.0  0.15436  0.41995  0.34276  1.0000
  H   H97       1.0  0.15399  0.38048  0.48151  1.0000
  H   H98       1.0  0.10613  0.34995  0.48189  1.0000
  H   H99       1.0  0.24206  0.52736  0.47664  1.0000
  H   H100      1.0  0.23485  0.56527  0.47656  1.0000
  C   C157      1.0  0.53766  0.78105  0.32686  1.0000
  C   C158      1.0  0.56454  0.76258  0.33570  1.0000
  N   N26       1.0  0.57981  0.79004  0.33645  1.0000
  C   C159      1.0  0.57280  0.83030  0.33036  1.0000
  C   C160      1.0  0.60012  0.85178  0.33079  1.0000
  C   C161      1.0  0.68127  0.86063  0.33641  1.0000
  N   N27       1.0  0.66604  0.83316  0.33590  1.0000
  C   C162      1.0  0.70819  0.84221  0.34464  1.0000
  C   C163      1.0  0.67301  0.79288  0.34268  1.0000
  C   C164      1.0  0.64559  0.77140  0.34193  1.0000
  N   N28       1.0  0.62286  0.77332  0.34051  1.0000
  C   C165      1.0  0.60880  0.72964  0.34318  1.0000
  C   C166      1.0  0.63680  0.74364  0.34275  1.0000
  C   C167      1.0  0.57275  0.74273  0.33963  1.0000
  C   C168      1.0  0.55197  0.71489  0.34171  1.0000
  C   C169      1.0  0.50732  0.66066  0.34246  1.0000
  C   C170      1.0  0.51460  0.67688  0.42039  1.0000
  C   C171      1.0  0.53678  0.70353  0.42038  1.0000
  C   C172      1.0  0.69356  0.78549  0.34556  1.0000
  C   C173      1.0  0.73098  0.76588  0.34684  1.0000
  C   C174      1.0  0.71671  0.76528  0.42509  1.0000
  C   C175      1.0  0.69848  0.77519  0.42479  1.0000
  C   C176      1.0  0.70299  0.92281  0.41291  1.0000
  C   C177      1.0  0.72086  0.95104  0.41187  1.0000
  C   C178      1.0  0.72933  0.96568  0.33049  1.0000
  C   C179      1.0  0.55203  0.83730  0.32882  1.0000
  C   C180      1.0  0.54065  0.83987  0.40934  1.0000
  C   C181      1.0  0.50626  0.84519  0.32644  1.0000
  C   C182      1.0  0.51822  0.84395  0.40800  1.0000
  H   H101      1.0  0.50994  0.84471  0.46781  1.0000
  H   H102      1.0  0.54805  0.83791  0.46944  1.0000
  H   H103      1.0  0.52056  0.78257  0.32170  1.0000
  H   H104      1.0  0.59920  0.79978  0.34265  1.0000
  H   H105      1.0  0.64661  0.82340  0.33119  1.0000
  H   H106      1.0  0.69634  0.91307  0.47289  1.0000
  H   H107      1.0  0.72660  0.96097  0.47178  1.0000
  H   H108      1.0  0.72530  0.84068  0.34960  1.0000
  H   H109      1.0  0.59700  0.70896  0.34398  1.0000
  H   H110      1.0  0.64850  0.73467  0.34329  1.0000
  H   H111      1.0  0.68791  0.77374  0.48181  1.0000
  H   H112      1.0  0.71845  0.75643  0.48221  1.0000
  H   H113      1.0  0.54107  0.71496  0.47716  1.0000
  H   H114      1.0  0.50314  0.66986  0.47711  1.0000
  C   C183      1.0  0.21666  0.74859  0.32994  1.0000
  C   C184      1.0  0.29703  0.87444  0.34121  1.0000
  C   C185      1.0  0.33879  0.87941  0.34252  1.0000
  C   C186      1.0  0.32479  0.89340  0.34211  1.0000
  C   C187      1.0  0.39151  0.83798  0.42000  1.0000
  C   C188      1.0  0.36485  0.83350  0.41987  1.0000
  C   C189      1.0  0.30311  0.95165  0.42453  1.0000
  C   C190      1.0  0.29316  0.92349  0.42422  1.0000
  C   C191      1.0  0.14563  0.78046  0.41219  1.0000
  C   C192      1.0  0.11740  0.77013  0.41130  1.0000
  C   C193      1.0  0.22852  0.70103  0.40866  1.0000
  C   C194      1.0  0.22446  0.67453  0.40740  1.0000
  H   H115      1.0  0.22362  0.66547  0.46725  1.0000
  H   H116      1.0  0.23043  0.71040  0.46873  1.0000
  H   H117      1.0  0.28588  0.73823  0.32134  1.0000
  H   H118      1.0  0.15538  0.78360  0.47214  1.0000
  H   H119      1.0  0.10748  0.76592  0.47124  1.0000
  H   H120      1.0  0.22773  0.88485  0.34867  1.0000
  H   H121      1.0  0.35946  0.88829  0.34343  1.0000
  H   H122      1.0  0.33376  0.91408  0.34272  1.0000
  H   H123      1.0  0.29463  0.91438  0.48117  1.0000
  H   H124      1.0  0.31192  0.96223  0.48169  1.0000
  H   H125      1.0  0.35339  0.82638  0.47663  1.0000
  H   H126      1.0  0.39849  0.83356  0.47681  1.0000
  C   C195      1.0  0.77948  0.51499  0.32732  1.0000
  C   C196      1.0  0.80370  0.51498  0.32950  1.0000
  C   C197      1.0  0.82483  0.54187  0.33590  1.0000
  N   N29       1.0  0.81264  0.55714  0.33667  1.0000
  C   C198      1.0  0.76538  0.55014  0.33057  1.0000
  C   C199      1.0  0.77122  0.57746  0.33095  1.0000
  C   C200      1.0  0.84351  0.65861  0.33653  1.0000
  N   N30       1.0  0.85576  0.64338  0.33608  1.0000
  C   C201      1.0  0.88887  0.68554  0.34451  1.0000
  C   C202      1.0  0.90301  0.65035  0.34277  1.0000
  C   C203      1.0  0.89707  0.62293  0.34206  1.0000
  N   N31       1.0  0.87241  0.60019  0.34061  1.0000
  C   C204      1.0  0.90203  0.58613  0.34334  1.0000
  C   C205      1.0  0.91603  0.61413  0.34294  1.0000
  C   C206      1.0  0.85290  0.55008  0.33977  1.0000
  C   C207      1.0  0.85995  0.52930  0.34180  1.0000
  C   C208      1.0  0.86960  0.48470  0.34252  1.0000
  C   C209      1.0  0.86060  0.49193  0.42043  1.0000
  C   C210      1.0  0.85609  0.51409  0.42043  1.0000
  C   C211      1.0  0.93094  0.67090  0.34557  1.0000
  C   C212      1.0  0.98798  0.70825  0.34663  1.0000
  C   C213      1.0  0.97431  0.69407  0.42498  1.0000
  C   C214      1.0  0.94615  0.67588  0.42482  1.0000
  C   C215      1.0  0.80307  0.68036  0.41311  1.0000
  C   C216      1.0  0.79273  0.69824  0.41208  1.0000
  C   C217      1.0  0.78653  0.70667  0.33071  1.0000
  C   C218      1.0  0.73760  0.52937  0.32910  1.0000
  C   C219      1.0  0.72365  0.51805  0.40968  1.0000
  C   C220      1.0  0.68394  0.48360  0.32692  1.0000
  C   C221      1.0  0.69715  0.49560  0.40841  1.0000
  H   H127      1.0  0.68809  0.48737  0.46826  1.0000
  H   H128      1.0  0.73302  0.52548  0.46975  1.0000
  H   H129      1.0  0.76085  0.49788  0.32238  1.0000
  H   H130      1.0  0.82231  0.57655  0.34230  1.0000
  H   H131      1.0  0.84608  0.62394  0.33169  1.0000
  H   H132      1.0  0.80612  0.67368  0.47308  1.0000
  H   H133      1.0  0.78848  0.70393  0.47198  1.0000
  H   H134      1.0  0.90750  0.70264  0.34932  1.0000
  H   H135      1.0  0.91092  0.57434  0.34428  1.0000
  H   H136      1.0  0.93671  0.62584  0.34360  1.0000
  H   H137      1.0  0.93704  0.66536  0.48191  1.0000
  H   H138      1.0  0.98490  0.69588  0.48215  1.0000
  H   H139      1.0  0.84893  0.51838  0.47721  1.0000
  H   H140      1.0  0.85616  0.48048  0.47716  1.0000
  C   C222      1.0  0.55342  0.26472  0.32780  1.0000
  C   C223      1.0  0.55343  0.28895  0.33005  1.0000
  C   C224      1.0  0.52655  0.28319  0.33641  1.0000
  N   N32       1.0  0.51127  0.25573  0.33704  1.0000
  C   C225      1.0  0.52651  0.24356  0.33198  1.0000
  C   C226      1.0  0.51827  0.21547  0.33081  1.0000
  C   C227      1.0  0.49094  0.19399  0.33111  1.0000
  N   N33       1.0  0.46823  0.19595  0.33239  1.0000
  C   C228      1.0  0.41814  0.16539  0.33341  1.0000
  C   C229      1.0  0.40981  0.18514  0.33701  1.0000
  N   N34       1.0  0.42503  0.21262  0.33656  1.0000
  C   C230      1.0  0.40977  0.22479  0.34142  1.0000
  C   C231      1.0  0.38288  0.20357  0.34526  1.0000
  C   C232      1.0  0.38289  0.17931  0.34223  1.0000
  C   C233      1.0  0.41806  0.25290  0.34320  1.0000
  C   C234      1.0  0.44549  0.27438  0.34246  1.0000
  N   N35       1.0  0.46822  0.27246  0.34114  1.0000
  C   C235      1.0  0.49096  0.29712  0.34168  1.0000
  C   C236      1.0  0.48228  0.31614  0.34373  1.0000
  C   C237      1.0  0.45429  0.30214  0.34319  1.0000
  C   C238      1.0  0.51833  0.30305  0.34025  1.0000
  C   C239      1.0  0.53911  0.33088  0.34228  1.0000
  C   C240      1.0  0.58372  0.38514  0.34297  1.0000
  C   C241      1.0  0.57643  0.36892  0.42093  1.0000
  C   C242      1.0  0.55430  0.34224  0.42089  1.0000
  C   C243      1.0  0.39752  0.26029  0.34595  1.0000
  C   C244      1.0  0.36016  0.27996  0.34697  1.0000
  C   C245      1.0  0.37433  0.28051  0.42531  1.0000
  C   C246      1.0  0.39252  0.27054  0.42518  1.0000
  C   C247      1.0  0.39771  0.13746  0.33252  1.0000
  C   C248      1.0  0.38802  0.12293  0.41316  1.0000
  C   C249      1.0  0.37014  0.09470  0.41203  1.0000
  C   C250      1.0  0.36173  0.08010  0.33060  1.0000
  C   C251      1.0  0.53904  0.20846  0.32927  1.0000
  C   C252      1.0  0.55034  0.20581  0.40981  1.0000
  C   C253      1.0  0.58482  0.20060  0.32697  1.0000
  C   C254      1.0  0.57276  0.20173  0.40850  1.0000
  H   H141      1.0  0.58100  0.20093  0.46833  1.0000
  H   H142      1.0  0.54287  0.20771  0.46991  1.0000
  H   H143      1.0  0.57054  0.26320  0.32297  1.0000
  H   H144      1.0  0.49185  0.24599  0.34255  1.0000
  H   H145      1.0  0.44447  0.22238  0.33164  1.0000
  H   H146      1.0  0.44254  0.13163  0.32881  1.0000
  H   H147      1.0  0.39467  0.13263  0.47317  1.0000
  H   H148      1.0  0.36442  0.08474  0.47190  1.0000
  H   H149      1.0  0.36577  0.20510  0.35015  1.0000
  H   H150      1.0  0.49407  0.33681  0.34437  1.0000
  H   H151      1.0  0.44258  0.31111  0.34367  1.0000
  H   H152      1.0  0.40304  0.27197  0.48225  1.0000
  H   H153      1.0  0.37251  0.28930  0.48246  1.0000
  H   H154      1.0  0.54998  0.33081  0.47772  1.0000
  H   H155      1.0  0.58789  0.37593  0.47762  1.0000
  C   C255      1.0  0.80368  0.28892  0.32686  1.0000
  C   C256      1.0  0.78522  0.24358  0.33569  1.0000
  C   C257      1.0  0.85293  0.30303  0.33031  1.0000
  C   C258      1.0  0.87441  0.29719  0.33068  1.0000
  C   C259      1.0  0.88328  0.22491  0.33614  1.0000
  C   C260      1.0  0.86486  0.17956  0.34435  1.0000
  C   C261      1.0  0.81553  0.16540  0.34248  1.0000
  C   C262      1.0  0.79404  0.17134  0.34180  1.0000
  N   N36       1.0  0.79596  0.19599  0.34041  1.0000
  C   C263      1.0  0.75228  0.16637  0.34318  1.0000
  C   C264      1.0  0.76628  0.15238  0.34268  1.0000
  C   C265      1.0  0.73754  0.20846  0.34184  1.0000
  C   C266      1.0  0.69954  0.20780  0.42067  1.0000
  C   C267      1.0  0.72619  0.21227  0.42056  1.0000
  C   C268      1.0  0.80814  0.13746  0.34535  1.0000
  C   C269      1.0  0.78855  0.08044  0.34663  1.0000
  C   C270      1.0  0.78794  0.09409  0.42488  1.0000
  C   C271      1.0  0.79784  0.12223  0.42458  1.0000
  C   C272      1.0  0.94544  0.26533  0.41265  1.0000
  C   C273      1.0  0.97367  0.27570  0.41162  1.0000
  C   C274      1.0  0.86249  0.34473  0.40938  1.0000
  C   C275      1.0  0.86784  0.38448  0.32658  1.0000
  C   C276      1.0  0.86658  0.37124  0.40810  1.0000
  H   H156      1.0  0.86734  0.38026  0.46794  1.0000
  H   H157      1.0  0.86053  0.33535  0.46946  1.0000
  H   H158      1.0  0.80520  0.30755  0.32171  1.0000
  H   H159      1.0  0.84604  0.22233  0.33098  1.0000
  H   H160      1.0  0.93569  0.26223  0.47263  1.0000
  H   H161      1.0  0.98359  0.27988  0.47153  1.0000
  H   H162      1.0  0.86333  0.16092  0.34931  1.0000
  H   H163      1.0  0.73161  0.15749  0.34403  1.0000
  H   H164      1.0  0.75731  0.13170  0.34322  1.0000
  H   H165      1.0  0.79638  0.13133  0.48161  1.0000
  H   H166      1.0  0.77908  0.08348  0.48199  1.0000
  H   H167      1.0  0.73764  0.21941  0.47730  1.0000
  H   H168      1.0  0.69254  0.21225  0.47742  1.0000
  C   C277      1.0  0.21920  0.58489  0.33935  1.0000
  C   C278      1.0  0.22130  0.63529  0.32636  1.0000
  N   N37       1.0  0.20907  0.61798  0.39588  1.0000
  C   C279      1.0  0.20729  0.59338  0.40626  1.0000
  C   C280      1.0  0.19260  0.57813  0.47866  1.0000
  O   O1        1.0  0.19988  0.58814  0.55276  1.0000
  H   H169      1.0  0.18479  0.55817  0.47622  1.0000
  C   C281      1.0  0.48346  0.63461  0.33990  1.0000
  C   C282      1.0  0.43312  0.58627  0.32675  1.0000
  N   N38       1.0  0.45043  0.59133  0.39620  1.0000
  C   C283      1.0  0.47500  0.61417  0.40666  1.0000
  C   C284      1.0  0.49023  0.61467  0.47898  1.0000
  O   O2        1.0  0.48039  0.61391  0.55222  1.0000
  H   H170      1.0  0.51017  0.62662  0.47581  1.0000
  C   C285      1.0  0.43385  0.84916  0.33968  1.0000
  C   C286      1.0  0.48219  0.84713  0.32682  1.0000
  N   N39       1.0  0.47704  0.85930  0.39636  1.0000
  C   C287      1.0  0.45419  0.86103  0.40671  1.0000
  C   C288      1.0  0.45365  0.87571  0.47924  1.0000
  O   O3        1.0  0.45471  0.86703  0.55278  1.0000
  H   H171      1.0  0.44181  0.88382  0.47483  1.0000
  C   C289      1.0  0.87189  0.46089  0.33996  1.0000
  C   C290      1.0  0.86981  0.41050  0.32700  1.0000
  N   N40       1.0  0.88198  0.42779  0.39656  1.0000
  C   C291      1.0  0.88374  0.45238  0.40697  1.0000
  C   C292      1.0  0.89841  0.46763  0.47931  1.0000
  O   O4        1.0  0.89114  0.45761  0.55343  1.0000
  H   H172      1.0  0.90621  0.48759  0.47688  1.0000
  C   C293      1.0  0.60753  0.41123  0.34039  1.0000
  C   C294      1.0  0.65792  0.45953  0.32740  1.0000
  N   N41       1.0  0.64060  0.45443  0.39691  1.0000
  C   C295      1.0  0.61600  0.43161  0.40730  1.0000
  C   C296      1.0  0.60075  0.43104  0.47970  1.0000
  O   O5        1.0  0.61075  0.43376  0.55379  1.0000
  H   H173      1.0  0.58079  0.41889  0.47726  1.0000
  C   C297      1.0  0.65725  0.19668  0.34035  1.0000
  C   C298      1.0  0.60891  0.19868  0.32740  1.0000
  N   N42       1.0  0.61399  0.18643  0.39682  1.0000
  C   C299      1.0  0.63683  0.18470  0.40719  1.0000
  C   C300      1.0  0.63734  0.16997  0.47950  1.0000
  O   O6        1.0  0.63661  0.17904  0.55274  1.0000
  H   H174      1.0  0.64929  0.16197  0.47627  1.0000
  C   C301      1.0  0.07425  0.32118  0.34392  1.0000
  C   C302      1.0  0.01724  0.29458  0.33083  1.0000
  N   N43       1.0  0.03013  0.29031  0.40012  1.0000
  C   C303      1.0  0.05751  0.30242  0.41052  1.0000
  C   C304      1.0  0.06651  0.29401  0.48264  1.0000
  O   O7        1.0  0.06025  0.29822  0.55642  1.0000
  H   H175      1.0  0.08485  0.29611  0.47806  1.0000
  C   C305      1.0  0.74733  0.75339  0.34432  1.0000
  C   C306      1.0  0.77387  0.72293  0.33129  1.0000
  N   N44       1.0  0.77813  0.74009  0.40056  1.0000
  C   C307      1.0  0.76606  0.75540  0.41094  1.0000
  C   C308      1.0  0.77443  0.77285  0.48285  1.0000
  O   O8        1.0  0.77193  0.76303  0.55717  1.0000
  H   H176      1.0  0.77200  0.78893  0.48014  1.0000
  C   C309      1.0  0.31501  0.99417  0.34391  1.0000
  C   C310      1.0  0.34547  0.05118  0.33108  1.0000
  N   N45       1.0  0.32826  0.03826  0.40029  1.0000
  C   C311      1.0  0.31294  0.01087  0.41053  1.0000
  C   C312      1.0  0.29548  0.00176  0.48247  1.0000
  O   O9        1.0  0.30529  0.00905  0.55680  1.0000
  H   H177      1.0  0.27941  0.98325  0.47972  1.0000
  C   C313      1.0  0.01682  0.72458  0.34399  1.0000
  C   C314      1.0  0.07383  0.75116  0.33071  1.0000
  N   N46       1.0  0.06094  0.75551  0.39987  1.0000
  C   C315      1.0  0.03356  0.74342  0.41034  1.0000
  C   C316      1.0  0.02453  0.75188  0.48220  1.0000
  O   O10       1.0  0.03059  0.74723  0.55571  1.0000
  H   H178      1.0  0.00615  0.74967  0.47879  1.0000
  C   C317      1.0  0.34381  0.29245  0.34434  1.0000
  C   C318      1.0  0.31720  0.32285  0.33107  1.0000
  N   N47       1.0  0.31291  0.30568  0.40037  1.0000
  C   C319      1.0  0.32501  0.29040  0.41086  1.0000
  C   C320      1.0  0.31657  0.27297  0.48296  1.0000
  O   O11       1.0  0.32075  0.28343  0.55675  1.0000
  H   H179      1.0  0.31867  0.25674  0.47841  1.0000
  C   C321      1.0  0.77606  0.05160  0.34410  1.0000
  C   C322      1.0  0.74560  0.99460  0.33105  1.0000
  N   N48       1.0  0.76275  0.00748  0.40034  1.0000
  C   C323      1.0  0.77806  0.03487  0.41072  1.0000
  C   C324      1.0  0.79549  0.04393  0.48264  1.0000
  O   O12       1.0  0.78567  0.03660  0.55697  1.0000
  H   H180      1.0  0.81158  0.06244  0.47994  1.0000
