data_image0
_chemical_formula_structural       C3NOCH3C3NOCH3C3NOCH3C3NOCH3C3NOCH3C3NOCH3CNHCNHCNHCNHCNHCNHC3NOCH3C3NOCH3C3NOCH3C3NOCH3C3NOCH3C3NOCH3C6H3C6H3C6H3C6H3C6H3C6H3C6H3C6H3C6H3C6H3C6H3C6H3CNHCNHCNHCNHCNHCNHC3NOCH3C3NOCH3C3NOCH3C3NOCH3C3NOCH3C3NOCH3CNHCNHCNHCNHCNHCNH
_chemical_formula_sum              "C162 N36 O18 H108"
_cell_length_a       39.3186
_cell_length_b       39.3187
_cell_length_c       14.7775
_cell_angle_alpha    90
_cell_angle_beta     90
_cell_angle_gamma    120

_space_group_name_H-M_alt    "P 1"
_space_group_IT_number       1

loop_
  _space_group_symop_operation_xyz
  'x, y, z'

loop_
  _atom_site_type_symbol
  _atom_site_label
  _atom_site_symmetry_multiplicity
  _atom_site_fract_x
  _atom_site_fract_y
  _atom_site_fract_z
  _atom_site_occupancy
  C   C1        1.0  0.25438  0.46034  0.26573  1.0000
  C   C2        1.0  0.27310  0.46011  0.34749  1.0000
  C   C3        1.0  0.20190  0.45982  0.34925  1.0000
  N   N1        1.0  0.21986  0.46071  0.27007  1.0000
  O   O1        1.0  0.27293  0.46247  0.18506  1.0000
  C   C4        1.0  0.25405  0.46245  0.10177  1.0000
  H   H1        1.0  0.22568  0.43557  0.09489  1.0000
  H   H2        1.0  0.27276  0.46389  0.04575  1.0000
  H   H3        1.0  0.25006  0.48798  0.09782  1.0000
  C   C5        1.0  0.57720  0.81652  0.26569  1.0000
  C   C6        1.0  0.57744  0.83548  0.34743  1.0000
  C   C7        1.0  0.57773  0.76457  0.34923  1.0000
  N   N2        1.0  0.57686  0.78164  0.27003  1.0000
  O   O2        1.0  0.57513  0.83296  0.18501  1.0000
  C   C8        1.0  0.57507  0.81406  0.10173  1.0000
  H   H4        1.0  0.60191  0.81249  0.09483  1.0000
  H   H5        1.0  0.57368  0.83135  0.04570  1.0000
  H   H6        1.0  0.54950  0.78457  0.09782  1.0000
  C   C9        1.0  0.22101  0.78317  0.26570  1.0000
  C   C10       1.0  0.20202  0.76445  0.34743  1.0000
  C   C11       1.0  0.27298  0.83564  0.34920  1.0000
  N   N3        1.0  0.25590  0.81769  0.27001  1.0000
  O   O3        1.0  0.20458  0.76463  0.18502  1.0000
  C   C12       1.0  0.22345  0.78349  0.10174  1.0000
  H   H7        1.0  0.22498  0.81188  0.09483  1.0000
  H   H8        1.0  0.20617  0.76478  0.04571  1.0000
  H   H9        1.0  0.25296  0.78746  0.09780  1.0000
  C   C13       1.0  0.78070  0.57969  0.26573  1.0000
  C   C14       1.0  0.76198  0.57992  0.34746  1.0000
  C   C15       1.0  0.83323  0.58026  0.34925  1.0000
  N   N4        1.0  0.81525  0.57937  0.27008  1.0000
  O   O4        1.0  0.76219  0.57761  0.18504  1.0000
  C   C16       1.0  0.78103  0.57755  0.10176  1.0000
  H   H10       1.0  0.80944  0.60439  0.09485  1.0000
  H   H11       1.0  0.76234  0.57614  0.04572  1.0000
  H   H12       1.0  0.78497  0.55199  0.09788  1.0000
  C   C17       1.0  0.45787  0.22352  0.26571  1.0000
  C   C18       1.0  0.45761  0.20453  0.34743  1.0000
  C   C19       1.0  0.45733  0.27547  0.34925  1.0000
  N   N5        1.0  0.45823  0.25840  0.27006  1.0000
  O   O5        1.0  0.46001  0.20711  0.18502  1.0000
  C   C20       1.0  0.45999  0.22598  0.10174  1.0000
  H   H13       1.0  0.43310  0.22747  0.09488  1.0000
  H   H14       1.0  0.46143  0.20871  0.04571  1.0000
  H   H15       1.0  0.48551  0.25550  0.09780  1.0000
  C   C21       1.0  0.81405  0.25688  0.26571  1.0000
  C   C22       1.0  0.83301  0.27560  0.34745  1.0000
  C   C23       1.0  0.76208  0.20438  0.34923  1.0000
  N   N6        1.0  0.77917  0.22235  0.27007  1.0000
  O   O6        1.0  0.83049  0.27540  0.18503  1.0000
  C   C24       1.0  0.81160  0.25654  0.10176  1.0000
  H   H16       1.0  0.81005  0.22814  0.09488  1.0000
  H   H17       1.0  0.82888  0.27523  0.04572  1.0000
  H   H18       1.0  0.78210  0.25259  0.09782  1.0000
  C   C25       1.0  0.15165  0.60367  0.26793  1.0000
  N   N7        1.0  0.15145  0.56908  0.26959  1.0000
  H   H19       1.0  0.14987  0.61486  0.20677  1.0000
  C   C26       1.0  0.43387  0.57045  0.26792  1.0000
  N   N8        1.0  0.46847  0.60485  0.26962  1.0000
  H   H20       1.0  0.42274  0.55747  0.20676  1.0000
  C   C27       1.0  0.46707  0.88589  0.26788  1.0000
  N   N9        1.0  0.43266  0.88608  0.26954  1.0000
  H   H21       1.0  0.48003  0.88768  0.20672  1.0000
  C   C28       1.0  0.88337  0.43634  0.26789  1.0000
  N   N10       1.0  0.88359  0.47095  0.26957  1.0000
  H   H22       1.0  0.88520  0.42519  0.20673  1.0000
  C   C29       1.0  0.60119  0.46956  0.26792  1.0000
  N   N11       1.0  0.56659  0.43516  0.26956  1.0000
  H   H23       1.0  0.61237  0.48253  0.20676  1.0000
  C   C30       1.0  0.56801  0.15416  0.26788  1.0000
  N   N12       1.0  0.60240  0.15395  0.26956  1.0000
  H   H24       1.0  0.55503  0.15232  0.20671  1.0000
  C   C31       1.0  0.03692  0.40133  0.26571  1.0000
  C   C32       1.0  0.05866  0.41201  0.34753  1.0000
  C   C33       1.0  0.97643  0.37039  0.34876  1.0000
  N   N13       1.0  0.99687  0.38189  0.26992  1.0000
  O   O7        1.0  0.05705  0.41474  0.18529  1.0000
  C   C34       1.0  0.03539  0.40344  0.10183  1.0000
  H   H25       1.0  0.01929  0.37154  0.09413  1.0000
  H   H26       1.0  0.05615  0.41607  0.04601  1.0000
  H   H27       1.0  0.01499  0.41464  0.09838  1.0000
  C   C35       1.0  0.63618  0.65808  0.26568  1.0000
  C   C36       1.0  0.62551  0.66911  0.34752  1.0000
  C   C37       1.0  0.66717  0.62851  0.34873  1.0000
  N   N14       1.0  0.65565  0.63750  0.26995  1.0000
  O   O8        1.0  0.62285  0.66487  0.18522  1.0000
  C   C38       1.0  0.63408  0.65441  0.10180  1.0000
  H   H28       1.0  0.66598  0.67013  0.09410  1.0000
  H   H29       1.0  0.62151  0.66258  0.04594  1.0000
  H   H30       1.0  0.62279  0.62279  0.09843  1.0000
  C   C39       1.0  0.37957  0.00059  0.26582  1.0000
  C   C40       1.0  0.36844  0.97889  0.34770  1.0000
  C   C41       1.0  0.40901  0.06113  0.34885  1.0000
  N   N15       1.0  0.40017  0.04065  0.27006  1.0000
  O   O9        1.0  0.37298  0.98049  0.18540  1.0000
  C   C42       1.0  0.38312  0.00213  0.10194  1.0000
  H   H31       1.0  0.36711  0.01802  0.09438  1.0000
  H   H32       1.0  0.37507  0.98138  0.04612  1.0000
  H   H33       1.0  0.41468  0.02271  0.09833  1.0000
  C   C43       1.0  0.99814  0.63866  0.26569  1.0000
  C   C44       1.0  0.97646  0.62799  0.34755  1.0000
  C   C45       1.0  0.05863  0.66964  0.34875  1.0000
  N   N16       1.0  0.03820  0.65815  0.26988  1.0000
  O   O10       1.0  0.97801  0.62534  0.18524  1.0000
  C   C46       1.0  0.99968  0.63655  0.10180  1.0000
  H   H34       1.0  0.01588  0.66845  0.09407  1.0000
  H   H35       1.0  0.97892  0.62398  0.04596  1.0000
  H   H36       1.0  0.01999  0.62525  0.09840  1.0000
  C   C47       1.0  0.39891  0.38197  0.26573  1.0000
  C   C48       1.0  0.40957  0.37096  0.34764  1.0000
  C   C49       1.0  0.36787  0.41145  0.34872  1.0000
  N   N17       1.0  0.37944  0.40255  0.26990  1.0000
  O   O11       1.0  0.41237  0.37529  0.18533  1.0000
  C   C50       1.0  0.40101  0.38557  0.10184  1.0000
  H   H37       1.0  0.36911  0.36968  0.09417  1.0000
  H   H38       1.0  0.41367  0.37745  0.04605  1.0000
  H   H39       1.0  0.41213  0.41715  0.09832  1.0000
  C   C51       1.0  0.65552  0.03939  0.26577  1.0000
  C   C52       1.0  0.66666  0.06115  0.34754  1.0000
  C   C53       1.0  0.62604  0.97889  0.34885  1.0000
  N   N18       1.0  0.63494  0.99934  0.27002  1.0000
  O   O12       1.0  0.66224  0.05949  0.18529  1.0000
  C   C54       1.0  0.65188  0.03780  0.10187  1.0000
  H   H40       1.0  0.66770  0.02171  0.09424  1.0000
  H   H41       1.0  0.66002  0.05854  0.04601  1.0000
  H   H42       1.0  0.62029  0.01739  0.09842  1.0000
  C   C55       1.0  0.14578  0.51332  0.34877  1.0000
  C   C56       1.0  0.10683  0.48167  0.34878  1.0000
  C   C57       1.0  0.09867  0.44235  0.34921  1.0000
  C   C58       1.0  0.13038  0.43491  0.34940  1.0000
  C   C59       1.0  0.16971  0.46637  0.34957  1.0000
  C   C60       1.0  0.17708  0.50547  0.34925  1.0000
  H   H43       1.0  0.12478  0.40652  0.34913  1.0000
  H   H44       1.0  0.20542  0.52845  0.34918  1.0000
  H   H45       1.0  0.08404  0.48736  0.34825  1.0000
  C   C61       1.0  0.52422  0.65495  0.34876  1.0000
  C   C62       1.0  0.55586  0.64764  0.34877  1.0000
  C   C63       1.0  0.59518  0.67880  0.34920  1.0000
  C   C64       1.0  0.60263  0.71795  0.34939  1.0000
  C   C65       1.0  0.57118  0.72584  0.34956  1.0000
  C   C66       1.0  0.53207  0.69410  0.34925  1.0000
  H   H46       1.0  0.63102  0.74074  0.34910  1.0000
  H   H47       1.0  0.50910  0.69947  0.34919  1.0000
  H   H48       1.0  0.55017  0.61916  0.34825  1.0000
  C   C67       1.0  0.38259  0.89175  0.34869  1.0000
  C   C68       1.0  0.38990  0.93070  0.34877  1.0000
  C   C69       1.0  0.35874  0.93887  0.34920  1.0000
  C   C70       1.0  0.31959  0.90716  0.34941  1.0000
  C   C71       1.0  0.31171  0.86783  0.34951  1.0000
  C   C72       1.0  0.34345  0.86046  0.34915  1.0000
  H   H49       1.0  0.29681  0.91277  0.34918  1.0000
  H   H50       1.0  0.33808  0.83211  0.34906  1.0000
  H   H51       1.0  0.41838  0.95349  0.34829  1.0000
  C   C73       1.0  0.88929  0.52671  0.34877  1.0000
  C   C74       1.0  0.92825  0.55834  0.34879  1.0000
  C   C75       1.0  0.93643  0.59767  0.34923  1.0000
  C   C76       1.0  0.90473  0.60513  0.34941  1.0000
  C   C77       1.0  0.86539  0.57369  0.34956  1.0000
  C   C78       1.0  0.85801  0.53458  0.34924  1.0000
  H   H52       1.0  0.91036  0.63353  0.34914  1.0000
  H   H53       1.0  0.82966  0.51162  0.34917  1.0000
  H   H54       1.0  0.95103  0.55264  0.34826  1.0000
  C   C79       1.0  0.51085  0.38509  0.34871  1.0000
  C   C80       1.0  0.47921  0.39241  0.34879  1.0000
  C   C81       1.0  0.43989  0.36125  0.34922  1.0000
  C   C82       1.0  0.43244  0.32210  0.34939  1.0000
  C   C83       1.0  0.46388  0.31421  0.34952  1.0000
  C   C84       1.0  0.50299  0.34594  0.34918  1.0000
  H   H55       1.0  0.40404  0.29932  0.34915  1.0000
  H   H56       1.0  0.52596  0.34057  0.34911  1.0000
  H   H57       1.0  0.48491  0.42089  0.34829  1.0000
  C   C85       1.0  0.65247  0.14827  0.34873  1.0000
  C   C86       1.0  0.64516  0.10932  0.34876  1.0000
  C   C87       1.0  0.67632  0.10116  0.34922  1.0000
  C   C88       1.0  0.71548  0.13287  0.34940  1.0000
  C   C89       1.0  0.72335  0.17220  0.34956  1.0000
  C   C90       1.0  0.69161  0.17957  0.34923  1.0000
  H   H58       1.0  0.73826  0.12726  0.34915  1.0000
  H   H59       1.0  0.69698  0.20791  0.34917  1.0000
  H   H60       1.0  0.61669  0.08653  0.34824  1.0000
  C   C91       1.0  0.51042  0.14744  0.34814  1.0000
  C   C92       1.0  0.47854  0.10859  0.34858  1.0000
  C   C93       1.0  0.43935  0.10079  0.34880  1.0000
  C   C94       1.0  0.43221  0.13268  0.34868  1.0000
  C   C95       1.0  0.46387  0.17192  0.34856  1.0000
  C   C96       1.0  0.50286  0.17893  0.34826  1.0000
  H   H61       1.0  0.40390  0.12732  0.34855  1.0000
  H   H62       1.0  0.52598  0.20719  0.34818  1.0000
  H   H63       1.0  0.48402  0.08567  0.34888  1.0000
  C   C97       1.0  0.65209  0.52712  0.34819  1.0000
  C   C98       1.0  0.64511  0.55899  0.34859  1.0000
  C   C99       1.0  0.67650  0.59819  0.34879  1.0000
  C   C100      1.0  0.71553  0.60533  0.34866  1.0000
  C   C101      1.0  0.72311  0.57368  0.34860  1.0000
  C   C102      1.0  0.69114  0.53469  0.34833  1.0000
  H   H64       1.0  0.73848  0.63364  0.34849  1.0000
  H   H65       1.0  0.69629  0.51157  0.34828  1.0000
  H   H66       1.0  0.61670  0.55351  0.34887  1.0000
  C   C103      1.0  0.89011  0.38549  0.34820  1.0000
  C   C104      1.0  0.92896  0.39246  0.34861  1.0000
  C   C105      1.0  0.93677  0.36108  0.34882  1.0000
  C   C106      1.0  0.90488  0.32204  0.34867  1.0000
  C   C107      1.0  0.86564  0.31446  0.34860  1.0000
  C   C108      1.0  0.85862  0.34643  0.34832  1.0000
  H   H67       1.0  0.91024  0.29909  0.34850  1.0000
  H   H68       1.0  0.83036  0.34129  0.34825  1.0000
  H   H69       1.0  0.95188  0.42087  0.34889  1.0000
  C   C109      1.0  0.52463  0.89257  0.34814  1.0000
  C   C110      1.0  0.55651  0.93142  0.34859  1.0000
  C   C111      1.0  0.59570  0.93923  0.34881  1.0000
  C   C112      1.0  0.60285  0.90734  0.34868  1.0000
  C   C113      1.0  0.57119  0.86810  0.34857  1.0000
  C   C114      1.0  0.53220  0.86108  0.34827  1.0000
  H   H70       1.0  0.63116  0.91270  0.34854  1.0000
  H   H71       1.0  0.50909  0.83282  0.34819  1.0000
  H   H72       1.0  0.55102  0.95434  0.34889  1.0000
  C   C115      1.0  0.38299  0.51288  0.34816  1.0000
  C   C116      1.0  0.38995  0.48099  0.34854  1.0000
  C   C117      1.0  0.35856  0.44180  0.34876  1.0000
  C   C118      1.0  0.31953  0.43467  0.34865  1.0000
  C   C119      1.0  0.31196  0.46634  0.34859  1.0000
  C   C120      1.0  0.34394  0.50532  0.34833  1.0000
  H   H73       1.0  0.29658  0.40636  0.34850  1.0000
  H   H74       1.0  0.33881  0.52845  0.34829  1.0000
  H   H75       1.0  0.41836  0.48647  0.34883  1.0000
  C   C121      1.0  0.14497  0.65456  0.34820  1.0000
  C   C122      1.0  0.10611  0.64758  0.34860  1.0000
  C   C123      1.0  0.09829  0.67896  0.34879  1.0000
  C   C124      1.0  0.13018  0.71799  0.34864  1.0000
  C   C125      1.0  0.16942  0.72558  0.34858  1.0000
  C   C126      1.0  0.17645  0.69362  0.34833  1.0000
  H   H76       1.0  0.12481  0.74094  0.34845  1.0000
  H   H77       1.0  0.20471  0.69877  0.34828  1.0000
  H   H78       1.0  0.08319  0.61917  0.34889  1.0000
  C   C127      1.0  0.25441  0.46005  0.42920  1.0000
  N   N19       1.0  0.22010  0.46051  0.42789  1.0000
  H   H79       1.0  0.26735  0.46165  0.49028  1.0000
  C   C128      1.0  0.57751  0.81686  0.42916  1.0000
  N   N20       1.0  0.57703  0.78208  0.42785  1.0000
  H   H80       1.0  0.57585  0.82817  0.49024  1.0000
  C   C129      1.0  0.22071  0.78312  0.42913  1.0000
  N   N21       1.0  0.25548  0.81743  0.42783  1.0000
  H   H81       1.0  0.20938  0.77017  0.49021  1.0000
  C   C130      1.0  0.78067  0.58000  0.42918  1.0000
  N   N22       1.0  0.81498  0.57953  0.42785  1.0000
  H   H82       1.0  0.76770  0.57833  0.49027  1.0000
  C   C131      1.0  0.45761  0.22320  0.42913  1.0000
  N   N23       1.0  0.45806  0.25796  0.42784  1.0000
  H   H83       1.0  0.45922  0.21186  0.49021  1.0000
  C   C132      1.0  0.81439  0.25691  0.42917  1.0000
  N   N24       1.0  0.77961  0.22261  0.42783  1.0000
  H   H84       1.0  0.82570  0.26987  0.49025  1.0000
  C   C133      1.0  0.15162  0.60371  0.43164  1.0000
  C   C134      1.0  0.15148  0.62225  0.34959  1.0000
  C   C135      1.0  0.15241  0.55194  0.34852  1.0000
  N   N25       1.0  0.15154  0.56900  0.42766  1.0000
  O   O13       1.0  0.14965  0.62033  0.51214  1.0000
  C   C136      1.0  0.14871  0.60110  0.59556  1.0000
  H   H85       1.0  0.12280  0.57181  0.59878  1.0000
  H   H86       1.0  0.14733  0.61848  0.65140  1.0000
  H   H87       1.0  0.17521  0.59898  0.60344  1.0000
  C   C137      1.0  0.43382  0.57038  0.43164  1.0000
  C   C138      1.0  0.41531  0.55169  0.34958  1.0000
  C   C139      1.0  0.48560  0.62297  0.34855  1.0000
  N   N26       1.0  0.46851  0.60503  0.42767  1.0000
  O   O14       1.0  0.41715  0.55181  0.51214  1.0000
  C   C140      1.0  0.43643  0.57007  0.59556  1.0000
  H   H88       1.0  0.46568  0.57335  0.59873  1.0000
  H   H89       1.0  0.41902  0.55132  0.65140  1.0000
  H   H90       1.0  0.43864  0.59873  0.60348  1.0000
  C   C141      1.0  0.46713  0.88591  0.43160  1.0000
  C   C142      1.0  0.48581  0.88605  0.34954  1.0000
  C   C143      1.0  0.41458  0.88511  0.34849  1.0000
  N   N27       1.0  0.43250  0.88598  0.42764  1.0000
  O   O15       1.0  0.48573  0.88787  0.51209  1.0000
  C   C144      1.0  0.46745  0.88883  0.59552  1.0000
  H   H91       1.0  0.46410  0.91476  0.59872  1.0000
  H   H92       1.0  0.48622  0.89021  0.65135  1.0000
  H   H93       1.0  0.43882  0.86235  0.60343  1.0000
  C   C145      1.0  0.88348  0.43634  0.43161  1.0000
  C   C146      1.0  0.88361  0.41780  0.34954  1.0000
  C   C147      1.0  0.88264  0.48809  0.34850  1.0000
  N   N28       1.0  0.88352  0.47103  0.42764  1.0000
  O   O16       1.0  0.88541  0.41969  0.51212  1.0000
  C   C148      1.0  0.88638  0.43895  0.59553  1.0000
  H   H94       1.0  0.91232  0.46822  0.59874  1.0000
  H   H95       1.0  0.88774  0.42155  0.65137  1.0000
  H   H96       1.0  0.85991  0.44111  0.60343  1.0000
  C   C149      1.0  0.60124  0.46962  0.43164  1.0000
  C   C150      1.0  0.61977  0.48830  0.34958  1.0000
  C   C151      1.0  0.54948  0.41707  0.34852  1.0000
  N   N29       1.0  0.56653  0.43499  0.42767  1.0000
  O   O17       1.0  0.61788  0.48821  0.51213  1.0000
  C   C152      1.0  0.59863  0.46993  0.59555  1.0000
  H   H97       1.0  0.56936  0.46658  0.59875  1.0000
  H   H98       1.0  0.61602  0.48870  0.65139  1.0000
  H   H99       1.0  0.59648  0.44130  0.60346  1.0000
  C   C153      1.0  0.56791  0.15410  0.43162  1.0000
  C   C154      1.0  0.54924  0.15393  0.34954  1.0000
  C   C155      1.0  0.62048  0.15491  0.34852  1.0000
  N   N30       1.0  0.60256  0.15406  0.42767  1.0000
  O   O18       1.0  0.54934  0.15219  0.51212  1.0000
  C   C156      1.0  0.56759  0.15118  0.59554  1.0000
  H   H100      1.0  0.57088  0.12521  0.59872  1.0000
  H   H101      1.0  0.54884  0.14983  0.65137  1.0000
  H   H102      1.0  0.59625  0.17763  0.60347  1.0000
  C   C157      1.0  0.03693  0.40065  0.42905  1.0000
  N   N31       1.0  0.99707  0.38144  0.42735  1.0000
  H   H103      1.0  0.05076  0.40994  0.49016  1.0000
  C   C158      1.0  0.63694  0.65887  0.42908  1.0000
  N   N32       1.0  0.65610  0.63816  0.42726  1.0000
  H   H104      1.0  0.62758  0.66329  0.49020  1.0000
  C   C159      1.0  0.37862  0.00060  0.42919  1.0000
  N   N33       1.0  0.39928  0.04047  0.42742  1.0000
  H   H105      1.0  0.37400  0.98678  0.49032  1.0000
  C   C160      1.0  0.99813  0.63941  0.42912  1.0000
  N   N34       1.0  0.03800  0.65858  0.42735  1.0000
  H   H106      1.0  0.98433  0.63004  0.49023  1.0000
  C   C161      1.0  0.39810  0.38120  0.42915  1.0000
  N   N35       1.0  0.37887  0.40183  0.42736  1.0000
  H   H107      1.0  0.40736  0.37664  0.49028  1.0000
  C   C162      1.0  0.65640  0.03945  0.42908  1.0000
  N   N36       1.0  0.63570  0.99958  0.42737  1.0000
  H   H108      1.0  0.66087  0.05325  0.49020  1.0000
