data_image0
_chemical_formula_structural       C3NC3NC5NC5NC36H26N4C3NC3NC5NC5NC36H26N4C3NC3NC5NC5NC36H26N5C2HCHNC2HCHNC2HCHNC2HCHNC2HCHNC2HCHC16H16C16H16C16H16CNC2ONH2CHCNC2ONH2CHCNC2ONH2CHCNC2ONH2CHCNC2ONH2CHCNC2ONH2CH
_chemical_formula_sum              "C246 N42 H156 O6"
_cell_length_a       67.4883
_cell_length_b       67.4882
_cell_length_c       14.8858
_cell_angle_alpha    89.8352
_cell_angle_beta     90.1648
_cell_angle_gamma    120

_space_group_name_H-M_alt    "P 1"
_space_group_IT_number       1

loop_
  _space_group_symop_operation_xyz
  'x, y, z'

loop_
  _atom_site_type_symbol
  _atom_site_label
  _atom_site_symmetry_multiplicity
  _atom_site_fract_x
  _atom_site_fract_y
  _atom_site_fract_z
  _atom_site_occupancy
  C   C1        1.0  0.04770  0.50692  0.31933  1.0000
  C   C2        1.0  0.02404  0.49498  0.32002  1.0000
  C   C3        1.0  0.01639  0.51078  0.31942  1.0000
  N   N1        1.0  0.03568  0.53163  0.31837  1.0000
  C   C4        1.0  0.05510  0.53031  0.31839  1.0000
  C   C5        1.0  0.07841  0.54816  0.31789  1.0000
  C   C6        1.0  0.08571  0.57192  0.31806  1.0000
  N   N2        1.0  0.07268  0.58198  0.31871  1.0000
  C   C7        1.0  0.08550  0.60509  0.31906  1.0000
  C   C8        1.0  0.10827  0.61017  0.31862  1.0000
  C   C9        1.0  0.10840  0.58979  0.31777  1.0000
  C   C10       1.0  0.07795  0.62135  0.31989  1.0000
  C   C11       1.0  0.05457  0.61565  0.31955  1.0000
  N   N3        1.0  0.03529  0.59480  0.31842  1.0000
  C   C12       1.0  0.01587  0.59612  0.31837  1.0000
  C   C13       1.0  0.02327  0.61951  0.31935  1.0000
  C   C14       1.0  0.04693  0.63144  0.32017  1.0000
  C   C15       1.0  0.99257  0.57827  0.31776  1.0000
  C   C16       1.0  0.98526  0.55452  0.31791  1.0000
  N   N4        1.0  0.99828  0.54445  0.31847  1.0000
  C   C17       1.0  0.98546  0.52134  0.31889  1.0000
  C   C18       1.0  0.96269  0.51628  0.31868  1.0000
  C   C19       1.0  0.96257  0.53666  0.31783  1.0000
  C   C20       1.0  0.99302  0.50508  0.31970  1.0000
  C   C21       1.0  0.97572  0.48145  0.32183  1.0000
  C   C22       1.0  0.93714  0.43586  0.32719  1.0000
  C   C23       1.0  0.94646  0.44716  0.24447  1.0000
  C   C24       1.0  0.96534  0.46958  0.24169  1.0000
  C   C25       1.0  0.91701  0.41353  0.32993  1.0000
  C   C26       1.0  0.91352  0.39623  0.26751  1.0000
  C   C27       1.0  0.89355  0.37453  0.26927  1.0000
  C   C28       1.0  0.87620  0.36930  0.33352  1.0000
  C   C29       1.0  0.97511  0.58440  0.31712  1.0000
  C   C30       1.0  0.93686  0.59195  0.31500  1.0000
  C   C31       1.0  0.94744  0.59092  0.23430  1.0000
  C   C32       1.0  0.96616  0.58713  0.23514  1.0000
  C   C33       1.0  0.91709  0.59479  0.31390  1.0000
  C   C34       1.0  0.87725  0.59987  0.31291  1.0000
  C   C35       1.0  0.88013  0.58640  0.24774  1.0000
  C   C36       1.0  0.89956  0.58375  0.24873  1.0000
  C   C37       1.0  0.09522  0.64498  0.32213  1.0000
  C   C38       1.0  0.10526  0.65706  0.24196  1.0000
  C   C39       1.0  0.12401  0.67956  0.24470  1.0000
  C   C40       1.0  0.13350  0.69074  0.32741  1.0000
  C   C41       1.0  0.15344  0.71320  0.33005  1.0000
  C   C42       1.0  0.19380  0.75777  0.33372  1.0000
  C   C43       1.0  0.17620  0.75243  0.27024  1.0000
  C   C44       1.0  0.15645  0.73056  0.26844  1.0000
  C   C45       1.0  0.09588  0.54206  0.31736  1.0000
  C   C46       1.0  0.10462  0.53918  0.23543  1.0000
  C   C47       1.0  0.13443  0.53497  0.31515  1.0000
  C   C48       1.0  0.12349  0.53562  0.23455  1.0000
  C   C49       1.0  0.15439  0.53247  0.31396  1.0000
  C   C50       1.0  0.17168  0.54352  0.24801  1.0000
  C   C51       1.0  0.19132  0.54123  0.24702  1.0000
  C   C52       1.0  0.19469  0.52816  0.31299  1.0000
  H   H1        1.0  0.20341  0.54954  0.19836  1.0000
  H   H2        1.0  0.17037  0.55377  0.20043  1.0000
  H   H3        1.0  0.12923  0.53357  0.17368  1.0000
  H   H4        1.0  0.09761  0.54016  0.17567  1.0000
  H   H5        1.0  0.05767  0.49947  0.31978  1.0000
  H   H6        1.0  0.01421  0.47754  0.32080  1.0000
  H   H7        1.0  0.03559  0.54581  0.31758  1.0000
  H   H8        1.0  0.03537  0.58062  0.31761  1.0000
  H   H9        1.0  0.12287  0.58853  0.31726  1.0000
  H   H10       1.0  0.12263  0.62598  0.31870  1.0000
  H   H11       1.0  0.09945  0.64927  0.18100  1.0000
  H   H12       1.0  0.13132  0.68733  0.18512  1.0000
  H   H13       1.0  0.05675  0.64888  0.32098  1.0000
  H   H14       1.0  0.01330  0.62696  0.31972  1.0000
  H   H15       1.0  0.94833  0.50046  0.31897  1.0000
  H   H16       1.0  0.94810  0.53792  0.31757  1.0000
  H   H17       1.0  0.97295  0.58594  0.17537  1.0000
  H   H18       1.0  0.94157  0.59289  0.17341  1.0000
  H   H19       1.0  0.90052  0.57323  0.20176  1.0000
  H   H20       1.0  0.86785  0.57810  0.19962  1.0000
  H   H21       1.0  0.97097  0.47750  0.18078  1.0000
  H   H22       1.0  0.93887  0.43959  0.18497  1.0000
  H   H23       1.0  0.89190  0.36247  0.22378  1.0000
  H   H24       1.0  0.92575  0.39914  0.22067  1.0000
  H   H25       1.0  0.14401  0.72758  0.22227  1.0000
  H   H26       1.0  0.17750  0.76452  0.22540  1.0000
  N   N5        1.0  0.85698  0.34906  0.33998  1.0000
  N   N6        1.0  0.21346  0.52630  0.30782  1.0000
  N   N7        1.0  0.21284  0.77817  0.34019  1.0000
  N   N8        1.0  0.85869  0.60211  0.30766  1.0000
  C   C53       1.0  0.59336  0.63486  0.32144  1.0000
  C   C54       1.0  0.60530  0.62314  0.32206  1.0000
  C   C55       1.0  0.58950  0.59970  0.32146  1.0000
  N   N9        1.0  0.56865  0.59814  0.32047  1.0000
  C   C56       1.0  0.56997  0.61888  0.32052  1.0000
  C   C57       1.0  0.55212  0.62434  0.32004  1.0000
  C   C58       1.0  0.52836  0.60788  0.32017  1.0000
  N   N10       1.0  0.51830  0.58479  0.32082  1.0000
  C   C59       1.0  0.49519  0.57451  0.32111  1.0000
  C   C60       1.0  0.49012  0.59220  0.32064  1.0000
  C   C61       1.0  0.51050  0.61271  0.31984  1.0000
  C   C62       1.0  0.47893  0.55069  0.32190  1.0000
  C   C63       1.0  0.48463  0.53302  0.32159  1.0000
  N   N11       1.0  0.50548  0.53458  0.32049  1.0000
  C   C64       1.0  0.50415  0.51384  0.32047  1.0000
  C   C65       1.0  0.48076  0.49786  0.32143  1.0000
  C   C66       1.0  0.46883  0.50958  0.32222  1.0000
  C   C67       1.0  0.52200  0.50838  0.31990  1.0000
  C   C68       1.0  0.54576  0.52483  0.32003  1.0000
  N   N12       1.0  0.55583  0.54792  0.32057  1.0000
  C   C69       1.0  0.57893  0.55820  0.32094  1.0000
  C   C70       1.0  0.58400  0.54050  0.32068  1.0000
  C   C71       1.0  0.56362  0.52000  0.31991  1.0000
  C   C72       1.0  0.59520  0.58202  0.32168  1.0000
  C   C73       1.0  0.61883  0.58835  0.32367  1.0000
  C   C74       1.0  0.66443  0.59538  0.32866  1.0000
  C   C75       1.0  0.65308  0.59349  0.24603  1.0000
  C   C76       1.0  0.63067  0.58998  0.24343  1.0000
  C   C77       1.0  0.68676  0.59758  0.33120  1.0000
  C   C78       1.0  0.70403  0.61147  0.26871  1.0000
  C   C79       1.0  0.72574  0.61321  0.27026  1.0000
  C   C80       1.0  0.73100  0.60100  0.33435  1.0000
  C   C81       1.0  0.51587  0.48480  0.31928  1.0000
  C   C82       1.0  0.50832  0.43899  0.31719  1.0000
  C   C83       1.0  0.50934  0.45071  0.23648  1.0000
  C   C84       1.0  0.51312  0.47322  0.23731  1.0000
  C   C85       1.0  0.50548  0.41639  0.31611  1.0000
  C   C86       1.0  0.50040  0.37147  0.31512  1.0000
  C   C87       1.0  0.51386  0.38790  0.24992  1.0000
  C   C88       1.0  0.51652  0.40998  0.25094  1.0000
  C   C89       1.0  0.45529  0.54434  0.32399  1.0000
  C   C90       1.0  0.44324  0.54235  0.24372  1.0000
  C   C91       1.0  0.42074  0.53862  0.24630  1.0000
  C   C92       1.0  0.40953  0.53684  0.32891  1.0000
  C   C93       1.0  0.38707  0.53430  0.33135  1.0000
  C   C94       1.0  0.34250  0.53010  0.33447  1.0000
  C   C95       1.0  0.34786  0.51789  0.27124  1.0000
  C   C96       1.0  0.36973  0.52000  0.26973  1.0000
  C   C97       1.0  0.55823  0.64791  0.31952  1.0000
  C   C98       1.0  0.56111  0.65964  0.23760  1.0000
  C   C99       1.0  0.56531  0.69356  0.31734  1.0000
  C   C100      1.0  0.56467  0.68208  0.23672  1.0000
  C   C101      1.0  0.56781  0.71602  0.31617  1.0000
  C   C102      1.0  0.55677  0.72234  0.25020  1.0000
  C   C103      1.0  0.55905  0.74428  0.24922  1.0000
  C   C104      1.0  0.57212  0.76063  0.31519  1.0000
  H   H27       1.0  0.55074  0.74811  0.20055  1.0000
  H   H28       1.0  0.54652  0.71084  0.20262  1.0000
  H   H29       1.0  0.56672  0.68994  0.17587  1.0000
  H   H30       1.0  0.56014  0.65174  0.17783  1.0000
  H   H31       1.0  0.60082  0.65229  0.32183  1.0000
  H   H32       1.0  0.62274  0.63075  0.32277  1.0000
  H   H33       1.0  0.55447  0.58387  0.31971  1.0000
  H   H34       1.0  0.51966  0.54885  0.31967  1.0000
  H   H35       1.0  0.51176  0.62844  0.31930  1.0000
  H   H36       1.0  0.47430  0.59075  0.32064  1.0000
  H   H37       1.0  0.45104  0.54439  0.18282  1.0000
  H   H38       1.0  0.41298  0.53818  0.18663  1.0000
  H   H39       1.0  0.45139  0.50196  0.32303  1.0000
  H   H40       1.0  0.47331  0.48043  0.32185  1.0000
  H   H41       1.0  0.59981  0.54195  0.32090  1.0000
  H   H42       1.0  0.56235  0.50426  0.31959  1.0000
  H   H43       1.0  0.51431  0.48127  0.17753  1.0000
  H   H44       1.0  0.50737  0.44294  0.17560  1.0000
  H   H45       1.0  0.52703  0.42152  0.20393  1.0000
  H   H46       1.0  0.52217  0.38399  0.20180  1.0000
  H   H47       1.0  0.62274  0.58779  0.18258  1.0000
  H   H48       1.0  0.66066  0.59362  0.18645  1.0000
  H   H49       1.0  0.73778  0.62369  0.22475  1.0000
  H   H50       1.0  0.70111  0.62088  0.22204  1.0000
  H   H51       1.0  0.37273  0.51059  0.22368  1.0000
  H   H52       1.0  0.33579  0.50713  0.22639  1.0000
  N   N13       1.0  0.75123  0.60199  0.34053  1.0000
  N   N14       1.0  0.57398  0.78126  0.31003  1.0000
  N   N15       1.0  0.32210  0.52873  0.34071  1.0000
  N   N16       1.0  0.49816  0.35068  0.30987  1.0000
  C   C105      1.0  0.46541  0.05258  0.32279  1.0000
  C   C106      1.0  0.47713  0.07624  0.32356  1.0000
  C   C107      1.0  0.50058  0.08388  0.32305  1.0000
  N   N17       1.0  0.50214  0.06460  0.32200  1.0000
  C   C108      1.0  0.48140  0.04517  0.32191  1.0000
  C   C109      1.0  0.47595  0.02187  0.32135  1.0000
  C   C110      1.0  0.49240  0.01457  0.32160  1.0000
  N   N18       1.0  0.51549  0.02759  0.32236  1.0000
  C   C111      1.0  0.52578  0.01478  0.32274  1.0000
  C   C112      1.0  0.50809  0.99201  0.32225  1.0000
  C   C113      1.0  0.48758  0.99188  0.32127  1.0000
  C   C114      1.0  0.54960  0.02233  0.32358  1.0000
  C   C115      1.0  0.56727  0.04571  0.32318  1.0000
  N   N19       1.0  0.56570  0.06499  0.32203  1.0000
  C   C116      1.0  0.58644  0.08441  0.32187  1.0000
  C   C117      1.0  0.60243  0.07701  0.32279  1.0000
  C   C118      1.0  0.59071  0.05335  0.32372  1.0000
  C   C119      1.0  0.59189  0.10771  0.32120  1.0000
  C   C120      1.0  0.57544  0.11502  0.32146  1.0000
  N   N20       1.0  0.55235  0.10200  0.32210  1.0000
  C   C121      1.0  0.54206  0.11481  0.32255  1.0000
  C   C122      1.0  0.55976  0.13758  0.32225  1.0000
  C   C123      1.0  0.58027  0.13771  0.32133  1.0000
  C   C124      1.0  0.51825  0.10726  0.32336  1.0000
  C   C125      1.0  0.51191  0.12455  0.32541  1.0000
  C   C126      1.0  0.50489  0.16312  0.33056  1.0000
  C   C127      1.0  0.50676  0.15378  0.24790  1.0000
  C   C128      1.0  0.51027  0.13488  0.24521  1.0000
  C   C129      1.0  0.50269  0.18325  0.33317  1.0000
  C   C130      1.0  0.48878  0.18670  0.27078  1.0000
  C   C131      1.0  0.48704  0.20667  0.27238  1.0000
  C   C132      1.0  0.49928  0.22407  0.33642  1.0000
  C   C133      1.0  0.61547  0.12517  0.32029  1.0000
  C   C134      1.0  0.66128  0.16342  0.31753  1.0000
  C   C135      1.0  0.64950  0.15277  0.23700  1.0000
  C   C136      1.0  0.62699  0.13404  0.23816  1.0000
  C   C137      1.0  0.68388  0.18318  0.31609  1.0000
  C   C138      1.0  0.72880  0.22302  0.31439  1.0000
  C   C139      1.0  0.71232  0.22009  0.24938  1.0000
  C   C140      1.0  0.69023  0.20066  0.25074  1.0000
  C   C141      1.0  0.55596  0.00506  0.32578  1.0000
  C   C142      1.0  0.55796  0.99508  0.24555  1.0000
  C   C143      1.0  0.56169  0.97632  0.24820  1.0000
  C   C144      1.0  0.56345  0.96678  0.33084  1.0000
  C   C145      1.0  0.56598  0.94685  0.33335  1.0000
  C   C146      1.0  0.57017  0.90647  0.33660  1.0000
  C   C147      1.0  0.58239  0.92412  0.27334  1.0000
  C   C148      1.0  0.58028  0.94388  0.27175  1.0000
  C   C149      1.0  0.45237  0.00440  0.32056  1.0000
  C   C150      1.0  0.44070  0.99572  0.23847  1.0000
  C   C151      1.0  0.40674  0.96584  0.31769  1.0000
  C   C152      1.0  0.41828  0.97684  0.23726  1.0000
  C   C153      1.0  0.38427  0.94588  0.31616  1.0000
  C   C154      1.0  0.37800  0.92865  0.25002  1.0000
  C   C155      1.0  0.35608  0.90899  0.24871  1.0000
  C   C156      1.0  0.33966  0.90558  0.31448  1.0000
  H   H53       1.0  0.35227  0.89695  0.19989  1.0000
  H   H54       1.0  0.38955  0.92999  0.20256  1.0000
  H   H55       1.0  0.41046  0.97114  0.17629  1.0000
  H   H56       1.0  0.44866  0.00277  0.17882  1.0000
  H   H57       1.0  0.44799  0.04260  0.32313  1.0000
  H   H58       1.0  0.46952  0.08606  0.32430  1.0000
  H   H59       1.0  0.51641  0.06469  0.32128  1.0000
  H   H60       1.0  0.55143  0.06490  0.32126  1.0000
  H   H61       1.0  0.47185  0.97741  0.32069  1.0000
  H   H62       1.0  0.50954  0.97765  0.32226  1.0000
  H   H63       1.0  0.55591  0.00091  0.18463  1.0000
  H   H64       1.0  0.56211  0.96905  0.18856  1.0000
  H   H65       1.0  0.59833  0.04353  0.32455  1.0000
  H   H66       1.0  0.61985  0.08698  0.32314  1.0000
  H   H67       1.0  0.55832  0.15195  0.32250  1.0000
  H   H68       1.0  0.59600  0.15218  0.32096  1.0000
  H   H69       1.0  0.61889  0.12721  0.17849  1.0000
  H   H70       1.0  0.65722  0.15859  0.17601  1.0000
  H   H71       1.0  0.67865  0.19967  0.20388  1.0000
  H   H72       1.0  0.71618  0.23233  0.20115  1.0000
  H   H73       1.0  0.51245  0.12921  0.18433  1.0000
  H   H74       1.0  0.50662  0.16130  0.18833  1.0000
  H   H75       1.0  0.47656  0.20829  0.22691  1.0000
  H   H76       1.0  0.47936  0.17444  0.22411  1.0000
  H   H77       1.0  0.58970  0.95635  0.22571  1.0000
  H   H78       1.0  0.59315  0.92285  0.22851  1.0000
  N   N21       1.0  0.49829  0.24331  0.34266  1.0000
  N   N22       1.0  0.31903  0.88682  0.30898  1.0000
  N   N23       1.0  0.57154  0.88743  0.34285  1.0000
  N   N24       1.0  0.74958  0.24157  0.30881  1.0000
  N   N25       1.0  0.25277  0.52569  0.26480  1.0000
  C   C157      1.0  0.27206  0.52581  0.23856  1.0000
  C   C158      1.0  0.28628  0.52414  0.30421  1.0000
  H   H79       1.0  0.27623  0.52766  0.17189  1.0000
  C   C159      1.0  0.30635  0.52433  0.28213  1.0000
  H   H80       1.0  0.30890  0.52173  0.21850  1.0000
  N   N26       1.0  0.57457  0.82122  0.26700  1.0000
  C   C160      1.0  0.57446  0.84044  0.24075  1.0000
  C   C161      1.0  0.57613  0.85624  0.30639  1.0000
  H   H81       1.0  0.57260  0.84284  0.17408  1.0000
  C   C162      1.0  0.57593  0.87615  0.28429  1.0000
  H   H82       1.0  0.57854  0.88137  0.22067  1.0000
  N   N27       1.0  0.27912  0.84752  0.26532  1.0000
  C   C163      1.0  0.25992  0.82824  0.23877  1.0000
  C   C164      1.0  0.24404  0.81400  0.30417  1.0000
  H   H83       1.0  0.25759  0.82410  0.17207  1.0000
  C   C165      1.0  0.22416  0.79395  0.28179  1.0000
  H   H84       1.0  0.21898  0.79143  0.21809  1.0000
  N   N28       1.0  0.81979  0.60357  0.26461  1.0000
  C   C166      1.0  0.80064  0.60382  0.23834  1.0000
  C   C167      1.0  0.78670  0.60583  0.30393  1.0000
  H   H85       1.0  0.79637  0.60199  0.17171  1.0000
  C   C168      1.0  0.76678  0.60600  0.28182  1.0000
  H   H86       1.0  0.76418  0.60857  0.21808  1.0000
  N   N29       1.0  0.49670  0.31037  0.26679  1.0000
  C   C169      1.0  0.49646  0.29102  0.24051  1.0000
  C   C170      1.0  0.49445  0.27498  0.30609  1.0000
  H   H87       1.0  0.49829  0.28866  0.17388  1.0000
  C   C171      1.0  0.49428  0.25492  0.28396  1.0000
  H   H88       1.0  0.49172  0.24985  0.22021  1.0000
  N   N30       1.0  0.78985  0.28046  0.26510  1.0000
  C   C172      1.0  0.80918  0.29960  0.23853  1.0000
  C   C173      1.0  0.82528  0.31357  0.30387  1.0000
  H   H89       1.0  0.81146  0.30383  0.17186  1.0000
  C   C174      1.0  0.84532  0.33347  0.28144  1.0000
  H   H90       1.0  0.85034  0.33604  0.21763  1.0000
  C   C175      1.0  0.96692  0.47023  0.40462  1.0000
  C   C176      1.0  0.94803  0.44782  0.40706  1.0000
  C   C177      1.0  0.87969  0.38628  0.39671  1.0000
  C   C178      1.0  0.89960  0.40800  0.39457  1.0000
  C   C179      1.0  0.96499  0.58574  0.39807  1.0000
  C   C180      1.0  0.94624  0.58949  0.39686  1.0000
  C   C181      1.0  0.91420  0.60861  0.37822  1.0000
  C   C182      1.0  0.89469  0.61114  0.37778  1.0000
  C   C183      1.0  0.12297  0.67854  0.40734  1.0000
  C   C184      1.0  0.10423  0.65605  0.40493  1.0000
  C   C185      1.0  0.17111  0.71883  0.39388  1.0000
  C   C186      1.0  0.19080  0.74071  0.39608  1.0000
  C   C187      1.0  0.10634  0.54107  0.39824  1.0000
  C   C188      1.0  0.12523  0.53754  0.39700  1.0000
  C   C189      1.0  0.17750  0.51689  0.37864  1.0000
  C   C190      1.0  0.15778  0.51905  0.37909  1.0000
  H   H91       1.0  0.17908  0.50674  0.42594  1.0000
  H   H92       1.0  0.14561  0.51026  0.42688  1.0000
  H   H93       1.0  0.13282  0.53784  0.45695  1.0000
  H   H94       1.0  0.10073  0.54366  0.45851  1.0000
  H   H95       1.0  0.09753  0.64761  0.46415  1.0000
  H   H96       1.0  0.12896  0.68590  0.46879  1.0000
  H   H97       1.0  0.97075  0.58327  0.45841  1.0000
  H   H98       1.0  0.93890  0.58947  0.45691  1.0000
  H   H99       1.0  0.89347  0.62157  0.42444  1.0000
  H   H100      1.0  0.92657  0.61741  0.42540  1.0000
  H   H101      1.0  0.90098  0.41997  0.44005  1.0000
  H   H102      1.0  0.86750  0.38306  0.44424  1.0000
  H   H103      1.0  0.94218  0.44036  0.46850  1.0000
  H   H104      1.0  0.97384  0.47853  0.46383  1.0000
  H   H105      1.0  0.17007  0.70684  0.43876  1.0000
  H   H106      1.0  0.20319  0.74401  0.44301  1.0000
  C   C191      1.0  0.63007  0.59065  0.40638  1.0000
  C   C192      1.0  0.65248  0.59417  0.40863  1.0000
  C   C193      1.0  0.71404  0.58740  0.39758  1.0000
  C   C194      1.0  0.69231  0.58559  0.39563  1.0000
  C   C195      1.0  0.51456  0.47325  0.40023  1.0000
  C   C196      1.0  0.51080  0.45074  0.39905  1.0000
  C   C197      1.0  0.49167  0.39961  0.38044  1.0000
  C   C198      1.0  0.48913  0.37756  0.38000  1.0000
  C   C199      1.0  0.42171  0.53845  0.40894  1.0000
  C   C200      1.0  0.44420  0.54220  0.40671  1.0000
  C   C201      1.0  0.38141  0.54628  0.39498  1.0000
  C   C202      1.0  0.35952  0.54409  0.39690  1.0000
  C   C203      1.0  0.55921  0.65926  0.40041  1.0000
  C   C204      1.0  0.56275  0.68168  0.39918  1.0000
  C   C205      1.0  0.58339  0.75463  0.38085  1.0000
  C   C206      1.0  0.58123  0.73274  0.38130  1.0000
  H   H107      1.0  0.59353  0.76629  0.42817  1.0000
  H   H108      1.0  0.59002  0.72931  0.42909  1.0000
  H   H109      1.0  0.56243  0.68889  0.45912  1.0000
  H   H110      1.0  0.55661  0.65098  0.46068  1.0000
  H   H111      1.0  0.45264  0.54391  0.46598  1.0000
  H   H112      1.0  0.41434  0.53702  0.47033  1.0000
  H   H113      1.0  0.51700  0.48140  0.46057  1.0000
  H   H114      1.0  0.51080  0.44334  0.45910  1.0000
  H   H115      1.0  0.47870  0.36585  0.42668  1.0000
  H   H116      1.0  0.48286  0.40311  0.42762  1.0000
  H   H117      1.0  0.68037  0.57494  0.44116  1.0000
  H   H118      1.0  0.71727  0.57835  0.44496  1.0000
  H   H119      1.0  0.65996  0.59568  0.47001  1.0000
  H   H120      1.0  0.62179  0.58916  0.46566  1.0000
  H   H121      1.0  0.39338  0.55720  0.43984  1.0000
  H   H122      1.0  0.35621  0.55315  0.44368  1.0000
  C   C207      1.0  0.50963  0.13339  0.40815  1.0000
  C   C208      1.0  0.50612  0.15228  0.41049  1.0000
  C   C209      1.0  0.51289  0.22062  0.39960  1.0000
  C   C210      1.0  0.51469  0.20071  0.39762  1.0000
  C   C211      1.0  0.62709  0.13536  0.40108  1.0000
  C   C212      1.0  0.64960  0.15410  0.39956  1.0000
  C   C213      1.0  0.70072  0.18612  0.38024  1.0000
  C   C214      1.0  0.72276  0.20562  0.37944  1.0000
  C   C215      1.0  0.56183  0.97726  0.41084  1.0000
  C   C216      1.0  0.55808  0.99600  0.40853  1.0000
  C   C217      1.0  0.55400  0.92913  0.39699  1.0000
  C   C218      1.0  0.55618  0.90943  0.39899  1.0000
  C   C219      1.0  0.44097  0.99386  0.40126  1.0000
  C   C220      1.0  0.41854  0.97498  0.39970  1.0000
  C   C221      1.0  0.34561  0.92272  0.38031  1.0000
  C   C222      1.0  0.36750  0.94244  0.38110  1.0000
  H   H123      1.0  0.33390  0.92110  0.42750  1.0000
  H   H124      1.0  0.37089  0.95457  0.42903  1.0000
  H   H125      1.0  0.41128  0.96734  0.45953  1.0000
  H   H126      1.0  0.44919  0.99943  0.46164  1.0000
  H   H127      1.0  0.55636  0.00266  0.46778  1.0000
  H   H128      1.0  0.56325  0.97123  0.47225  1.0000
  H   H129      1.0  0.61898  0.12963  0.46153  1.0000
  H   H130      1.0  0.65704  0.16148  0.45949  1.0000
  H   H131      1.0  0.73451  0.20688  0.42599  1.0000
  H   H132      1.0  0.69725  0.17378  0.42754  1.0000
  H   H133      1.0  0.52536  0.19936  0.44307  1.0000
  H   H134      1.0  0.52195  0.23285  0.44696  1.0000
  H   H135      1.0  0.50463  0.15817  0.47191  1.0000
  H   H136      1.0  0.51116  0.12653  0.46741  1.0000
  H   H137      1.0  0.54307  0.93013  0.44182  1.0000
  H   H138      1.0  0.54711  0.89701  0.44575  1.0000
  C   C223      1.0  0.24550  0.52341  0.35156  1.0000
  N   N31       1.0  0.27905  0.52177  0.39080  1.0000
  C   C224      1.0  0.25944  0.52107  0.41813  1.0000
  C   C225      1.0  0.25467  0.51775  0.51130  1.0000
  O   O1        1.0  0.27235  0.52775  0.56990  1.0000
  N   N32       1.0  0.23403  0.50209  0.54441  1.0000
  H   H139      1.0  0.22139  0.49227  0.50502  1.0000
  H   H140      1.0  0.23203  0.49916  0.60869  1.0000
  C   C226      1.0  0.22609  0.52501  0.37001  1.0000
  H   H141      1.0  0.22232  0.52619  0.43350  1.0000
  C   C227      1.0  0.57687  0.81614  0.35376  1.0000
  N   N33       1.0  0.57849  0.85127  0.39298  1.0000
  C   C228      1.0  0.57921  0.83234  0.42032  1.0000
  C   C229      1.0  0.58253  0.83077  0.51349  1.0000
  O   O2        1.0  0.57253  0.83838  0.57208  1.0000
  N   N34       1.0  0.59819  0.82576  0.54659  1.0000
  H   H142      1.0  0.60801  0.82299  0.50720  1.0000
  H   H143      1.0  0.60112  0.82660  0.61087  1.0000
  C   C230      1.0  0.57527  0.79511  0.37222  1.0000
  H   H144      1.0  0.57409  0.79008  0.43571  1.0000
  C   C231      1.0  0.28410  0.85475  0.35216  1.0000
  N   N35       1.0  0.24893  0.82119  0.39083  1.0000
  C   C232      1.0  0.26784  0.84078  0.41845  1.0000
  C   C233      1.0  0.26931  0.84551  0.51165  1.0000
  O   O3        1.0  0.26163  0.82780  0.57014  1.0000
  N   N36       1.0  0.27430  0.86614  0.54480  1.0000
  H   H145      1.0  0.27713  0.87880  0.50543  1.0000
  H   H146      1.0  0.27339  0.86812  0.60906  1.0000
  C   C234      1.0  0.30513  0.87414  0.37094  1.0000
  H   H147      1.0  0.31009  0.87787  0.43451  1.0000
  C   C235      1.0  0.82716  0.60580  0.35132  1.0000
  N   N37       1.0  0.79404  0.60813  0.39047  1.0000
  C   C236      1.0  0.81351  0.60848  0.41780  1.0000
  C   C237      1.0  0.81844  0.61179  0.51091  1.0000
  O   O4        1.0  0.80083  0.60203  0.56971  1.0000
  N   N38       1.0  0.83921  0.62725  0.54367  1.0000
  H   H148      1.0  0.85185  0.63692  0.50407  1.0000
  H   H149      1.0  0.84135  0.63020  0.60789  1.0000
  C   C238      1.0  0.84639  0.60383  0.36982  1.0000
  H   H150      1.0  0.85027  0.60273  0.43334  1.0000
  C   C239      1.0  0.49448  0.31540  0.35351  1.0000
  N   N39       1.0  0.49215  0.27991  0.39264  1.0000
  C   C240      1.0  0.49180  0.29899  0.41999  1.0000
  C   C241      1.0  0.48849  0.30049  0.51310  1.0000
  O   O5        1.0  0.49825  0.29257  0.57188  1.0000
  N   N40       1.0  0.47303  0.30576  0.54587  1.0000
  H   H151      1.0  0.46336  0.30878  0.50628  1.0000
  H   H152      1.0  0.47008  0.30486  0.61010  1.0000
  C   C242      1.0  0.49644  0.33658  0.37202  1.0000
  H   H153      1.0  0.49754  0.34148  0.43554  1.0000
  C   C243      1.0  0.78490  0.27314  0.35189  1.0000
  N   N41       1.0  0.82044  0.30627  0.39049  1.0000
  C   C244      1.0  0.80138  0.28682  0.41812  1.0000
  C   C245      1.0  0.79998  0.28194  0.51125  1.0000
  O   O6        1.0  0.80797  0.29958  0.56993  1.0000
  N   N42       1.0  0.79473  0.26117  0.54409  1.0000
  H   H154      1.0  0.79166  0.24851  0.50454  1.0000
  H   H155      1.0  0.79569  0.25907  0.60830  1.0000
  C   C246      1.0  0.76374  0.25392  0.37073  1.0000
  H   H156      1.0  0.75890  0.25009  0.43434  1.0000
