data_image0
_chemical_formula_structural       C4NC4NH4N2C4NC4NH4N2C4NC4NH4N2C2NHCHC2NHCHC2NHCHC2NHCHC2NHCHC2NHCHC2HC2H3N2C2HC2H3N2C2HC2H3N2C2NCH3CHC2NCH3CHC2NCH3CHC2NCH3CHC2NCH3CHC2NCH3CH
_chemical_formula_sum              "C78 N30 H60"
_cell_length_a       31.5691
_cell_length_b       31.5691
_cell_length_c       15.0522
_cell_angle_alpha    90
_cell_angle_beta     90
_cell_angle_gamma    120

_space_group_name_H-M_alt    "P 1"
_space_group_IT_number       1

loop_
  _space_group_symop_operation_xyz
  'x, y, z'

loop_
  _atom_site_type_symbol
  _atom_site_label
  _atom_site_symmetry_multiplicity
  _atom_site_fract_x
  _atom_site_fract_y
  _atom_site_fract_z
  _atom_site_occupancy
  C   C1        1.0  0.97129  0.48530  0.32596  1.0000
  C   C2        1.0  0.86605  0.43349  0.32753  1.0000
  C   C3        1.0  0.89234  0.40818  0.34038  1.0000
  C   C4        1.0  0.94373  0.43464  0.34593  1.0000
  N   N1        1.0  0.81617  0.40931  0.33004  1.0000
  C   C5        1.0  0.02346  0.51103  0.32584  1.0000
  C   C6        1.0  0.05106  0.56169  0.34578  1.0000
  C   C7        1.0  0.10244  0.58813  0.34010  1.0000
  C   C8        1.0  0.12870  0.56278  0.32721  1.0000
  N   N2        1.0  0.17859  0.58692  0.32976  1.0000
  H   H1        1.0  0.19764  0.62055  0.34963  1.0000
  H   H2        1.0  0.79714  0.37567  0.34983  1.0000
  H   H3        1.0  0.96109  0.41560  0.36147  1.0000
  H   H4        1.0  0.03372  0.58074  0.36141  1.0000
  N   N3        1.0  0.12352  0.63750  0.34508  1.0000
  N   N4        1.0  0.87129  0.35881  0.34524  1.0000
  C   C9        1.0  0.51024  0.48507  0.32604  1.0000
  C   C10       1.0  0.56184  0.43142  0.32770  1.0000
  C   C11       1.0  0.58726  0.48304  0.34035  1.0000
  C   C12       1.0  0.56090  0.50807  0.34601  1.0000
  N   N5        1.0  0.58591  0.40561  0.33033  1.0000
  C   C13       1.0  0.48460  0.51160  0.32600  1.0000
  C   C14       1.0  0.43394  0.48861  0.34598  1.0000
  C   C15       1.0  0.40757  0.51362  0.34023  1.0000
  C   C16       1.0  0.43299  0.56523  0.32744  1.0000
  N   N6        1.0  0.40890  0.59103  0.32993  1.0000
  H   H5        1.0  0.37527  0.57649  0.34976  1.0000
  H   H6        1.0  0.61955  0.42017  0.35015  1.0000
  H   H7        1.0  0.58003  0.54448  0.36138  1.0000
  H   H8        1.0  0.41482  0.45220  0.36143  1.0000
  N   N7        1.0  0.35819  0.48537  0.34501  1.0000
  N   N8        1.0  0.63665  0.51129  0.34515  1.0000
  C   C17       1.0  0.51057  0.02441  0.32540  1.0000
  C   C18       1.0  0.56396  0.12965  0.32677  1.0000
  C   C19       1.0  0.51236  0.10335  0.33964  1.0000
  C   C20       1.0  0.48745  0.05197  0.34528  1.0000
  N   N9        1.0  0.58968  0.17954  0.32936  1.0000
  C   C21       1.0  0.48419  0.97223  0.32562  1.0000
  C   C22       1.0  0.50733  0.94473  0.34575  1.0000
  C   C23       1.0  0.48245  0.89334  0.34029  1.0000
  C   C24       1.0  0.43083  0.86699  0.32757  1.0000
  N   N10       1.0  0.40516  0.81711  0.33024  1.0000
  H   H9        1.0  0.41982  0.79810  0.34994  1.0000
  H   H10       1.0  0.57508  0.19858  0.34911  1.0000
  H   H11       1.0  0.45107  0.03460  0.36094  1.0000
  H   H12       1.0  0.54375  0.96213  0.36111  1.0000
  N   N11       1.0  0.51080  0.87232  0.34519  1.0000
  N   N12       1.0  0.48403  0.12439  0.34464  1.0000
  C   C25       1.0  0.27659  0.47359  0.31488  1.0000
  C   C26       1.0  0.24506  0.47259  0.24691  1.0000
  N   N13       1.0  0.20250  0.47103  0.26674  1.0000
  H   H13       1.0  0.25519  0.47653  0.18151  1.0000
  C   C27       1.0  0.32511  0.48772  0.29136  1.0000
  H   H14       1.0  0.33759  0.50410  0.23068  1.0000
  C   C28       1.0  0.52263  0.80253  0.31509  1.0000
  C   C29       1.0  0.52368  0.77201  0.24714  1.0000
  N   N14       1.0  0.52506  0.73092  0.26702  1.0000
  H   H15       1.0  0.51984  0.77826  0.18173  1.0000
  C   C30       1.0  0.50862  0.83700  0.29145  1.0000
  H   H16       1.0  0.49229  0.83310  0.23072  1.0000
  C   C31       1.0  0.19327  0.71912  0.31511  1.0000
  C   C32       1.0  0.22383  0.75070  0.24718  1.0000
  N   N15       1.0  0.26496  0.79312  0.26709  1.0000
  H   H17       1.0  0.21755  0.74065  0.18177  1.0000
  C   C33       1.0  0.15888  0.67065  0.29141  1.0000
  H   H18       1.0  0.16276  0.65824  0.23064  1.0000
  C   C34       1.0  0.71824  0.52309  0.31515  1.0000
  C   C35       1.0  0.74975  0.52396  0.24724  1.0000
  N   N16       1.0  0.79219  0.52529  0.26718  1.0000
  H   H19       1.0  0.73959  0.51988  0.18185  1.0000
  C   C36       1.0  0.66973  0.50893  0.29154  1.0000
  H   H20       1.0  0.65726  0.49249  0.23089  1.0000
  C   C37       1.0  0.47210  0.19415  0.31500  1.0000
  C   C38       1.0  0.47111  0.22479  0.24722  1.0000
  N   N17       1.0  0.46979  0.26589  0.26733  1.0000
  H   H21       1.0  0.47508  0.21872  0.18178  1.0000
  C   C39       1.0  0.48623  0.15981  0.29113  1.0000
  H   H22       1.0  0.50259  0.16379  0.23040  1.0000
  C   C40       1.0  0.80156  0.27723  0.31500  1.0000
  C   C41       1.0  0.77111  0.24569  0.24694  1.0000
  N   N18       1.0  0.72990  0.20332  0.26675  1.0000
  H   H23       1.0  0.77736  0.25581  0.18155  1.0000
  C   C42       1.0  0.83602  0.32571  0.29140  1.0000
  H   H24       1.0  0.83219  0.33817  0.23065  1.0000
  C   C43       1.0  0.94439  0.50912  0.30633  1.0000
  C   C44       1.0  0.89309  0.48491  0.31300  1.0000
  H   H25       1.0  0.96215  0.54548  0.29044  1.0000
  C   C45       1.0  0.10163  0.51138  0.31258  1.0000
  C   C46       1.0  0.05034  0.48720  0.30597  1.0000
  H   H26       1.0  0.03255  0.45083  0.29021  1.0000
  H   H27       1.0  0.19717  0.57109  0.31463  1.0000
  H   H28       1.0  0.79755  0.42511  0.31488  1.0000
  N   N19       1.0  0.12243  0.48285  0.30854  1.0000
  N   N20       1.0  0.87225  0.51340  0.30894  1.0000
  C   C47       1.0  0.48633  0.43434  0.30637  1.0000
  C   C48       1.0  0.51042  0.40713  0.31320  1.0000
  H   H29       1.0  0.44996  0.41579  0.29062  1.0000
  C   C49       1.0  0.48441  0.58952  0.31298  1.0000
  C   C50       1.0  0.50850  0.56231  0.30623  1.0000
  H   H30       1.0  0.54487  0.58086  0.29047  1.0000
  H   H31       1.0  0.42475  0.62544  0.31472  1.0000
  H   H32       1.0  0.57004  0.37119  0.31528  1.0000
  N   N21       1.0  0.51300  0.63883  0.30896  1.0000
  N   N22       1.0  0.48181  0.35782  0.30931  1.0000
  C   C51       1.0  0.56126  0.05132  0.30552  1.0000
  C   C52       1.0  0.58835  0.10262  0.31216  1.0000
  H   H33       1.0  0.57989  0.03357  0.28982  1.0000
  C   C53       1.0  0.40640  0.89398  0.31293  1.0000
  C   C54       1.0  0.43346  0.94526  0.30603  1.0000
  H   H34       1.0  0.41483  0.96299  0.29010  1.0000
  H   H35       1.0  0.37079  0.79845  0.31484  1.0000
  H   H36       1.0  0.62406  0.19815  0.31395  1.0000
  N   N23       1.0  0.35707  0.87315  0.30908  1.0000
  N   N24       1.0  0.63767  0.12341  0.30837  1.0000
  C   C55       1.0  0.25871  0.46754  0.40362  1.0000
  C   C56       1.0  0.18796  0.46935  0.35193  1.0000
  N   N25       1.0  0.21632  0.46783  0.41808  1.0000
  C   C57       1.0  0.28582  0.46786  0.48415  1.0000
  H   H37       1.0  0.29407  0.43822  0.48055  1.0000
  H   H38       1.0  0.26450  0.46265  0.54446  1.0000
  H   H39       1.0  0.31979  0.50278  0.48989  1.0000
  C   C58       1.0  0.15115  0.48005  0.37225  1.0000
  H   H40       1.0  0.15081  0.49278  0.43476  1.0000
  C   C59       1.0  0.52847  0.79058  0.40389  1.0000
  C   C60       1.0  0.52656  0.71798  0.35221  1.0000
  N   N26       1.0  0.52807  0.74785  0.41835  1.0000
  C   C61       1.0  0.52827  0.81748  0.48435  1.0000
  H   H41       1.0  0.55800  0.85532  0.48071  1.0000
  H   H42       1.0  0.53339  0.80133  0.54470  1.0000
  H   H43       1.0  0.49341  0.81666  0.49009  1.0000
  C   C62       1.0  0.51563  0.67038  0.37244  1.0000
  H   H44       1.0  0.50292  0.65739  0.43500  1.0000
  C   C63       1.0  0.20534  0.73682  0.40393  1.0000
  C   C64       1.0  0.27797  0.80752  0.35229  1.0000
  N   N27       1.0  0.24811  0.77911  0.41840  1.0000
  C   C65       1.0  0.17849  0.70968  0.48439  1.0000
  H   H45       1.0  0.14066  0.70161  0.48090  1.0000
  H   H46       1.0  0.19470  0.73089  0.54477  1.0000
  H   H47       1.0  0.17926  0.67561  0.48993  1.0000
  C   C66       1.0  0.32558  0.84411  0.37252  1.0000
  H   H48       1.0  0.33864  0.84442  0.43503  1.0000
  C   C67       1.0  0.73606  0.52900  0.40393  1.0000
  C   C68       1.0  0.80671  0.52695  0.35238  1.0000
  N   N28       1.0  0.77839  0.52860  0.41844  1.0000
  C   C69       1.0  0.70901  0.52892  0.48437  1.0000
  H   H49       1.0  0.70091  0.55866  0.48057  1.0000
  H   H50       1.0  0.73030  0.53411  0.54471  1.0000
  H   H51       1.0  0.67495  0.49408  0.49021  1.0000
  C   C70       1.0  0.84341  0.51607  0.37253  1.0000
  H   H52       1.0  0.84384  0.50345  0.43510  1.0000
  C   C71       1.0  0.46633  0.20604  0.40387  1.0000
  C   C72       1.0  0.46827  0.27874  0.35260  1.0000
  N   N29       1.0  0.46673  0.24876  0.41855  1.0000
  C   C73       1.0  0.46655  0.17907  0.48419  1.0000
  H   H53       1.0  0.43682  0.14123  0.48046  1.0000
  H   H54       1.0  0.46145  0.19515  0.54464  1.0000
  H   H55       1.0  0.50141  0.17987  0.48979  1.0000
  C   C74       1.0  0.47908  0.32629  0.37293  1.0000
  H   H56       1.0  0.49197  0.33932  0.43537  1.0000
  C   C75       1.0  0.78950  0.25946  0.40377  1.0000
  C   C76       1.0  0.71678  0.18888  0.35191  1.0000
  N   N30       1.0  0.74665  0.21722  0.41808  1.0000
  C   C77       1.0  0.81620  0.28656  0.48436  1.0000
  H   H57       1.0  0.85406  0.29471  0.48105  1.0000
  H   H58       1.0  0.79993  0.26529  0.54466  1.0000
  H   H59       1.0  0.81534  0.32059  0.48989  1.0000
  C   C78       1.0  0.66912  0.15234  0.37194  1.0000
  H   H60       1.0  0.65603  0.15200  0.43444  1.0000
