data_image0
_chemical_formula_structural       C5NH3C5NH3C5NH3C5NH3C5NH3C5NH3NC5H3NC5H3NC5H3NC5H3NC5H3NC5H3NC5H3NC5H3NC5H3NC5H3NC5H3NC5H3CNCNCNCNCNCNCNCNCNCNCNCNCNCNCNCNCNCNCNCNCNCNCNCNCNCNCNCNCNCNCNCNCNCNCNCN2C5H3NC5H3NC5H3NC5H3NC5H3NC5H3C5NH3C5NH3C5NH3C5NH3C5NH3C5NH3C5NH3C5NH3C5NH3C5NH3C5NH3C5NH3
_chemical_formula_sum              "C216 N72 H108"
_cell_length_a       56.1145
_cell_length_b       56.1146
_cell_length_c       14.9092
_cell_angle_alpha    90
_cell_angle_beta     90
_cell_angle_gamma    120

_space_group_name_H-M_alt    "P 1"
_space_group_IT_number       1

loop_
  _space_group_symop_operation_xyz
  'x, y, z'

loop_
  _atom_site_type_symbol
  _atom_site_label
  _atom_site_symmetry_multiplicity
  _atom_site_fract_x
  _atom_site_fract_y
  _atom_site_fract_z
  _atom_site_occupancy
  C   C1        1.0  0.16205  0.31960  0.33811  1.0000
  C   C2        1.0  0.14829  0.33491  0.33127  1.0000
  C   C3        1.0  0.16292  0.36388  0.33001  1.0000
  C   C4        1.0  0.19198  0.37837  0.33584  1.0000
  C   C5        1.0  0.20868  0.45097  0.32967  1.0000
  N   N1        1.0  0.19539  0.42306  0.32997  1.0000
  H   H1        1.0  0.19705  0.46027  0.32501  1.0000
  H   H2        1.0  0.12729  0.32514  0.32707  1.0000
  H   H3        1.0  0.15214  0.37408  0.32509  1.0000
  C   C6        1.0  0.68220  0.83817  0.33789  1.0000
  C   C7        1.0  0.66690  0.80910  0.33110  1.0000
  C   C8        1.0  0.63794  0.79477  0.32975  1.0000
  C   C9        1.0  0.62344  0.80932  0.33546  1.0000
  C   C10       1.0  0.55084  0.75339  0.32946  1.0000
  N   N2        1.0  0.57875  0.76802  0.32972  1.0000
  H   H4        1.0  0.54154  0.73246  0.32497  1.0000
  H   H5        1.0  0.67668  0.79788  0.32699  1.0000
  H   H6        1.0  0.62774  0.77377  0.32488  1.0000
  C   C11       1.0  0.16362  0.83979  0.33843  1.0000
  C   C12       1.0  0.19270  0.85356  0.33165  1.0000
  C   C13       1.0  0.20703  0.83893  0.33043  1.0000
  C   C14       1.0  0.19247  0.80987  0.33625  1.0000
  C   C15       1.0  0.24840  0.79321  0.33020  1.0000
  N   N3        1.0  0.23376  0.80648  0.33051  1.0000
  H   H7        1.0  0.26933  0.80485  0.32558  1.0000
  H   H8        1.0  0.20391  0.87455  0.32746  1.0000
  H   H9        1.0  0.22802  0.84971  0.32556  1.0000
  C   C16       1.0  0.84322  0.67877  0.33878  1.0000
  C   C17       1.0  0.85699  0.66347  0.33200  1.0000
  C   C18       1.0  0.84236  0.63451  0.33088  1.0000
  C   C19       1.0  0.81330  0.62001  0.33680  1.0000
  C   C20       1.0  0.79666  0.54742  0.33081  1.0000
  N   N4        1.0  0.80993  0.57533  0.33109  1.0000
  H   H10       1.0  0.80831  0.53814  0.32610  1.0000
  H   H11       1.0  0.87798  0.67325  0.32773  1.0000
  H   H12       1.0  0.85315  0.62430  0.32600  1.0000
  C   C21       1.0  0.32306  0.16020  0.33817  1.0000
  C   C22       1.0  0.33836  0.18927  0.33134  1.0000
  C   C23       1.0  0.36733  0.20361  0.33010  1.0000
  C   C24       1.0  0.38182  0.18904  0.33594  1.0000
  C   C25       1.0  0.45443  0.24497  0.32990  1.0000
  N   N5        1.0  0.42651  0.23034  0.33015  1.0000
  H   H13       1.0  0.46372  0.26589  0.32528  1.0000
  H   H14       1.0  0.32859  0.20049  0.32713  1.0000
  H   H15       1.0  0.37753  0.22459  0.32517  1.0000
  C   C26       1.0  0.84162  0.15858  0.33841  1.0000
  C   C27       1.0  0.81255  0.14481  0.33178  1.0000
  C   C28       1.0  0.79821  0.15944  0.33059  1.0000
  C   C29       1.0  0.81277  0.18850  0.33629  1.0000
  C   C30       1.0  0.75683  0.20515  0.33051  1.0000
  N   N6        1.0  0.77146  0.19187  0.33076  1.0000
  H   H16       1.0  0.73589  0.19351  0.32604  1.0000
  H   H17       1.0  0.80133  0.12382  0.32768  1.0000
  H   H18       1.0  0.77722  0.14865  0.32582  1.0000
  N   N7        1.0  0.20378  0.23121  0.33746  1.0000
  C   C31       1.0  0.19053  0.24588  0.33705  1.0000
  C   C32       1.0  0.20710  0.18989  0.34599  1.0000
  C   C33       1.0  0.23605  0.20422  0.33573  1.0000
  C   C34       1.0  0.25052  0.18972  0.33528  1.0000
  C   C35       1.0  0.23670  0.16072  0.34468  1.0000
  H   H19       1.0  0.24685  0.22514  0.32849  1.0000
  H   H20       1.0  0.27142  0.20075  0.32746  1.0000
  H   H21       1.0  0.20209  0.26672  0.32914  1.0000
  N   N8        1.0  0.77061  0.96831  0.33746  1.0000
  C   C36       1.0  0.75593  0.94039  0.33702  1.0000
  C   C37       1.0  0.81193  0.01295  0.34603  1.0000
  C   C38       1.0  0.79761  0.02757  0.33582  1.0000
  C   C39       1.0  0.81211  0.05654  0.33538  1.0000
  C   C40       1.0  0.84111  0.07172  0.34476  1.0000
  H   H22       1.0  0.77668  0.01745  0.32861  1.0000
  H   H23       1.0  0.80109  0.06642  0.32760  1.0000
  H   H24       1.0  0.73509  0.93111  0.32911  1.0000
  N   N9        1.0  0.03349  0.79806  0.33763  1.0000
  C   C41       1.0  0.06141  0.81130  0.33723  1.0000
  C   C42       1.0  0.98885  0.79474  0.34615  1.0000
  C   C43       1.0  0.97423  0.76579  0.33594  1.0000
  C   C44       1.0  0.94526  0.75131  0.33550  1.0000
  C   C45       1.0  0.93009  0.76514  0.34490  1.0000
  H   H25       1.0  0.98436  0.75499  0.32872  1.0000
  H   H26       1.0  0.93539  0.73041  0.32774  1.0000
  H   H27       1.0  0.07069  0.79974  0.32933  1.0000
  N   N10       1.0  0.80148  0.76717  0.33765  1.0000
  C   C46       1.0  0.81472  0.75249  0.33731  1.0000
  C   C47       1.0  0.79816  0.80849  0.34607  1.0000
  C   C48       1.0  0.76921  0.79416  0.33577  1.0000
  C   C49       1.0  0.75474  0.80866  0.33526  1.0000
  C   C50       1.0  0.76856  0.83766  0.34467  1.0000
  H   H28       1.0  0.75841  0.77324  0.32854  1.0000
  H   H29       1.0  0.73384  0.79763  0.32742  1.0000
  H   H30       1.0  0.80316  0.73165  0.32942  1.0000
  N   N11       1.0  0.23465  0.03007  0.33751  1.0000
  C   C51       1.0  0.24933  0.05799  0.33709  1.0000
  C   C52       1.0  0.19332  0.98543  0.34606  1.0000
  C   C53       1.0  0.20765  0.97081  0.33581  1.0000
  C   C54       1.0  0.19314  0.94184  0.33537  1.0000
  C   C55       1.0  0.16414  0.92666  0.34479  1.0000
  H   H31       1.0  0.22857  0.98093  0.32857  1.0000
  H   H32       1.0  0.20417  0.93196  0.32757  1.0000
  H   H33       1.0  0.27017  0.06727  0.32919  1.0000
  N   N12       1.0  0.97176  0.20033  0.33749  1.0000
  C   C56       1.0  0.94384  0.18708  0.33711  1.0000
  C   C57       1.0  0.01640  0.20365  0.34599  1.0000
  C   C58       1.0  0.03102  0.23259  0.33572  1.0000
  C   C59       1.0  0.05999  0.24707  0.33525  1.0000
  C   C60       1.0  0.07517  0.23324  0.34466  1.0000
  H   H34       1.0  0.02089  0.24339  0.32849  1.0000
  H   H35       1.0  0.06987  0.26797  0.32743  1.0000
  H   H36       1.0  0.93456  0.19864  0.32923  1.0000
  N   N13       1.0  0.23424  0.63949  0.25903  1.0000
  C   C61       1.0  0.23787  0.66524  0.25510  1.0000
  C   C62       1.0  0.23006  0.59947  0.33323  1.0000
  C   C63       1.0  0.23014  0.58647  0.25188  1.0000
  C   C64       1.0  0.23506  0.56421  0.25296  1.0000
  C   C65       1.0  0.23915  0.55416  0.33487  1.0000
  H   H37       1.0  0.22839  0.59402  0.19133  1.0000
  H   H38       1.0  0.23732  0.55653  0.19325  1.0000
  H   H39       1.0  0.24280  0.67525  0.19476  1.0000
  N   N14       1.0  0.36270  0.59008  0.26076  1.0000
  C   C66       1.0  0.33695  0.56795  0.25661  1.0000
  C   C67       1.0  0.40243  0.62625  0.33526  1.0000
  C   C68       1.0  0.41578  0.63906  0.25398  1.0000
  C   C69       1.0  0.43804  0.66624  0.25476  1.0000
  C   C70       1.0  0.44764  0.68066  0.33640  1.0000
  H   H40       1.0  0.40843  0.62956  0.19354  1.0000
  H   H41       1.0  0.44589  0.67602  0.19495  1.0000
  H   H42       1.0  0.32714  0.56263  0.19595  1.0000
  N   N15       1.0  0.41180  0.76828  0.26011  1.0000
  C   C71       1.0  0.43392  0.76465  0.25637  1.0000
  C   C72       1.0  0.37555  0.77188  0.33403  1.0000
  C   C73       1.0  0.36254  0.77179  0.25247  1.0000
  C   C74       1.0  0.33536  0.76688  0.25313  1.0000
  C   C75       1.0  0.32115  0.76280  0.33489  1.0000
  H   H43       1.0  0.37185  0.77340  0.19203  1.0000
  H   H44       1.0  0.32545  0.76448  0.19329  1.0000
  H   H45       1.0  0.43939  0.76027  0.19581  1.0000
  N   N16       1.0  0.77086  0.35874  0.25856  1.0000
  C   C76       1.0  0.76714  0.33296  0.25493  1.0000
  C   C77       1.0  0.77536  0.39895  0.33229  1.0000
  C   C78       1.0  0.77475  0.41162  0.25076  1.0000
  C   C79       1.0  0.76983  0.43387  0.25179  1.0000
  C   C80       1.0  0.76630  0.44427  0.33381  1.0000
  H   H46       1.0  0.77599  0.40374  0.19021  1.0000
  H   H47       1.0  0.76708  0.44121  0.19211  1.0000
  H   H48       1.0  0.76209  0.32284  0.19478  1.0000
  N   N17       1.0  0.64302  0.40778  0.25904  1.0000
  C   C81       1.0  0.66879  0.42986  0.25504  1.0000
  C   C82       1.0  0.60293  0.37209  0.33333  1.0000
  C   C83       1.0  0.58991  0.35897  0.25203  1.0000
  C   C84       1.0  0.56765  0.33180  0.25323  1.0000
  C   C85       1.0  0.55761  0.31769  0.33519  1.0000
  H   H49       1.0  0.59746  0.36826  0.19144  1.0000
  H   H50       1.0  0.55996  0.32184  0.19356  1.0000
  H   H51       1.0  0.67885  0.43484  0.19479  1.0000
  N   N18       1.0  0.59350  0.23010  0.26046  1.0000
  C   C86       1.0  0.57138  0.23373  0.25655  1.0000
  C   C87       1.0  0.62969  0.22645  0.33454  1.0000
  C   C88       1.0  0.64259  0.22625  0.25307  1.0000
  C   C89       1.0  0.66977  0.23117  0.25374  1.0000
  C   C90       1.0  0.68407  0.23558  0.33543  1.0000
  H   H52       1.0  0.63318  0.22440  0.19265  1.0000
  H   H53       1.0  0.67961  0.23336  0.19390  1.0000
  H   H54       1.0  0.56604  0.23826  0.19599  1.0000
  C   C91       1.0  0.14708  0.24744  0.34505  1.0000
  N   N19       1.0  0.16060  0.27544  0.34225  1.0000
  C   C92       1.0  0.14736  0.29020  0.34031  1.0000
  N   N20       1.0  0.11936  0.27567  0.34112  1.0000
  C   C93       1.0  0.10457  0.24771  0.34397  1.0000
  N   N21       1.0  0.11908  0.23422  0.34597  1.0000
  C   C94       1.0  0.75436  0.89537  0.34499  1.0000
  N   N22       1.0  0.72636  0.88089  0.34212  1.0000
  C   C95       1.0  0.71161  0.85289  0.34016  1.0000
  N   N23       1.0  0.72614  0.83943  0.34102  1.0000
  C   C96       1.0  0.75410  0.85260  0.34394  1.0000
  N   N24       1.0  0.76759  0.88059  0.34595  1.0000
  C   C97       1.0  0.10643  0.85476  0.34524  1.0000
  N   N25       1.0  0.12091  0.84123  0.34248  1.0000
  C   C98       1.0  0.14891  0.85448  0.34056  1.0000
  N   N26       1.0  0.16237  0.88247  0.34133  1.0000
  C   C99       1.0  0.14920  0.89726  0.34414  1.0000
  N   N27       1.0  0.12121  0.88276  0.34611  1.0000
  C   C100      1.0  0.85818  0.75093  0.34536  1.0000
  N   N28       1.0  0.84465  0.72293  0.34269  1.0000
  C   C101      1.0  0.85790  0.70818  0.34082  1.0000
  N   N29       1.0  0.88589  0.72271  0.34155  1.0000
  C   C102      1.0  0.90068  0.75067  0.34428  1.0000
  N   N30       1.0  0.88618  0.76416  0.34621  1.0000
  C   C103      1.0  0.25089  0.10301  0.34510  1.0000
  N   N31       1.0  0.27890  0.11749  0.34230  1.0000
  C   C104      1.0  0.29365  0.14549  0.34035  1.0000
  N   N32       1.0  0.27913  0.15895  0.34116  1.0000
  C   C105      1.0  0.25116  0.14578  0.34401  1.0000
  N   N33       1.0  0.23768  0.11779  0.34600  1.0000
  C   C106      1.0  0.89882  0.14363  0.34516  1.0000
  N   N34       1.0  0.88434  0.15715  0.34242  1.0000
  C   C107      1.0  0.85634  0.14390  0.34053  1.0000
  N   N35       1.0  0.84288  0.11591  0.34132  1.0000
  C   C108      1.0  0.85605  0.10112  0.34411  1.0000
  N   N36       1.0  0.88405  0.11563  0.34605  1.0000
  C   C109      1.0  0.29425  0.53865  0.33607  1.0000
  N   N37       1.0  0.28035  0.51071  0.33625  1.0000
  C   C110      1.0  0.25223  0.49597  0.33547  1.0000
  N   N38       1.0  0.23843  0.51031  0.33479  1.0000
  C   C111      1.0  0.25208  0.53826  0.33515  1.0000
  N   N39       1.0  0.27989  0.55209  0.33566  1.0000
  C   C112      1.0  0.46316  0.75127  0.33642  1.0000
  N   N40       1.0  0.49110  0.76532  0.33607  1.0000
  C   C113      1.0  0.50583  0.75193  0.33538  1.0000
  N   N41       1.0  0.49150  0.72380  0.33521  1.0000
  C   C114      1.0  0.46355  0.70950  0.33610  1.0000
  N   N42       1.0  0.44972  0.72347  0.33654  1.0000
  C   C115      1.0  0.25056  0.70766  0.33510  1.0000
  N   N43       1.0  0.23650  0.72155  0.33582  1.0000
  C   C116      1.0  0.24987  0.74967  0.33557  1.0000
  N   N44       1.0  0.27800  0.76348  0.33497  1.0000
  C   C117      1.0  0.29232  0.74985  0.33479  1.0000
  N   N45       1.0  0.27836  0.72204  0.33474  1.0000
  C   C118      1.0  0.71114  0.45969  0.33516  1.0000
  N   N46       1.0  0.72501  0.48764  0.33634  1.0000
  C   C119      1.0  0.75313  0.50240  0.33611  1.0000
  N   N47       1.0  0.76696  0.48809  0.33510  1.0000
  C   C120      1.0  0.75334  0.46015  0.33449  1.0000
  N   N48       1.0  0.72554  0.44629  0.33433  1.0000
  C   C121      1.0  0.54211  0.24709  0.33639  1.0000
  N   N49       1.0  0.51417  0.23304  0.33650  1.0000
  C   C122      1.0  0.49943  0.24643  0.33576  1.0000
  N   N50       1.0  0.51377  0.27456  0.33514  1.0000
  C   C123      1.0  0.54171  0.28886  0.33558  1.0000
  N   N51       1.0  0.55555  0.27489  0.33603  1.0000
  C   C124      1.0  0.75468  0.29070  0.33543  1.0000
  N   N52       1.0  0.76873  0.27681  0.33603  1.0000
  C   C125      1.0  0.75535  0.24869  0.33586  1.0000
  N   N53       1.0  0.72722  0.23488  0.33540  1.0000
  C   C126      1.0  0.71291  0.24852  0.33538  1.0000
  N   N54       1.0  0.72687  0.27632  0.33521  1.0000
  N   N55       1.0  0.20452  0.36299  0.34219  1.0000
  C   C127      1.0  0.19111  0.33506  0.34332  1.0000
  C   C128      1.0  0.20801  0.40776  0.33566  1.0000
  C   C129      1.0  0.23707  0.42233  0.34161  1.0000
  C   C130      1.0  0.25160  0.45132  0.34139  1.0000
  C   C131      1.0  0.23773  0.46655  0.33547  1.0000
  H   H55       1.0  0.24790  0.41217  0.34619  1.0000
  H   H56       1.0  0.27258  0.46116  0.34599  1.0000
  H   H57       1.0  0.20263  0.32566  0.34867  1.0000
  N   N56       1.0  0.63881  0.83724  0.34178  1.0000
  C   C132      1.0  0.66674  0.85177  0.34297  1.0000
  C   C133      1.0  0.59405  0.79596  0.33525  1.0000
  C   C134      1.0  0.57947  0.81043  0.34102  1.0000
  C   C135      1.0  0.55049  0.79597  0.34084  1.0000
  C   C136      1.0  0.53526  0.76687  0.33513  1.0000
  H   H58       1.0  0.58963  0.83143  0.34550  1.0000
  H   H59       1.0  0.54064  0.80711  0.34539  1.0000
  H   H60       1.0  0.67614  0.87270  0.34829  1.0000
  N   N57       1.0  0.16455  0.79732  0.34255  1.0000
  C   C137      1.0  0.15002  0.81072  0.34363  1.0000
  C   C138      1.0  0.20583  0.79385  0.33611  1.0000
  C   C139      1.0  0.19137  0.76479  0.34192  1.0000
  C   C140      1.0  0.20583  0.75027  0.34165  1.0000
  C   C141      1.0  0.23492  0.76415  0.33583  1.0000
  H   H61       1.0  0.17037  0.75394  0.34641  1.0000
  H   H62       1.0  0.19469  0.72928  0.34612  1.0000
  H   H63       1.0  0.12910  0.79920  0.34892  1.0000
  N   N58       1.0  0.80075  0.63538  0.34308  1.0000
  C   C142      1.0  0.81415  0.66331  0.34408  1.0000
  C   C143      1.0  0.79729  0.59062  0.33674  1.0000
  C   C144      1.0  0.76823  0.57602  0.34269  1.0000
  C   C145      1.0  0.75372  0.54704  0.34245  1.0000
  C   C146      1.0  0.76761  0.53183  0.33654  1.0000
  H   H64       1.0  0.75739  0.58617  0.34721  1.0000
  H   H65       1.0  0.73273  0.53717  0.34695  1.0000
  H   H66       1.0  0.80263  0.67270  0.34937  1.0000
  N   N59       1.0  0.36645  0.16112  0.34228  1.0000
  C   C147      1.0  0.33852  0.14660  0.34338  1.0000
  C   C148      1.0  0.41121  0.20241  0.33580  1.0000
  C   C149      1.0  0.42580  0.18793  0.34173  1.0000
  C   C150      1.0  0.45478  0.20239  0.34157  1.0000
  C   C151      1.0  0.47000  0.23149  0.33570  1.0000
  H   H67       1.0  0.41563  0.16694  0.34628  1.0000
  H   H68       1.0  0.46462  0.19125  0.34617  1.0000
  H   H69       1.0  0.32912  0.12568  0.34874  1.0000
  N   N60       1.0  0.84069  0.20105  0.34245  1.0000
  C   C152      1.0  0.85522  0.18765  0.34350  1.0000
  C   C153      1.0  0.79940  0.20451  0.33617  1.0000
  C   C154      1.0  0.81387  0.23358  0.34186  1.0000
  C   C155      1.0  0.79940  0.24809  0.34164  1.0000
  C   C156      1.0  0.77030  0.23421  0.33601  1.0000
  H   H70       1.0  0.83487  0.24442  0.34620  1.0000
  H   H71       1.0  0.81054  0.26909  0.34602  1.0000
  H   H72       1.0  0.87615  0.19918  0.34870  1.0000
  C   C157      1.0  0.16157  0.23253  0.34635  1.0000
  C   C158      1.0  0.14775  0.20354  0.35637  1.0000
  C   C159      1.0  0.16223  0.18905  0.35683  1.0000
  C   C160      1.0  0.19119  0.20337  0.34684  1.0000
  C   C161      1.0  0.20776  0.14736  0.35465  1.0000
  N   N61       1.0  0.19451  0.16204  0.35497  1.0000
  H   H73       1.0  0.19620  0.12650  0.36206  1.0000
  H   H74       1.0  0.12683  0.19252  0.36368  1.0000
  H   H75       1.0  0.15143  0.16813  0.36421  1.0000
  C   C162      1.0  0.76928  0.92478  0.34630  1.0000
  C   C163      1.0  0.79827  0.93994  0.35636  1.0000
  C   C164      1.0  0.81276  0.96891  0.35683  1.0000
  C   C165      1.0  0.79845  0.98355  0.34685  1.0000
  C   C166      1.0  0.85447  0.05613  0.35468  1.0000
  N   N62       1.0  0.83979  0.02821  0.35498  1.0000
  H   H76       1.0  0.87533  0.06543  0.36206  1.0000
  H   H77       1.0  0.80929  0.93004  0.36366  1.0000
  H   H78       1.0  0.83368  0.97902  0.36423  1.0000
  C   C167      1.0  0.07702  0.84026  0.34651  1.0000
  C   C168      1.0  0.06186  0.85409  0.35652  1.0000
  C   C169      1.0  0.03288  0.83961  0.35697  1.0000
  C   C170      1.0  0.01825  0.81065  0.34699  1.0000
  C   C171      1.0  0.94567  0.79408  0.35481  1.0000
  N   N63       1.0  0.97359  0.80732  0.35511  1.0000
  H   H79       1.0  0.93636  0.80564  0.36221  1.0000
  H   H80       1.0  0.07176  0.87501  0.36382  1.0000
  H   H81       1.0  0.02277  0.85041  0.36434  1.0000
  C   C172      1.0  0.84368  0.76585  0.34660  1.0000
  C   C173      1.0  0.85751  0.79484  0.35656  1.0000
  C   C174      1.0  0.84302  0.80933  0.35697  1.0000
  C   C175      1.0  0.81407  0.79501  0.34698  1.0000
  C   C176      1.0  0.79750  0.85102  0.35467  1.0000
  N   N64       1.0  0.81074  0.83634  0.35503  1.0000
  H   H82       1.0  0.80906  0.87188  0.36208  1.0000
  H   H83       1.0  0.87843  0.80586  0.36387  1.0000
  H   H84       1.0  0.85383  0.83025  0.36430  1.0000
  C   C177      1.0  0.23598  0.07360  0.34640  1.0000
  C   C178      1.0  0.20699  0.05844  0.35642  1.0000
  C   C179      1.0  0.19249  0.02947  0.35689  1.0000
  C   C180      1.0  0.20681  0.01483  0.34690  1.0000
  C   C181      1.0  0.15079  0.94225  0.35473  1.0000
  N   N65       1.0  0.16547  0.97017  0.35503  1.0000
  H   H85       1.0  0.12993  0.93295  0.36215  1.0000
  H   H86       1.0  0.19597  0.06834  0.36373  1.0000
  H   H87       1.0  0.17158  0.01936  0.36427  1.0000
  C   C182      1.0  0.92823  0.15812  0.34640  1.0000
  C   C183      1.0  0.94339  0.14430  0.35641  1.0000
  C   C184      1.0  0.97237  0.15878  0.35684  1.0000
  C   C185      1.0  0.98701  0.18774  0.34685  1.0000
  C   C186      1.0  0.05959  0.20430  0.35463  1.0000
  N   N66       1.0  0.03167  0.19106  0.35496  1.0000
  H   H88       1.0  0.06889  0.19275  0.36204  1.0000
  H   H89       1.0  0.93350  0.12338  0.36373  1.0000
  H   H90       1.0  0.98249  0.14798  0.36421  1.0000
  C   C187      1.0  0.23806  0.67886  0.33484  1.0000
  C   C188      1.0  0.23353  0.66449  0.41646  1.0000
  C   C189      1.0  0.22908  0.63747  0.41731  1.0000
  C   C190      1.0  0.22983  0.62478  0.33605  1.0000
  C   C191      1.0  0.23816  0.56717  0.41460  1.0000
  N   N67       1.0  0.23410  0.58902  0.41054  1.0000
  H   H91       1.0  0.24267  0.56188  0.47530  1.0000
  H   H92       1.0  0.23519  0.67417  0.47628  1.0000
  H   H93       1.0  0.22698  0.62799  0.47772  1.0000
  C   C192      1.0  0.32306  0.55493  0.33642  1.0000
  C   C193      1.0  0.33712  0.56505  0.41839  1.0000
  C   C194      1.0  0.36415  0.58758  0.41944  1.0000
  C   C195      1.0  0.37714  0.60070  0.33808  1.0000
  C   C196      1.0  0.43436  0.66695  0.41618  1.0000
  N   N68       1.0  0.41256  0.64101  0.41229  1.0000
  H   H94       1.0  0.43938  0.67694  0.47656  1.0000
  H   H95       1.0  0.32719  0.55737  0.47809  1.0000
  H   H96       1.0  0.37337  0.59528  0.47999  1.0000
  C   C197      1.0  0.44688  0.76379  0.33636  1.0000
  C   C198      1.0  0.43660  0.76767  0.41812  1.0000
  C   C199      1.0  0.41407  0.77217  0.41879  1.0000
  C   C200      1.0  0.40106  0.77206  0.33721  1.0000
  C   C201      1.0  0.33507  0.76388  0.41487  1.0000
  N   N69       1.0  0.36097  0.76790  0.41113  1.0000
  H   H97       1.0  0.32520  0.75936  0.47542  1.0000
  H   H98       1.0  0.44424  0.76547  0.47797  1.0000
  H   H99       1.0  0.40632  0.77371  0.47923  1.0000
  C   C202      1.0  0.76718  0.31951  0.33478  1.0000
  C   C203      1.0  0.77201  0.33404  0.41617  1.0000
  C   C204      1.0  0.77652  0.36108  0.41667  1.0000
  C   C205      1.0  0.77553  0.37362  0.33533  1.0000
  C   C206      1.0  0.76787  0.43168  0.41368  1.0000
  N   N70       1.0  0.77187  0.40978  0.40968  1.0000
  H   H100      1.0  0.76378  0.43724  0.47457  1.0000
  H   H101      1.0  0.77048  0.32445  0.47608  1.0000
  H   H102      1.0  0.77878  0.37068  0.47695  1.0000
  C   C207      1.0  0.68233  0.44337  0.33475  1.0000
  C   C208      1.0  0.66792  0.43373  0.41637  1.0000
  C   C209      1.0  0.64089  0.41119  0.41721  1.0000
  C   C210      1.0  0.62825  0.39762  0.33603  1.0000
  C   C211      1.0  0.57064  0.33172  0.41486  1.0000
  N   N71       1.0  0.59249  0.35763  0.41071  1.0000
  H   H103      1.0  0.56536  0.32196  0.47561  1.0000
  H   H104      1.0  0.67756  0.44185  0.47615  1.0000
  H   H105      1.0  0.63134  0.40390  0.47761  1.0000
  C   C212      1.0  0.55840  0.23457  0.33648  1.0000
  C   C213      1.0  0.56855  0.23059  0.41831  1.0000
  C   C214      1.0  0.59106  0.22606  0.41910  1.0000
  C   C215      1.0  0.60415  0.22623  0.33762  1.0000
  C   C216      1.0  0.67027  0.23481  0.41537  1.0000
  N   N72       1.0  0.64435  0.23073  0.41161  1.0000
  H   H106      1.0  0.68019  0.23950  0.47587  1.0000
  H   H107      1.0  0.56087  0.23276  0.47811  1.0000
  H   H108      1.0  0.59878  0.22448  0.47957  1.0000
