data_image0
_chemical_formula_structural       C4NC4NH4N2C4NC4NH4N2C4NC4NH4N2C3H2CHC3H2CHC3H2CHC3H2CHC3H2CHC3H2CHC2HC2H3N2C2HC2H3N2C2HC2H3N2C3NOCHCHC3NOCHCHC3NOCHCHC3NOCHCHC3NOCHCHC3NOCHCH
_chemical_formula_sum              "C90 N24 H54 O6"
_cell_length_a       31.695
_cell_length_b       31.6949
_cell_length_c       15.0317
_cell_angle_alpha    90
_cell_angle_beta     90
_cell_angle_gamma    120

_space_group_name_H-M_alt    "P 1"
_space_group_IT_number       1

loop_
  _space_group_symop_operation_xyz
  'x, y, z'

loop_
  _atom_site_type_symbol
  _atom_site_label
  _atom_site_symmetry_multiplicity
  _atom_site_fract_x
  _atom_site_fract_y
  _atom_site_fract_z
  _atom_site_occupancy
  C   C1        1.0  0.97242  0.48537  0.32702  1.0000
  C   C2        1.0  0.86752  0.43079  0.32878  1.0000
  C   C3        1.0  0.89520  0.40709  0.34117  1.0000
  C   C4        1.0  0.94632  0.43479  0.34671  1.0000
  N   N1        1.0  0.81782  0.40493  0.32909  1.0000
  C   C5        1.0  0.02443  0.51253  0.32698  1.0000
  C   C6        1.0  0.05052  0.56311  0.34668  1.0000
  C   C7        1.0  0.10165  0.59082  0.34109  1.0000
  C   C8        1.0  0.12932  0.56712  0.32869  1.0000
  N   N2        1.0  0.17902  0.59298  0.32901  1.0000
  H   H1        1.0  0.19716  0.62713  0.34526  1.0000
  H   H2        1.0  0.79968  0.37078  0.34532  1.0000
  H   H3        1.0  0.96454  0.41674  0.36213  1.0000
  H   H4        1.0  0.03231  0.58115  0.36216  1.0000
  N   N3        1.0  0.12175  0.63984  0.34696  1.0000
  N   N4        1.0  0.87509  0.35806  0.34700  1.0000
  C   C9        1.0  0.51198  0.48651  0.32701  1.0000
  C   C10       1.0  0.56654  0.43618  0.32872  1.0000
  C   C11       1.0  0.59025  0.48756  0.34108  1.0000
  C   C12       1.0  0.56255  0.51098  0.34676  1.0000
  N   N5        1.0  0.59239  0.41233  0.32903  1.0000
  C   C13       1.0  0.48483  0.51137  0.32702  1.0000
  C   C14       1.0  0.43426  0.48690  0.34681  1.0000
  C   C15       1.0  0.40655  0.51031  0.34113  1.0000
  C   C16       1.0  0.43025  0.56168  0.32875  1.0000
  N   N6        1.0  0.40440  0.58553  0.32903  1.0000
  H   H5        1.0  0.37024  0.56951  0.34523  1.0000
  H   H6        1.0  0.62654  0.42833  0.34527  1.0000
  H   H7        1.0  0.58062  0.54726  0.36211  1.0000
  H   H8        1.0  0.41620  0.45062  0.36216  1.0000
  N   N7        1.0  0.35753  0.48138  0.34697  1.0000
  N   N8        1.0  0.63928  0.51648  0.34690  1.0000
  C   C17       1.0  0.51087  0.02496  0.32699  1.0000
  C   C18       1.0  0.56121  0.12985  0.32864  1.0000
  C   C19       1.0  0.50984  0.10220  0.34107  1.0000
  C   C20       1.0  0.48641  0.05107  0.34666  1.0000
  N   N9        1.0  0.58506  0.17955  0.32895  1.0000
  C   C21       1.0  0.48601  0.97295  0.32706  1.0000
  C   C22       1.0  0.51047  0.94685  0.34684  1.0000
  C   C23       1.0  0.48705  0.89573  0.34118  1.0000
  C   C24       1.0  0.43568  0.86806  0.32874  1.0000
  N   N10       1.0  0.41184  0.81836  0.32899  1.0000
  H   H9        1.0  0.42783  0.80021  0.34536  1.0000
  H   H10       1.0  0.56908  0.19770  0.34535  1.0000
  H   H11       1.0  0.45014  0.03286  0.36218  1.0000
  H   H12       1.0  0.54675  0.96506  0.36218  1.0000
  N   N11       1.0  0.51598  0.87563  0.34698  1.0000
  N   N12       1.0  0.48092  0.12231  0.34692  1.0000
  C   C25       1.0  0.27698  0.46826  0.31138  1.0000
  C   C26       1.0  0.24384  0.46455  0.24439  1.0000
  C   C27       1.0  0.20110  0.46575  0.26556  1.0000
  H   H13       1.0  0.18059  0.46713  0.21426  1.0000
  H   H14       1.0  0.25206  0.46409  0.17861  1.0000
  C   C28       1.0  0.32452  0.47976  0.28795  1.0000
  H   H15       1.0  0.33652  0.49282  0.22504  1.0000
  C   C29       1.0  0.52909  0.80819  0.31140  1.0000
  C   C30       1.0  0.53278  0.77876  0.24440  1.0000
  C   C31       1.0  0.53159  0.73482  0.26557  1.0000
  H   H16       1.0  0.53020  0.71292  0.21428  1.0000
  H   H17       1.0  0.53321  0.78742  0.17862  1.0000
  C   C32       1.0  0.51757  0.84421  0.28797  1.0000
  H   H18       1.0  0.50451  0.84318  0.22508  1.0000
  C   C33       1.0  0.18917  0.72040  0.31138  1.0000
  C   C34       1.0  0.21860  0.75353  0.24439  1.0000
  C   C35       1.0  0.26254  0.79627  0.26556  1.0000
  H   H19       1.0  0.28443  0.81679  0.21426  1.0000
  H   H20       1.0  0.20993  0.74531  0.17860  1.0000
  C   C36       1.0  0.15313  0.67285  0.28795  1.0000
  H   H21       1.0  0.15419  0.66086  0.22503  1.0000
  C   C37       1.0  0.71983  0.52959  0.31134  1.0000
  C   C38       1.0  0.75296  0.53329  0.24435  1.0000
  C   C39       1.0  0.79571  0.53210  0.26554  1.0000
  H   H22       1.0  0.81622  0.53072  0.21425  1.0000
  H   H23       1.0  0.74473  0.53371  0.17857  1.0000
  C   C40       1.0  0.67228  0.51806  0.28791  1.0000
  H   H24       1.0  0.66026  0.50500  0.22501  1.0000
  C   C41       1.0  0.46780  0.18974  0.31138  1.0000
  C   C42       1.0  0.46408  0.21917  0.24439  1.0000
  C   C43       1.0  0.46524  0.26308  0.26557  1.0000
  H   H25       1.0  0.46662  0.28498  0.21428  1.0000
  H   H26       1.0  0.46366  0.21051  0.17860  1.0000
  C   C44       1.0  0.47934  0.15373  0.28794  1.0000
  H   H27       1.0  0.49240  0.15477  0.22503  1.0000
  C   C45       1.0  0.80767  0.27751  0.31138  1.0000
  C   C46       1.0  0.77825  0.24438  0.24438  1.0000
  C   C47       1.0  0.73432  0.20162  0.26553  1.0000
  H   H28       1.0  0.71243  0.18111  0.21423  1.0000
  H   H29       1.0  0.78692  0.25261  0.17860  1.0000
  C   C48       1.0  0.84371  0.32506  0.28797  1.0000
  H   H30       1.0  0.84264  0.33707  0.22507  1.0000
  C   C49       1.0  0.94410  0.50763  0.30834  1.0000
  C   C50       1.0  0.89297  0.48218  0.31591  1.0000
  H   H31       1.0  0.96075  0.54391  0.29328  1.0000
  C   C51       1.0  0.10388  0.51574  0.31577  1.0000
  C   C52       1.0  0.05275  0.49028  0.30816  1.0000
  H   H32       1.0  0.03608  0.45398  0.29328  1.0000
  H   H33       1.0  0.19844  0.57857  0.31121  1.0000
  H   H34       1.0  0.79841  0.41935  0.31132  1.0000
  N   N13       1.0  0.12522  0.48778  0.31548  1.0000
  N   N14       1.0  0.87161  0.51013  0.31552  1.0000
  C   C53       1.0  0.48972  0.43595  0.30820  1.0000
  C   C54       1.0  0.51515  0.41025  0.31585  1.0000
  H   H35       1.0  0.45342  0.41632  0.29328  1.0000
  C   C55       1.0  0.48165  0.58762  0.31591  1.0000
  C   C56       1.0  0.50708  0.56193  0.30822  1.0000
  H   H36       1.0  0.54338  0.58157  0.29329  1.0000
  H   H37       1.0  0.41882  0.61936  0.31126  1.0000
  H   H38       1.0  0.57796  0.37849  0.31129  1.0000
  N   N15       1.0  0.50960  0.63693  0.31553  1.0000
  N   N16       1.0  0.48719  0.36095  0.31553  1.0000
  C   C57       1.0  0.56143  0.05326  0.30815  1.0000
  C   C58       1.0  0.58714  0.10439  0.31568  1.0000
  H   H39       1.0  0.58106  0.03658  0.29326  1.0000
  C   C59       1.0  0.40974  0.89351  0.31583  1.0000
  C   C60       1.0  0.43543  0.94464  0.30832  1.0000
  H   H40       1.0  0.41582  0.96132  0.29328  1.0000
  H   H41       1.0  0.37800  0.79894  0.31128  1.0000
  H   H42       1.0  0.61891  0.19896  0.31126  1.0000
  N   N17       1.0  0.36044  0.87217  0.31549  1.0000
  N   N18       1.0  0.63643  0.12571  0.31542  1.0000
  C   C61       1.0  0.19204  0.47420  0.35422  1.0000
  C   C62       1.0  0.22307  0.47398  0.42154  1.0000
  C   C63       1.0  0.26386  0.47017  0.40050  1.0000
  N   N19       1.0  0.28817  0.47624  0.47618  1.0000
  O   O1        1.0  0.22119  0.48209  0.51018  1.0000
  C   C64       1.0  0.26157  0.48142  0.54000  1.0000
  H   H43       1.0  0.27290  0.48854  0.60466  1.0000
  C   C65       1.0  0.15904  0.49034  0.37360  1.0000
  H   H44       1.0  0.16259  0.50776  0.43295  1.0000
  C   C66       1.0  0.52317  0.71732  0.35424  1.0000
  C   C67       1.0  0.52341  0.74858  0.42156  1.0000
  C   C68       1.0  0.52720  0.79318  0.40052  1.0000
  N   N20       1.0  0.52116  0.81143  0.47620  1.0000
  O   O2        1.0  0.51532  0.73860  0.51021  1.0000
  C   C69       1.0  0.51599  0.77965  0.54003  1.0000
  H   H45       1.0  0.50889  0.78387  0.60469  1.0000
  C   C70       1.0  0.50705  0.66819  0.37365  1.0000
  H   H46       1.0  0.48964  0.65434  0.43302  1.0000
  C   C71       1.0  0.28004  0.80535  0.35422  1.0000
  C   C72       1.0  0.24879  0.77432  0.42154  1.0000
  C   C73       1.0  0.20419  0.73352  0.40050  1.0000
  N   N21       1.0  0.18594  0.70921  0.47618  1.0000
  O   O3        1.0  0.25878  0.77620  0.51019  1.0000
  C   C74       1.0  0.21772  0.73582  0.54001  1.0000
  H   H47       1.0  0.21351  0.72450  0.60466  1.0000
  C   C75       1.0  0.32918  0.83836  0.37361  1.0000
  H   H48       1.0  0.34304  0.83480  0.43298  1.0000
  C   C76       1.0  0.80479  0.52370  0.35421  1.0000
  C   C77       1.0  0.77376  0.52394  0.42152  1.0000
  C   C78       1.0  0.73296  0.52772  0.40046  1.0000
  N   N22       1.0  0.70866  0.52168  0.47614  1.0000
  O   O4        1.0  0.77566  0.51587  0.51018  1.0000
  C   C79       1.0  0.73527  0.51653  0.53999  1.0000
  H   H49       1.0  0.72396  0.50944  0.60465  1.0000
  C   C80       1.0  0.83781  0.50759  0.37363  1.0000
  H   H50       1.0  0.83426  0.49019  0.43302  1.0000
  C   C81       1.0  0.47364  0.28057  0.35425  1.0000
  C   C82       1.0  0.47342  0.24931  0.42155  1.0000
  C   C83       1.0  0.46966  0.20473  0.40049  1.0000
  N   N23       1.0  0.47571  0.18648  0.47617  1.0000
  O   O5        1.0  0.48149  0.25928  0.51022  1.0000
  C   C84       1.0  0.48084  0.21824  0.54001  1.0000
  H   H51       1.0  0.48794  0.21402  0.60468  1.0000
  C   C85       1.0  0.48971  0.32969  0.37368  1.0000
  H   H52       1.0  0.50715  0.34355  0.43303  1.0000
  C   C86       1.0  0.71681  0.19253  0.35419  1.0000
  C   C87       1.0  0.74806  0.22356  0.42152  1.0000
  C   C88       1.0  0.79265  0.26437  0.40049  1.0000
  N   N24       1.0  0.81089  0.28867  0.47618  1.0000
  O   O6        1.0  0.73807  0.22165  0.51017  1.0000
  C   C89       1.0  0.77911  0.26204  0.54001  1.0000
  H   H53       1.0  0.78332  0.27335  0.60467  1.0000
  C   C90       1.0  0.66768  0.15949  0.37359  1.0000
  H   H54       1.0  0.65381  0.16306  0.43293  1.0000
