data_image0
_chemical_formula_structural       C3OH2C3OH2C3OH2C3HOHC3HOHC3HOHNC18H12NC18H12NC18H12NC18H12C3HOHC3HOHC3HOHC3OH2C3OH2C3OH2
_chemical_formula_sum              "C108 O12 H72 N4"
_cell_length_a       38.7643
_cell_length_b       38.7643
_cell_length_c       14.7348
_cell_angle_alpha    90
_cell_angle_beta     90
_cell_angle_gamma    120

_space_group_name_H-M_alt    "P 1"
_space_group_IT_number       1

loop_
  _space_group_symop_operation_xyz
  'x, y, z'

loop_
  _atom_site_type_symbol
  _atom_site_label
  _atom_site_symmetry_multiplicity
  _atom_site_fract_x
  _atom_site_fract_y
  _atom_site_fract_z
  _atom_site_occupancy
  C   C1        1.0  0.20001  0.07635  0.31105  1.0000
  C   C2        1.0  0.24208  0.09713  0.31015  1.0000
  C   C3        1.0  0.26416  0.13326  0.35923  1.0000
  O   O1        1.0  0.26031  0.08092  0.26142  1.0000
  H   H1        1.0  0.18531  0.05015  0.27576  1.0000
  H   H2        1.0  0.26818  0.06700  0.30532  1.0000
  C   C4        1.0  0.91215  0.10223  0.27162  1.0000
  C   C5        1.0  0.89132  0.12353  0.26798  1.0000
  C   C6        1.0  0.87758  0.13306  0.34853  1.0000
  O   O2        1.0  0.88870  0.13807  0.18556  1.0000
  H   H3        1.0  0.92099  0.09599  0.21141  1.0000
  H   H4        1.0  0.87120  0.11509  0.14719  1.0000
  C   C7        1.0  0.88631  0.81222  0.29559  1.0000
  C   C8        1.0  0.86391  0.77016  0.29456  1.0000
  C   C9        1.0  0.87724  0.74714  0.34228  1.0000
  O   O3        1.0  0.82901  0.75284  0.24748  1.0000
  H   H5        1.0  0.87521  0.82763  0.26177  1.0000
  H   H6        1.0  0.80775  0.74571  0.29248  1.0000
  C   C10       1.0  0.61283  0.17772  0.28106  1.0000
  C   C11       1.0  0.57615  0.17666  0.27058  1.0000
  C   C12       1.0  0.55473  0.17815  0.34734  1.0000
  H   H7        1.0  0.62819  0.17924  0.22334  1.0000
  O   O4        1.0  0.56313  0.17494  0.18394  1.0000
  H   H8        1.0  0.54110  0.14757  0.17478  1.0000
  C   C13       1.0  0.83399  0.44080  0.26812  1.0000
  C   C14       1.0  0.83497  0.40510  0.25755  1.0000
  C   C15       1.0  0.83356  0.38219  0.33424  1.0000
  H   H9        1.0  0.83249  0.45473  0.21055  1.0000
  O   O5        1.0  0.83657  0.39371  0.17096  1.0000
  H   H10       1.0  0.86401  0.39932  0.16144  1.0000
  C   C16       1.0  0.56778  0.39985  0.27641  1.0000
  C   C17       1.0  0.60335  0.43637  0.26332  1.0000
  C   C18       1.0  0.62714  0.45854  0.33844  1.0000
  H   H11       1.0  0.55330  0.38383  0.21986  1.0000
  O   O6        1.0  0.61388  0.44840  0.17586  1.0000
  H   H12       1.0  0.60879  0.47056  0.16602  1.0000
  N   N1        1.0  0.00723  0.00402  0.35264  1.0000
  C   C19       1.0  0.04961  0.02478  0.35616  1.0000
  C   C20       1.0  0.98664  0.96164  0.34952  1.0000
  C   C21       1.0  0.98590  0.02528  0.35327  1.0000
  C   C22       1.0  0.99433  0.05569  0.28947  1.0000
  C   C23       1.0  0.97387  0.07722  0.29138  1.0000
  C   C24       1.0  0.94287  0.06836  0.35462  1.0000
  C   C25       1.0  0.93388  0.03687  0.41643  1.0000
  C   C26       1.0  0.95552  0.01651  0.41735  1.0000
  C   C27       1.0  0.07034  0.03897  0.43882  1.0000
  C   C28       1.0  0.11238  0.06003  0.44072  1.0000
  C   C29       1.0  0.13516  0.06820  0.36005  1.0000
  C   C30       1.0  0.11391  0.05370  0.27750  1.0000
  C   C31       1.0  0.07193  0.03222  0.27561  1.0000
  C   C32       1.0  0.97183  0.94079  0.26721  1.0000
  C   C33       1.0  0.95106  0.89875  0.26552  1.0000
  C   C34       1.0  0.94405  0.87609  0.34603  1.0000
  C   C35       1.0  0.95863  0.89745  0.42839  1.0000
  C   C36       1.0  0.97983  0.93943  0.43004  1.0000
  H   H13       1.0  0.12627  0.06903  0.50226  1.0000
  H   H14       1.0  0.05481  0.03376  0.49816  1.0000
  H   H15       1.0  0.05760  0.02254  0.21471  1.0000
  H   H16       1.0  0.12887  0.05924  0.21722  1.0000
  H   H17       1.0  0.01623  0.06303  0.24222  1.0000
  H   H18       1.0  0.98233  0.09995  0.24583  1.0000
  H   H19       1.0  0.97638  0.95623  0.20796  1.0000
  H   H20       1.0  0.94139  0.88474  0.20425  1.0000
  H   H21       1.0  0.95337  0.88257  0.48872  1.0000
  H   H22       1.0  0.98972  0.95384  0.49078  1.0000
  H   H23       1.0  0.94813  0.99431  0.46379  1.0000
  H   H24       1.0  0.91076  0.02770  0.46107  1.0000
  N   N2        1.0  0.43485  0.22108  0.35910  1.0000
  C   C37       1.0  0.45698  0.26297  0.37547  1.0000
  C   C38       1.0  0.39250  0.19950  0.35899  1.0000
  C   C39       1.0  0.45763  0.20210  0.34163  1.0000
  C   C40       1.0  0.48697  0.21693  0.27293  1.0000
  C   C41       1.0  0.51806  0.20813  0.27346  1.0000
  C   C42       1.0  0.51998  0.18249  0.33950  1.0000
  C   C43       1.0  0.48818  0.16487  0.40289  1.0000
  C   C44       1.0  0.45794  0.17498  0.40498  1.0000
  C   C45       1.0  0.45630  0.28977  0.31172  1.0000
  C   C46       1.0  0.48606  0.33030  0.31224  1.0000
  C   C47       1.0  0.51841  0.34532  0.37426  1.0000
  C   C48       1.0  0.51748  0.31840  0.44079  1.0000
  C   C49       1.0  0.48683  0.27832  0.44304  1.0000
  C   C50       1.0  0.37105  0.18589  0.27701  1.0000
  C   C51       1.0  0.32903  0.16441  0.27701  1.0000
  C   C52       1.0  0.30700  0.15540  0.35897  1.0000
  C   C53       1.0  0.32892  0.16940  0.44086  1.0000
  C   C54       1.0  0.37093  0.19113  0.44091  1.0000
  H   H25       1.0  0.48507  0.34828  0.26274  1.0000
  H   H26       1.0  0.43583  0.27931  0.26030  1.0000
  H   H27       1.0  0.48920  0.25932  0.48743  1.0000
  H   H28       1.0  0.54091  0.32665  0.48414  1.0000
  H   H29       1.0  0.48860  0.23805  0.22872  1.0000
  H   H30       1.0  0.54110  0.22354  0.22929  1.0000
  H   H31       1.0  0.38603  0.19194  0.21669  1.0000
  H   H32       1.0  0.31459  0.15581  0.21599  1.0000
  H   H33       1.0  0.31440  0.16332  0.50185  1.0000
  H   H34       1.0  0.38584  0.20051  0.50122  1.0000
  H   H35       1.0  0.43789  0.16478  0.45722  1.0000
  H   H36       1.0  0.48793  0.14615  0.45211  1.0000
  N   N3        1.0  0.79173  0.21943  0.35041  1.0000
  C   C55       1.0  0.74985  0.20051  0.36888  1.0000
  C   C56       1.0  0.81302  0.19810  0.34983  1.0000
  C   C57       1.0  0.81073  0.26132  0.33215  1.0000
  C   C58       1.0  0.79597  0.27537  0.26216  1.0000
  C   C59       1.0  0.80439  0.31519  0.26115  1.0000
  C   C60       1.0  0.82968  0.34325  0.32681  1.0000
  C   C61       1.0  0.84745  0.32966  0.39114  1.0000
  C   C62       1.0  0.83751  0.28943  0.39507  1.0000
  C   C63       1.0  0.72162  0.17382  0.30602  1.0000
  C   C64       1.0  0.68143  0.16399  0.31022  1.0000
  C   C65       1.0  0.66800  0.18183  0.37472  1.0000
  C   C66       1.0  0.69615  0.20702  0.44037  1.0000
  C   C67       1.0  0.73593  0.21530  0.43908  1.0000
  C   C68       1.0  0.80894  0.17231  0.27777  1.0000
  C   C69       1.0  0.82907  0.15044  0.27854  1.0000
  C   C70       1.0  0.85621  0.15494  0.34849  1.0000
  C   C71       1.0  0.86055  0.18152  0.41976  1.0000
  C   C72       1.0  0.83884  0.20182  0.42150  1.0000
  H   H37       1.0  0.66255  0.14544  0.26131  1.0000
  H   H38       1.0  0.73045  0.16365  0.25219  1.0000
  H   H39       1.0  0.75581  0.23609  0.48329  1.0000
  H   H40       1.0  0.68901  0.22237  0.48580  1.0000
  H   H41       1.0  0.77513  0.25557  0.21793  1.0000
  H   H42       1.0  0.78908  0.32245  0.21586  1.0000
  H   H43       1.0  0.79104  0.16902  0.22389  1.0000
  H   H44       1.0  0.82297  0.13057  0.22712  1.0000
  H   H45       1.0  0.87990  0.18672  0.47198  1.0000
  H   H46       1.0  0.84208  0.21940  0.47603  1.0000
  H   H47       1.0  0.84757  0.28045  0.44887  1.0000
  H   H48       1.0  0.86597  0.34843  0.44024  1.0000
  N   N4        1.0  0.79060  0.57643  0.34288  1.0000
  C   C73       1.0  0.80961  0.55368  0.36049  1.0000
  C   C74       1.0  0.81208  0.61878  0.34270  1.0000
  C   C75       1.0  0.74869  0.55422  0.32668  1.0000
  C   C76       1.0  0.73331  0.52435  0.25920  1.0000
  C   C77       1.0  0.69322  0.49374  0.26163  1.0000
  C   C78       1.0  0.66635  0.49292  0.32816  1.0000
  C   C79       1.0  0.68142  0.52534  0.39001  1.0000
  C   C80       1.0  0.72198  0.55505  0.39045  1.0000
  C   C81       1.0  0.83671  0.55339  0.29704  1.0000
  C   C82       1.0  0.84688  0.52319  0.29918  1.0000
  C   C83       1.0  0.82928  0.49139  0.36256  1.0000
  C   C84       1.0  0.80364  0.49330  0.42861  1.0000
  C   C85       1.0  0.79488  0.52442  0.42936  1.0000
  C   C86       1.0  0.81984  0.64025  0.26076  1.0000
  C   C87       1.0  0.84125  0.68227  0.26056  1.0000
  C   C88       1.0  0.85535  0.70430  0.34228  1.0000
  C   C89       1.0  0.84745  0.68237  0.42415  1.0000
  C   C90       1.0  0.82624  0.64035  0.42440  1.0000
  H   H49       1.0  0.86557  0.52345  0.24987  1.0000
  H   H50       1.0  0.84684  0.57343  0.24477  1.0000
  H   H51       1.0  0.77374  0.52279  0.47348  1.0000
  H   H52       1.0  0.78830  0.47030  0.47292  1.0000
  H   H53       1.0  0.75228  0.52193  0.21481  1.0000
  H   H54       1.0  0.68488  0.47028  0.21833  1.0000
  H   H55       1.0  0.81022  0.62526  0.20059  1.0000
  H   H56       1.0  0.84702  0.69671  0.19954  1.0000
  H   H57       1.0  0.85666  0.69690  0.48499  1.0000
  H   H58       1.0  0.82082  0.62544  0.48470  1.0000
  H   H59       1.0  0.73250  0.57551  0.44187  1.0000
  H   H60       1.0  0.66351  0.52635  0.43967  1.0000
  C   C91       1.0  0.24224  0.14695  0.40964  1.0000
  C   C92       1.0  0.20016  0.12621  0.41030  1.0000
  C   C93       1.0  0.17804  0.09009  0.36118  1.0000
  H   H61       1.0  0.25699  0.17319  0.44478  1.0000
  O   O7        1.0  0.18197  0.14266  0.45835  1.0000
  H   H62       1.0  0.17431  0.15660  0.41406  1.0000
  C   C94       1.0  0.88630  0.12024  0.43123  1.0000
  C   C95       1.0  0.90759  0.09942  0.43496  1.0000
  C   C96       1.0  0.92101  0.08965  0.35437  1.0000
  H   H63       1.0  0.87708  0.12599  0.49148  1.0000
  O   O8        1.0  0.91836  0.09279  0.51845  1.0000
  H   H64       1.0  0.89378  0.07362  0.55009  1.0000
  C   C97       1.0  0.91340  0.76810  0.39114  1.0000
  C   C98       1.0  0.93584  0.81014  0.39201  1.0000
  C   C99       1.0  0.92245  0.83321  0.34462  1.0000
  H   H65       1.0  0.92440  0.75265  0.42524  1.0000
  O   O9        1.0  0.97075  0.82732  0.43906  1.0000
  H   H66       1.0  0.99205  0.83508  0.39387  1.0000
  C   C100      1.0  0.57058  0.17774  0.43383  1.0000
  C   C101      1.0  0.60626  0.17672  0.44428  1.0000
  C   C102      1.0  0.62911  0.17807  0.36751  1.0000
  O   O10       1.0  0.61770  0.17511  0.53082  1.0000
  H   H67       1.0  0.55669  0.17928  0.49144  1.0000
  H   H68       1.0  0.61203  0.14765  0.54035  1.0000
  C   C103      1.0  0.83396  0.39844  0.42075  1.0000
  C   C104      1.0  0.83506  0.43514  0.43134  1.0000
  C   C105      1.0  0.83361  0.45663  0.35466  1.0000
  O   O11       1.0  0.83679  0.44813  0.51803  1.0000
  H   H69       1.0  0.83240  0.38303  0.47841  1.0000
  H   H70       1.0  0.86416  0.47015  0.52720  1.0000
  C   C106      1.0  0.61171  0.44371  0.42606  1.0000
  C   C107      1.0  0.57512  0.40821  0.43915  1.0000
  C   C108      1.0  0.55288  0.38448  0.36403  1.0000
  O   O12       1.0  0.56306  0.39771  0.52662  1.0000
  H   H71       1.0  0.62778  0.45814  0.48260  1.0000
  H   H72       1.0  0.54097  0.40291  0.53644  1.0000
