data_image0
_chemical_formula_structural       C4NC4NH4N2CNCOCH3CHCNCOCH3CHC2HC2H3N3C2HCHNC2HCHC4NC4NH4N2CNCOCH3CHCNCOCH3CHC2HC2H3N3C2HCHNC2HCHC4NC4NH4N2CNCOCH3CHCNCOCH3CHC2HC2H3N3C2HCHNC2HCHC4NC4NH4N2CNCOCH3CHCNCOCH3CHC2HC2H3N3C2HCHNC2HCH
_chemical_formula_sum              "C104 N40 H80 O8"
_cell_length_a       31.2278
_cell_length_b       31.2278
_cell_length_c       14.8929
_cell_angle_alpha    90
_cell_angle_beta     90
_cell_angle_gamma    90

_space_group_name_H-M_alt    "P 1"
_space_group_IT_number       1

loop_
  _space_group_symop_operation_xyz
  'x, y, z'

loop_
  _atom_site_type_symbol
  _atom_site_label
  _atom_site_symmetry_multiplicity
  _atom_site_fract_x
  _atom_site_fract_y
  _atom_site_fract_z
  _atom_site_occupancy
  C   C1        1.0  0.01549  0.49168  0.32435  1.0000
  C   C2        1.0  0.08155  0.42559  0.31782  1.0000
  C   C3        1.0  0.09275  0.46962  0.32017  1.0000
  C   C4        1.0  0.06022  0.50116  0.32325  1.0000
  N   N1        1.0  0.11251  0.39462  0.31372  1.0000
  C   C5        1.0  0.48267  0.02450  0.32624  1.0000
  C   C6        1.0  0.43793  0.01503  0.32623  1.0000
  C   C7        1.0  0.40537  0.04656  0.32924  1.0000
  C   C8        1.0  0.41657  0.09057  0.33246  1.0000
  N   N2        1.0  0.38560  0.12153  0.33652  1.0000
  H   H1        1.0  0.35529  0.11460  0.33869  1.0000
  H   H2        1.0  0.14282  0.40154  0.31117  1.0000
  H   H3        1.0  0.07056  0.03190  0.32441  1.0000
  H   H4        1.0  0.42764  0.48430  0.32369  1.0000
  N   N3        1.0  0.36306  0.03642  0.32779  1.0000
  N   N4        1.0  0.13506  0.47978  0.32024  1.0000
  C   C9        1.0  0.00365  0.21326  0.32417  1.0000
  N   N5        1.0  0.53398  0.28341  0.31785  1.0000
  C   C10       1.0  0.53988  0.24025  0.31620  1.0000
  O   O1        1.0  0.58071  0.22465  0.30997  1.0000
  C   C11       1.0  0.09609  0.22288  0.21902  1.0000
  H   H5        1.0  0.09748  0.25477  0.18884  1.0000
  H   H6        1.0  0.57620  0.20197  0.17747  1.0000
  H   H7        1.0  0.12844  0.20979  0.22005  1.0000
  C   C12       1.0  0.00654  0.16827  0.32493  1.0000
  H   H8        1.0  0.03575  0.15372  0.32026  1.0000
  C   C13       1.0  0.29390  0.00352  0.32215  1.0000
  N   N6        1.0  0.22375  0.47319  0.31579  1.0000
  C   C14       1.0  0.26691  0.46730  0.31402  1.0000
  O   O2        1.0  0.28251  0.42649  0.30754  1.0000
  C   C15       1.0  0.28430  0.91124  0.21649  1.0000
  H   H9        1.0  0.25243  0.90991  0.18625  1.0000
  H   H10       1.0  0.29738  0.37889  0.21732  1.0000
  H   H11       1.0  0.30523  0.93119  0.17510  1.0000
  C   C16       1.0  0.33888  0.00063  0.32297  1.0000
  H   H12       1.0  0.35344  0.97142  0.31827  1.0000
  C   C17       1.0  0.00601  0.44694  0.32416  1.0000
  C   C18       1.0  0.03753  0.41440  0.32092  1.0000
  H   H13       1.0  0.47528  0.43661  0.32658  1.0000
  C   C19       1.0  0.46060  0.10178  0.33008  1.0000
  C   C20       1.0  0.49213  0.06923  0.32726  1.0000
  H   H14       1.0  0.02288  0.07953  0.32605  1.0000
  H   H15       1.0  0.39252  0.15183  0.33928  1.0000
  H   H16       1.0  0.10559  0.36430  0.31170  1.0000
  N   N7        1.0  0.47073  0.14409  0.32916  1.0000
  N   N8        1.0  0.02737  0.37210  0.32146  1.0000
  N   N9        1.0  0.96469  0.23268  0.33075  1.0000
  C   C21       1.0  0.95895  0.27579  0.33094  1.0000
  C   C22       1.0  0.49506  0.30278  0.32472  1.0000
  H   H17       1.0  0.92866  0.28792  0.33640  1.0000
  C   C23       1.0  0.49171  0.34769  0.32546  1.0000
  H   H18       1.0  0.46231  0.36189  0.33026  1.0000
  N   N10       1.0  0.27448  0.04247  0.32894  1.0000
  C   C24       1.0  0.23137  0.04822  0.32918  1.0000
  C   C25       1.0  0.20438  0.51211  0.32288  1.0000
  H   H19       1.0  0.21924  0.07849  0.33484  1.0000
  C   C26       1.0  0.15946  0.51545  0.32382  1.0000
  H   H20       1.0  0.14527  0.54485  0.32878  1.0000
  C   C27       1.0  0.01549  0.99168  0.32435  1.0000
  C   C28       1.0  0.08155  0.92559  0.31782  1.0000
  C   C29       1.0  0.09275  0.96962  0.32017  1.0000
  C   C30       1.0  0.06022  0.00116  0.32325  1.0000
  N   N11       1.0  0.11251  0.89462  0.31372  1.0000
  C   C31       1.0  0.48267  0.52450  0.32624  1.0000
  C   C32       1.0  0.43793  0.51503  0.32623  1.0000
  C   C33       1.0  0.40537  0.54656  0.32924  1.0000
  C   C34       1.0  0.41657  0.59057  0.33246  1.0000
  N   N12       1.0  0.38560  0.62153  0.33652  1.0000
  H   H21       1.0  0.35529  0.61460  0.33869  1.0000
  H   H22       1.0  0.14282  0.90154  0.31117  1.0000
  H   H23       1.0  0.07056  0.53190  0.32441  1.0000
  H   H24       1.0  0.42764  0.98430  0.32369  1.0000
  N   N13       1.0  0.36306  0.53642  0.32779  1.0000
  N   N14       1.0  0.13506  0.97978  0.32024  1.0000
  C   C35       1.0  0.00365  0.71326  0.32417  1.0000
  N   N15       1.0  0.53398  0.78341  0.31785  1.0000
  C   C36       1.0  0.53988  0.74025  0.31620  1.0000
  O   O3        1.0  0.58071  0.72465  0.30997  1.0000
  C   C37       1.0  0.09609  0.72288  0.21902  1.0000
  H   H25       1.0  0.09748  0.75477  0.18884  1.0000
  H   H26       1.0  0.57620  0.70197  0.17747  1.0000
  H   H27       1.0  0.12844  0.70979  0.22005  1.0000
  C   C38       1.0  0.00654  0.66828  0.32493  1.0000
  H   H28       1.0  0.03575  0.65372  0.32026  1.0000
  C   C39       1.0  0.29390  0.50352  0.32215  1.0000
  N   N16       1.0  0.22375  0.97319  0.31579  1.0000
  C   C40       1.0  0.26691  0.96730  0.31402  1.0000
  O   O4        1.0  0.28251  0.92649  0.30754  1.0000
  C   C41       1.0  0.28430  0.41124  0.21649  1.0000
  H   H29       1.0  0.25243  0.40991  0.18625  1.0000
  H   H30       1.0  0.29738  0.87889  0.21732  1.0000
  H   H31       1.0  0.30523  0.43119  0.17510  1.0000
  C   C42       1.0  0.33888  0.50063  0.32297  1.0000
  H   H32       1.0  0.35344  0.47142  0.31827  1.0000
  C   C43       1.0  0.00601  0.94694  0.32416  1.0000
  C   C44       1.0  0.03753  0.91440  0.32092  1.0000
  H   H33       1.0  0.47528  0.93661  0.32658  1.0000
  C   C45       1.0  0.46060  0.60178  0.33008  1.0000
  C   C46       1.0  0.49213  0.56923  0.32726  1.0000
  H   H34       1.0  0.02288  0.57953  0.32605  1.0000
  H   H35       1.0  0.39252  0.65183  0.33928  1.0000
  H   H36       1.0  0.10559  0.86430  0.31170  1.0000
  N   N17       1.0  0.47073  0.64409  0.32916  1.0000
  N   N18       1.0  0.02737  0.87210  0.32146  1.0000
  N   N19       1.0  0.96469  0.73268  0.33075  1.0000
  C   C47       1.0  0.95895  0.77579  0.33094  1.0000
  C   C48       1.0  0.49506  0.80278  0.32472  1.0000
  H   H37       1.0  0.92866  0.78792  0.33640  1.0000
  C   C49       1.0  0.49171  0.84769  0.32546  1.0000
  H   H38       1.0  0.46231  0.86189  0.33026  1.0000
  N   N20       1.0  0.27448  0.54247  0.32894  1.0000
  C   C50       1.0  0.23137  0.54822  0.32918  1.0000
  C   C51       1.0  0.20438  0.01211  0.32288  1.0000
  H   H39       1.0  0.21924  0.57849  0.33484  1.0000
  C   C52       1.0  0.15946  0.01545  0.32382  1.0000
  H   H40       1.0  0.14527  0.04485  0.32878  1.0000
  C   C53       1.0  0.51549  0.49168  0.32435  1.0000
  C   C54       1.0  0.58155  0.42559  0.31782  1.0000
  C   C55       1.0  0.59275  0.46962  0.32017  1.0000
  C   C56       1.0  0.56022  0.50116  0.32325  1.0000
  N   N21       1.0  0.61251  0.39462  0.31372  1.0000
  C   C57       1.0  0.98267  0.02450  0.32624  1.0000
  C   C58       1.0  0.93793  0.01503  0.32623  1.0000
  C   C59       1.0  0.90538  0.04656  0.32924  1.0000
  C   C60       1.0  0.91657  0.09057  0.33246  1.0000
  N   N22       1.0  0.88560  0.12153  0.33652  1.0000
  H   H41       1.0  0.85529  0.11460  0.33869  1.0000
  H   H42       1.0  0.64282  0.40154  0.31117  1.0000
  H   H43       1.0  0.57056  0.03190  0.32441  1.0000
  H   H44       1.0  0.92764  0.48430  0.32369  1.0000
  N   N23       1.0  0.86306  0.03642  0.32779  1.0000
  N   N24       1.0  0.63506  0.47978  0.32024  1.0000
  C   C61       1.0  0.50365  0.21326  0.32417  1.0000
  N   N25       1.0  0.03398  0.28341  0.31785  1.0000
  C   C62       1.0  0.03988  0.24025  0.31620  1.0000
  O   O5        1.0  0.08071  0.22465  0.30997  1.0000
  C   C63       1.0  0.59609  0.22288  0.21902  1.0000
  H   H45       1.0  0.59748  0.25477  0.18884  1.0000
  H   H46       1.0  0.07620  0.20197  0.17747  1.0000
  H   H47       1.0  0.62844  0.20979  0.22005  1.0000
  C   C64       1.0  0.50654  0.16827  0.32493  1.0000
  H   H48       1.0  0.53575  0.15372  0.32026  1.0000
  C   C65       1.0  0.79390  0.00352  0.32215  1.0000
  N   N26       1.0  0.72375  0.47319  0.31579  1.0000
  C   C66       1.0  0.76691  0.46730  0.31402  1.0000
  O   O6        1.0  0.78250  0.42649  0.30754  1.0000
  C   C67       1.0  0.78430  0.91124  0.21649  1.0000
  H   H49       1.0  0.75243  0.90991  0.18625  1.0000
  H   H50       1.0  0.79739  0.37889  0.21732  1.0000
  H   H51       1.0  0.80523  0.93119  0.17510  1.0000
  C   C68       1.0  0.83888  0.00063  0.32297  1.0000
  H   H52       1.0  0.85344  0.97142  0.31827  1.0000
  C   C69       1.0  0.50601  0.44694  0.32416  1.0000
  C   C70       1.0  0.53753  0.41440  0.32092  1.0000
  H   H53       1.0  0.97528  0.43661  0.32658  1.0000
  C   C71       1.0  0.96060  0.10178  0.33008  1.0000
  C   C72       1.0  0.99213  0.06923  0.32726  1.0000
  H   H54       1.0  0.52288  0.07953  0.32605  1.0000
  H   H55       1.0  0.89252  0.15183  0.33928  1.0000
  H   H56       1.0  0.60559  0.36430  0.31170  1.0000
  N   N27       1.0  0.97073  0.14409  0.32916  1.0000
  N   N28       1.0  0.52737  0.37210  0.32146  1.0000
  N   N29       1.0  0.46470  0.23268  0.33075  1.0000
  C   C73       1.0  0.45895  0.27579  0.33094  1.0000
  C   C74       1.0  0.99506  0.30278  0.32472  1.0000
  H   H57       1.0  0.42866  0.28792  0.33640  1.0000
  C   C75       1.0  0.99171  0.34769  0.32546  1.0000
  H   H58       1.0  0.96231  0.36189  0.33026  1.0000
  N   N30       1.0  0.77448  0.04247  0.32894  1.0000
  C   C76       1.0  0.73137  0.04822  0.32918  1.0000
  C   C77       1.0  0.70438  0.51211  0.32288  1.0000
  H   H59       1.0  0.71924  0.07849  0.33484  1.0000
  C   C78       1.0  0.65946  0.51545  0.32382  1.0000
  H   H60       1.0  0.64527  0.54485  0.32878  1.0000
  C   C79       1.0  0.51549  0.99168  0.32435  1.0000
  C   C80       1.0  0.58155  0.92559  0.31782  1.0000
  C   C81       1.0  0.59275  0.96962  0.32017  1.0000
  C   C82       1.0  0.56022  0.00116  0.32325  1.0000
  N   N31       1.0  0.61251  0.89462  0.31372  1.0000
  C   C83       1.0  0.98267  0.52450  0.32624  1.0000
  C   C84       1.0  0.93793  0.51503  0.32623  1.0000
  C   C85       1.0  0.90538  0.54656  0.32924  1.0000
  C   C86       1.0  0.91657  0.59057  0.33246  1.0000
  N   N32       1.0  0.88560  0.62153  0.33652  1.0000
  H   H61       1.0  0.85529  0.61460  0.33869  1.0000
  H   H62       1.0  0.64282  0.90154  0.31117  1.0000
  H   H63       1.0  0.57056  0.53190  0.32441  1.0000
  H   H64       1.0  0.92764  0.98430  0.32369  1.0000
  N   N33       1.0  0.86306  0.53642  0.32779  1.0000
  N   N34       1.0  0.63506  0.97978  0.32024  1.0000
  C   C87       1.0  0.50365  0.71326  0.32417  1.0000
  N   N35       1.0  0.03398  0.78341  0.31785  1.0000
  C   C88       1.0  0.03988  0.74025  0.31620  1.0000
  O   O7        1.0  0.08071  0.72465  0.30997  1.0000
  C   C89       1.0  0.59609  0.72288  0.21902  1.0000
  H   H65       1.0  0.59748  0.75477  0.18884  1.0000
  H   H66       1.0  0.07620  0.70197  0.17747  1.0000
  H   H67       1.0  0.62844  0.70979  0.22005  1.0000
  C   C90       1.0  0.50654  0.66828  0.32493  1.0000
  H   H68       1.0  0.53575  0.65372  0.32026  1.0000
  C   C91       1.0  0.79390  0.50352  0.32215  1.0000
  N   N36       1.0  0.72375  0.97319  0.31579  1.0000
  C   C92       1.0  0.76691  0.96730  0.31402  1.0000
  O   O8        1.0  0.78250  0.92649  0.30754  1.0000
  C   C93       1.0  0.78430  0.41124  0.21649  1.0000
  H   H69       1.0  0.75243  0.40991  0.18625  1.0000
  H   H70       1.0  0.79739  0.87889  0.21732  1.0000
  H   H71       1.0  0.80523  0.43119  0.17510  1.0000
  C   C94       1.0  0.83888  0.50063  0.32297  1.0000
  H   H72       1.0  0.85344  0.47142  0.31827  1.0000
  C   C95       1.0  0.50601  0.94694  0.32416  1.0000
  C   C96       1.0  0.53753  0.91440  0.32092  1.0000
  H   H73       1.0  0.97528  0.93661  0.32658  1.0000
  C   C97       1.0  0.96060  0.60178  0.33008  1.0000
  C   C98       1.0  0.99213  0.56923  0.32726  1.0000
  H   H74       1.0  0.52288  0.57953  0.32605  1.0000
  H   H75       1.0  0.89252  0.65183  0.33928  1.0000
  H   H76       1.0  0.60559  0.86430  0.31170  1.0000
  N   N37       1.0  0.97073  0.64409  0.32916  1.0000
  N   N38       1.0  0.52737  0.87210  0.32146  1.0000
  N   N39       1.0  0.46470  0.73268  0.33075  1.0000
  C   C99       1.0  0.45895  0.77579  0.33094  1.0000
  C   C100      1.0  0.99506  0.80278  0.32472  1.0000
  H   H77       1.0  0.42866  0.78792  0.33640  1.0000
  C   C101      1.0  0.99171  0.84769  0.32546  1.0000
  H   H78       1.0  0.96231  0.86189  0.33026  1.0000
  N   N40       1.0  0.77448  0.54247  0.32894  1.0000
  C   C102      1.0  0.73137  0.54822  0.32918  1.0000
  C   C103      1.0  0.70438  0.01211  0.32288  1.0000
  H   H79       1.0  0.71924  0.57849  0.33484  1.0000
  C   C104      1.0  0.65946  0.01545  0.32382  1.0000
  H   H80       1.0  0.64527  0.04485  0.32878  1.0000
