data_image0
_chemical_formula_structural       HC3H3C3H2C2NC3H3C2NC3H3C3NC2H2C3NC2H4C4NC2NCHCH2C4NC2NCHCH2C2H6C2H6C2H6C3HC6H3C6H3C6H3C2H5C2H5C4NC2NCHCHC4NC2NCHCHC4NC2NCHCH3C4NC2NCHCH2C4NC2NCHCH2C2H6C2H6C2H6C3HC6H3C6H3C6H3C2H5C2H5C4NC2NCHCHC4NC2NCHCHC4NC2NCHCHC4NC2NCHCH2C4NC2NCHCH2C4NC2NCHCH2C2H6C2H6C2H6C6H3C6H3C6H3C6H3C2H5C2H5C2H5C4NC2NCHCHC4NC2NCHCHC4NC2NCHCHC4NC2NCHCH2C4NC2NCHCH2C4NC2NCHCH2C2H6C2H6C2H6C6H3C6H3C6H3C6H3C2H5C2H5C2H5C4NC2NCHCHC4NC2NCHCHC4NC2NCHCH
_chemical_formula_sum              "H240 C336 N48"
_cell_length_a       45.7438
_cell_length_b       45.7651
_cell_length_c       14.9029
_cell_angle_alpha    90
_cell_angle_beta     90
_cell_angle_gamma    119.989

_space_group_name_H-M_alt    "P 1"
_space_group_IT_number       1

loop_
  _space_group_symop_operation_xyz
  'x, y, z'

loop_
  _atom_site_type_symbol
  _atom_site_label
  _atom_site_symmetry_multiplicity
  _atom_site_fract_x
  _atom_site_fract_y
  _atom_site_fract_z
  _atom_site_occupancy
  H   H1        1.0  0.04268  0.02218  0.03560  1.0000
  C   C1        1.0  0.03839  0.01986  0.34521  1.0000
  C   C2        1.0  0.02005  0.03732  0.34482  1.0000
  C   C3        1.0  0.02000  0.48407  0.34492  1.0000
  H   H2        1.0  0.03291  0.47113  0.34349  1.0000
  H   H3        1.0  0.03300  0.06316  0.34339  1.0000
  H   H4        1.0  0.04268  0.52218  0.03560  1.0000
  C   C4        1.0  0.03839  0.51986  0.34521  1.0000
  C   C5        1.0  0.02005  0.53733  0.34482  1.0000
  C   C6        1.0  0.02000  0.98408  0.34492  1.0000
  H   H5        1.0  0.03291  0.97113  0.34349  1.0000
  H   H6        1.0  0.03300  0.56317  0.34339  1.0000
  C   C7        1.0  0.09242  0.04699  0.25908  1.0000
  C   C8        1.0  0.07463  0.03795  0.34155  1.0000
  N   N1        1.0  0.07577  0.03873  0.17948  1.0000
  C   C9        1.0  0.09115  0.04652  0.09804  1.0000
  C   C10       1.0  0.06939  0.03561  0.01755  1.0000
  C   C11       1.0  0.09410  0.04748  0.42110  1.0000
  H   H7        1.0  0.08232  0.04143  0.48202  1.0000
  H   H8        1.0  0.07448  0.01870  0.64414  1.0000
  H   H9        1.0  0.07431  0.05757  0.64420  1.0000
  C   C12       1.0  0.09242  0.54699  0.25908  1.0000
  C   C13       1.0  0.07463  0.53795  0.34155  1.0000
  N   N2        1.0  0.07577  0.53873  0.17948  1.0000
  C   C14       1.0  0.09115  0.54652  0.09804  1.0000
  C   C15       1.0  0.06939  0.53561  0.01755  1.0000
  C   C16       1.0  0.09410  0.54748  0.42110  1.0000
  H   H10       1.0  0.08232  0.54143  0.48202  1.0000
  H   H11       1.0  0.07448  0.51870  0.64414  1.0000
  H   H12       1.0  0.07431  0.55757  0.64420  1.0000
  C   C17       1.0  0.14774  0.07452  0.33655  1.0000
  C   C18       1.0  0.12841  0.06500  0.25679  1.0000
  C   C19       1.0  0.12700  0.06450  0.09620  1.0000
  N   N3        1.0  0.14373  0.07278  0.17553  1.0000
  C   C20       1.0  0.14827  0.07532  0.01524  1.0000
  C   C21       1.0  0.12980  0.06530  0.41831  1.0000
  H   H13       1.0  0.14307  0.07169  0.47666  1.0000
  H   H14       1.0  0.13299  0.06801  0.62176  1.0000
  C   C22       1.0  0.14774  0.57452  0.33655  1.0000
  C   C23       1.0  0.12841  0.56500  0.25679  1.0000
  C   C24       1.0  0.12700  0.56450  0.09620  1.0000
  N   N4        1.0  0.14373  0.57278  0.17553  1.0000
  C   C25       1.0  0.14827  0.57532  0.01524  1.0000
  C   C26       1.0  0.12980  0.56530  0.41831  1.0000
  H   H15       1.0  0.14307  0.57169  0.47666  1.0000
  H   H16       1.0  0.13299  0.56801  0.62176  1.0000
  H   H17       1.0  0.16413  0.06375  0.01385  1.0000
  H   H18       1.0  0.16438  0.10271  0.01520  1.0000
  C   C27       1.0  0.42975  0.07477  0.33664  1.0000
  C   C28       1.0  0.43935  0.06505  0.25687  1.0000
  C   C29       1.0  0.45729  0.04700  0.25913  1.0000
  C   C30       1.0  0.46617  0.03808  0.34158  1.0000
  N   N5        1.0  0.46558  0.03866  0.17951  1.0000
  C   C31       1.0  0.45791  0.04637  0.09808  1.0000
  C   C32       1.0  0.44004  0.06435  0.09628  1.0000
  N   N6        1.0  0.43170  0.07273  0.17562  1.0000
  C   C33       1.0  0.46875  0.03547  0.01757  1.0000
  H   H19       1.0  0.48205  0.02206  0.03559  1.0000
  C   C34       1.0  0.42941  0.07501  0.01534  1.0000
  H   H20       1.0  0.44082  0.10242  0.01473  1.0000
  H   H21       1.0  0.40200  0.06356  0.01456  1.0000
  C   C35       1.0  0.42947  0.35644  0.33666  1.0000
  C   C36       1.0  0.43923  0.37576  0.25689  1.0000
  C   C37       1.0  0.45722  0.41173  0.25916  1.0000
  C   C38       1.0  0.46605  0.42953  0.34161  1.0000
  N   N7        1.0  0.46558  0.42836  0.17955  1.0000
  C   C39       1.0  0.45793  0.41299  0.09811  1.0000
  C   C40       1.0  0.44003  0.37716  0.09631  1.0000
  N   N8        1.0  0.43161  0.36044  0.17564  1.0000
  C   C41       1.0  0.46880  0.43473  0.01761  1.0000
  H   H22       1.0  0.48213  0.46143  0.03564  1.0000
  C   C42       1.0  0.42946  0.35588  0.01536  1.0000
  H   H23       1.0  0.40204  0.33995  0.01437  1.0000
  H   H24       1.0  0.44085  0.33986  0.01494  1.0000
  C   C43       1.0  0.30441  0.07527  0.26016  1.0000
  C   C44       1.0  0.27334  0.07485  0.26077  1.0000
  H   H25       1.0  0.26380  0.07722  0.20115  1.0000
  H   H26       1.0  0.31635  0.07837  0.20007  1.0000
  H   H27       1.0  0.31205  0.06325  0.04061  1.0000
  H   H28       1.0  0.33531  0.10813  0.03419  1.0000
  H   H29       1.0  0.27702  0.09444  0.05508  1.0000
  H   H30       1.0  0.23780  0.06386  0.00889  1.0000
  C   C45       1.0  0.42914  0.23069  0.25973  1.0000
  C   C46       1.0  0.42958  0.20007  0.26036  1.0000
  H   H31       1.0  0.42741  0.18820  0.20079  1.0000
  H   H32       1.0  0.42620  0.23960  0.19958  1.0000
  H   H33       1.0  0.44087  0.25034  0.04012  1.0000
  H   H34       1.0  0.39598  0.22868  0.03374  1.0000
  H   H35       1.0  0.40973  0.18416  0.05482  1.0000
  H   H36       1.0  0.44028  0.17547  0.00857  1.0000
  C   C47       1.0  0.27361  0.19988  0.26014  1.0000
  C   C48       1.0  0.30425  0.23094  0.26083  1.0000
  H   H37       1.0  0.31619  0.24050  0.20127  1.0000
  H   H38       1.0  0.26482  0.18796  0.20001  1.0000
  H   H39       1.0  0.25374  0.19207  0.04057  1.0000
  H   H40       1.0  0.27539  0.16884  0.03410  1.0000
  H   H41       1.0  0.31994  0.22710  0.05522  1.0000
  H   H42       1.0  0.32855  0.26632  0.00914  1.0000
  C   C49       1.0  0.48425  0.01993  0.34521  1.0000
  C   C50       1.0  0.46679  0.48414  0.34490  1.0000
  C   C51       1.0  0.48420  0.46575  0.34525  1.0000
  H   H43       1.0  0.44093  0.47124  0.34350  1.0000
  C   C52       1.0  0.23800  0.09262  0.33850  1.0000
  C   C53       1.0  0.25525  0.12823  0.33833  1.0000
  C   C54       1.0  0.23803  0.14663  0.33738  1.0000
  C   C55       1.0  0.20228  0.12851  0.33652  1.0000
  C   C56       1.0  0.18398  0.09263  0.33637  1.0000
  C   C57       1.0  0.20226  0.07503  0.33752  1.0000
  H   H44       1.0  0.18952  0.14158  0.33674  1.0000
  H   H45       1.0  0.18948  0.04920  0.33821  1.0000
  H   H46       1.0  0.28118  0.14118  0.33976  1.0000
  C   C58       1.0  0.41170  0.14695  0.33850  1.0000
  C   C59       1.0  0.37607  0.12859  0.33834  1.0000
  C   C60       1.0  0.35766  0.09298  0.33751  1.0000
  C   C61       1.0  0.37578  0.07536  0.33675  1.0000
  C   C62       1.0  0.41167  0.09292  0.33649  1.0000
  C   C63       1.0  0.42929  0.12880  0.33748  1.0000
  H   H47       1.0  0.36269  0.04953  0.33702  1.0000
  H   H48       1.0  0.45513  0.14184  0.33804  1.0000
  H   H49       1.0  0.36311  0.14156  0.33968  1.0000
  C   C64       1.0  0.35729  0.26623  0.33864  1.0000
  C   C65       1.0  0.37566  0.24898  0.33834  1.0000
  C   C66       1.0  0.41129  0.26618  0.33737  1.0000
  C   C67       1.0  0.42891  0.30191  0.33651  1.0000
  C   C68       1.0  0.41133  0.32022  0.33650  1.0000
  C   C69       1.0  0.37544  0.30196  0.33774  1.0000
  H   H50       1.0  0.45475  0.31465  0.33656  1.0000
  H   H51       1.0  0.36238  0.31474  0.33852  1.0000
  H   H52       1.0  0.36269  0.22306  0.33968  1.0000
  C   C70       1.0  0.45649  0.04786  0.42115  1.0000
  C   C71       1.0  0.43871  0.06578  0.41838  1.0000
  H   H53       1.0  0.43211  0.07244  0.47674  1.0000
  H   H54       1.0  0.46238  0.04196  0.48206  1.0000
  H   H55       1.0  0.48576  0.05743  0.64421  1.0000
  H   H56       1.0  0.44675  0.01854  0.64418  1.0000
  H   H57       1.0  0.43710  0.06742  0.62186  1.0000
  C   C72       1.0  0.45619  0.41007  0.42118  1.0000
  C   C73       1.0  0.43830  0.37439  0.41841  1.0000
  H   H58       1.0  0.43153  0.36113  0.47676  1.0000
  H   H59       1.0  0.46199  0.42185  0.48209  1.0000
  H   H60       1.0  0.44680  0.42970  0.64423  1.0000
  H   H61       1.0  0.48579  0.42974  0.64423  1.0000
  H   H62       1.0  0.43725  0.37116  0.62188  1.0000
  C   C74       1.0  0.25834  0.07698  0.34158  1.0000
  C   C75       1.0  0.27468  0.07734  0.42263  1.0000
  C   C76       1.0  0.30581  0.07741  0.42232  1.0000
  C   C77       1.0  0.32169  0.07737  0.34076  1.0000
  N   N9        1.0  0.32128  0.08054  0.50245  1.0000
  C   C78       1.0  0.30884  0.08324  0.58284  1.0000
  C   C79       1.0  0.27802  0.08364  0.58290  1.0000
  N   N10       1.0  0.26271  0.08085  0.50284  1.0000
  C   C80       1.0  0.32786  0.08477  0.66441  1.0000
  H   H63       1.0  0.35065  0.08382  0.64805  1.0000
  C   C81       1.0  0.26109  0.08748  0.66255  1.0000
  H   H64       1.0  0.25491  0.10727  0.65057  1.0000
  C   C82       1.0  0.42732  0.18293  0.34119  1.0000
  C   C83       1.0  0.42685  0.19884  0.42229  1.0000
  C   C84       1.0  0.42676  0.22988  0.42188  1.0000
  C   C85       1.0  0.42690  0.24581  0.34020  1.0000
  N   N11       1.0  0.42360  0.24221  0.50199  1.0000
  C   C86       1.0  0.42087  0.22709  0.58241  1.0000
  C   C87       1.0  0.42049  0.19589  0.58256  1.0000
  N   N12       1.0  0.42331  0.18337  0.50254  1.0000
  C   C88       1.0  0.41933  0.24460  0.66392  1.0000
  H   H65       1.0  0.42025  0.26830  0.64749  1.0000
  C   C89       1.0  0.41666  0.17516  0.66228  1.0000
  H   H66       1.0  0.39683  0.14920  0.65039  1.0000
  C   C90       1.0  0.32129  0.24589  0.34176  1.0000
  C   C91       1.0  0.30531  0.22956  0.42276  1.0000
  C   C92       1.0  0.27426  0.19844  0.42231  1.0000
  C   C93       1.0  0.25838  0.18259  0.34068  1.0000
  N   N13       1.0  0.26190  0.18295  0.50239  1.0000
  C   C94       1.0  0.27700  0.19535  0.58284  1.0000
  C   C95       1.0  0.30820  0.22617  0.58302  1.0000
  N   N14       1.0  0.32076  0.24150  0.50302  1.0000
  C   C96       1.0  0.25948  0.17629  0.66432  1.0000
  H   H67       1.0  0.23576  0.15352  0.64787  1.0000
  C   C97       1.0  0.32892  0.24305  0.66275  1.0000
  H   H68       1.0  0.35491  0.24925  0.65086  1.0000
  H   H69       1.0  0.16413  0.56375  0.01385  1.0000
  H   H70       1.0  0.16438  0.60271  0.01520  1.0000
  C   C98       1.0  0.42975  0.57477  0.33664  1.0000
  C   C99       1.0  0.43935  0.56505  0.25687  1.0000
  C   C100      1.0  0.45729  0.54700  0.25913  1.0000
  C   C101      1.0  0.46617  0.53808  0.34158  1.0000
  N   N15       1.0  0.46558  0.53866  0.17951  1.0000
  C   C102      1.0  0.45791  0.54638  0.09808  1.0000
  C   C103      1.0  0.44004  0.56435  0.09628  1.0000
  N   N16       1.0  0.43170  0.57273  0.17562  1.0000
  C   C104      1.0  0.46875  0.53547  0.01757  1.0000
  H   H71       1.0  0.48205  0.52206  0.03559  1.0000
  C   C105      1.0  0.42941  0.57502  0.01534  1.0000
  H   H72       1.0  0.44082  0.60242  0.01473  1.0000
  H   H73       1.0  0.40200  0.56356  0.01456  1.0000
  C   C106      1.0  0.42947  0.85644  0.33666  1.0000
  C   C107      1.0  0.43923  0.87576  0.25689  1.0000
  C   C108      1.0  0.45722  0.91173  0.25916  1.0000
  C   C109      1.0  0.46605  0.92953  0.34161  1.0000
  N   N17       1.0  0.46558  0.92837  0.17955  1.0000
  C   C110      1.0  0.45793  0.91299  0.09811  1.0000
  C   C111      1.0  0.44003  0.87716  0.09631  1.0000
  N   N18       1.0  0.43162  0.86044  0.17564  1.0000
  C   C112      1.0  0.46880  0.93473  0.01761  1.0000
  H   H74       1.0  0.48213  0.96143  0.03564  1.0000
  C   C113      1.0  0.42946  0.85588  0.01536  1.0000
  H   H75       1.0  0.40204  0.83995  0.01437  1.0000
  H   H76       1.0  0.44085  0.83986  0.01494  1.0000
  C   C114      1.0  0.30441  0.57527  0.26016  1.0000
  C   C115      1.0  0.27334  0.57485  0.26077  1.0000
  H   H77       1.0  0.26380  0.57722  0.20115  1.0000
  H   H78       1.0  0.31635  0.57837  0.20007  1.0000
  H   H79       1.0  0.31205  0.56326  0.04061  1.0000
  H   H80       1.0  0.33531  0.60813  0.03419  1.0000
  H   H81       1.0  0.27702  0.59444  0.05508  1.0000
  H   H82       1.0  0.23780  0.56386  0.00889  1.0000
  C   C116      1.0  0.42914  0.73069  0.25973  1.0000
  C   C117      1.0  0.42958  0.70007  0.26036  1.0000
  H   H83       1.0  0.42741  0.68820  0.20079  1.0000
  H   H84       1.0  0.42620  0.73960  0.19958  1.0000
  H   H85       1.0  0.44087  0.75034  0.04012  1.0000
  H   H86       1.0  0.39598  0.72869  0.03374  1.0000
  H   H87       1.0  0.40973  0.68416  0.05482  1.0000
  H   H88       1.0  0.44028  0.67547  0.00857  1.0000
  C   C118      1.0  0.27362  0.69988  0.26014  1.0000
  C   C119      1.0  0.30425  0.73094  0.26083  1.0000
  H   H89       1.0  0.31619  0.74050  0.20127  1.0000
  H   H90       1.0  0.26482  0.68796  0.20001  1.0000
  H   H91       1.0  0.25374  0.69207  0.04057  1.0000
  H   H92       1.0  0.27539  0.66884  0.03410  1.0000
  H   H93       1.0  0.31994  0.72710  0.05522  1.0000
  H   H94       1.0  0.32855  0.76632  0.00914  1.0000
  C   C120      1.0  0.48425  0.51993  0.34521  1.0000
  C   C121      1.0  0.46678  0.98414  0.34490  1.0000
  C   C122      1.0  0.48420  0.96575  0.34525  1.0000
  H   H95       1.0  0.44093  0.97124  0.34350  1.0000
  C   C123      1.0  0.23800  0.59262  0.33850  1.0000
  C   C124      1.0  0.25525  0.62823  0.33833  1.0000
  C   C125      1.0  0.23803  0.64663  0.33738  1.0000
  C   C126      1.0  0.20228  0.62851  0.33652  1.0000
  C   C127      1.0  0.18398  0.59263  0.33637  1.0000
  C   C128      1.0  0.20226  0.57503  0.33752  1.0000
  H   H96       1.0  0.18952  0.64158  0.33674  1.0000
  H   H97       1.0  0.18948  0.54920  0.33821  1.0000
  H   H98       1.0  0.28118  0.64118  0.33976  1.0000
  C   C129      1.0  0.41170  0.64695  0.33850  1.0000
  C   C130      1.0  0.37607  0.62859  0.33834  1.0000
  C   C131      1.0  0.35766  0.59298  0.33751  1.0000
  C   C132      1.0  0.37578  0.57536  0.33675  1.0000
  C   C133      1.0  0.41167  0.59292  0.33649  1.0000
  C   C134      1.0  0.42929  0.62880  0.33748  1.0000
  H   H99       1.0  0.36269  0.54953  0.33702  1.0000
  H   H100      1.0  0.45513  0.64184  0.33804  1.0000
  H   H101      1.0  0.36311  0.64156  0.33968  1.0000
  C   C135      1.0  0.35729  0.76623  0.33864  1.0000
  C   C136      1.0  0.37566  0.74898  0.33834  1.0000
  C   C137      1.0  0.41129  0.76618  0.33737  1.0000
  C   C138      1.0  0.42891  0.80191  0.33651  1.0000
  C   C139      1.0  0.41133  0.82022  0.33650  1.0000
  C   C140      1.0  0.37544  0.80196  0.33774  1.0000
  H   H102      1.0  0.45475  0.81466  0.33656  1.0000
  H   H103      1.0  0.36238  0.81474  0.33852  1.0000
  H   H104      1.0  0.36269  0.72306  0.33968  1.0000
  C   C141      1.0  0.45649  0.54786  0.42115  1.0000
  C   C142      1.0  0.43871  0.56578  0.41838  1.0000
  H   H105      1.0  0.43211  0.57244  0.47674  1.0000
  H   H106      1.0  0.46238  0.54197  0.48206  1.0000
  H   H107      1.0  0.48576  0.55743  0.64421  1.0000
  H   H108      1.0  0.44675  0.51854  0.64418  1.0000
  H   H109      1.0  0.43710  0.56742  0.62186  1.0000
  C   C143      1.0  0.45619  0.91007  0.42118  1.0000
  C   C144      1.0  0.43830  0.87439  0.41841  1.0000
  H   H110      1.0  0.43153  0.86113  0.47676  1.0000
  H   H111      1.0  0.46199  0.92185  0.48209  1.0000
  H   H112      1.0  0.44680  0.92970  0.64423  1.0000
  H   H113      1.0  0.48579  0.92974  0.64423  1.0000
  H   H114      1.0  0.43724  0.87116  0.62188  1.0000
  C   C145      1.0  0.25834  0.57698  0.34158  1.0000
  C   C146      1.0  0.27468  0.57734  0.42263  1.0000
  C   C147      1.0  0.30581  0.57741  0.42232  1.0000
  C   C148      1.0  0.32169  0.57737  0.34076  1.0000
  N   N19       1.0  0.32128  0.58054  0.50245  1.0000
  C   C149      1.0  0.30884  0.58324  0.58284  1.0000
  C   C150      1.0  0.27802  0.58364  0.58290  1.0000
  N   N20       1.0  0.26271  0.58085  0.50284  1.0000
  C   C151      1.0  0.32787  0.58477  0.66441  1.0000
  H   H115      1.0  0.35065  0.58382  0.64805  1.0000
  C   C152      1.0  0.26109  0.58748  0.66255  1.0000
  H   H116      1.0  0.25491  0.60727  0.65057  1.0000
  C   C153      1.0  0.42732  0.68293  0.34119  1.0000
  C   C154      1.0  0.42685  0.69883  0.42229  1.0000
  C   C155      1.0  0.42677  0.72988  0.42188  1.0000
  C   C156      1.0  0.42690  0.74581  0.34020  1.0000
  N   N21       1.0  0.42361  0.74221  0.50199  1.0000
  C   C157      1.0  0.42088  0.72709  0.58241  1.0000
  C   C158      1.0  0.42049  0.69589  0.58256  1.0000
  N   N22       1.0  0.42331  0.68337  0.50254  1.0000
  C   C159      1.0  0.41934  0.74460  0.66392  1.0000
  H   H117      1.0  0.42025  0.76830  0.64749  1.0000
  C   C160      1.0  0.41666  0.67516  0.66228  1.0000
  H   H118      1.0  0.39683  0.64920  0.65039  1.0000
  C   C161      1.0  0.32130  0.74590  0.34176  1.0000
  C   C162      1.0  0.30531  0.72956  0.42276  1.0000
  C   C163      1.0  0.27426  0.69844  0.42231  1.0000
  C   C164      1.0  0.25839  0.68259  0.34068  1.0000
  N   N23       1.0  0.26190  0.68295  0.50239  1.0000
  C   C165      1.0  0.27700  0.69535  0.58284  1.0000
  C   C166      1.0  0.30820  0.72616  0.58302  1.0000
  N   N24       1.0  0.32076  0.74150  0.50302  1.0000
  C   C167      1.0  0.25948  0.67629  0.66432  1.0000
  H   H119      1.0  0.23576  0.65352  0.64787  1.0000
  C   C168      1.0  0.32892  0.74305  0.66275  1.0000
  H   H120      1.0  0.35491  0.74925  0.65086  1.0000
  C   C169      1.0  0.64774  0.07452  0.33655  1.0000
  C   C170      1.0  0.62841  0.06500  0.25679  1.0000
  C   C171      1.0  0.59242  0.04699  0.25908  1.0000
  C   C172      1.0  0.57463  0.03795  0.34155  1.0000
  N   N25       1.0  0.57577  0.03873  0.17948  1.0000
  C   C173      1.0  0.59115  0.04652  0.09804  1.0000
  C   C174      1.0  0.62700  0.06450  0.09620  1.0000
  N   N26       1.0  0.64373  0.07278  0.17553  1.0000
  C   C175      1.0  0.56939  0.03561  0.01755  1.0000
  H   H121      1.0  0.54268  0.02218  0.03560  1.0000
  C   C176      1.0  0.64828  0.07532  0.01524  1.0000
  H   H122      1.0  0.66413  0.06375  0.01385  1.0000
  H   H123      1.0  0.66438  0.10271  0.01520  1.0000
  C   C177      1.0  0.92975  0.07477  0.33664  1.0000
  C   C178      1.0  0.93935  0.06505  0.25687  1.0000
  C   C179      1.0  0.95729  0.04700  0.25913  1.0000
  C   C180      1.0  0.96617  0.03808  0.34158  1.0000
  N   N27       1.0  0.96558  0.03866  0.17951  1.0000
  C   C181      1.0  0.95791  0.04637  0.09808  1.0000
  C   C182      1.0  0.94004  0.06435  0.09628  1.0000
  N   N28       1.0  0.93170  0.07273  0.17562  1.0000
  C   C183      1.0  0.96875  0.03547  0.01757  1.0000
  H   H124      1.0  0.98205  0.02206  0.03559  1.0000
  C   C184      1.0  0.92941  0.07501  0.01534  1.0000
  H   H125      1.0  0.94082  0.10242  0.01473  1.0000
  H   H126      1.0  0.90200  0.06356  0.01456  1.0000
  C   C185      1.0  0.92947  0.35644  0.33666  1.0000
  C   C186      1.0  0.93923  0.37576  0.25689  1.0000
  C   C187      1.0  0.95722  0.41173  0.25916  1.0000
  C   C188      1.0  0.96605  0.42953  0.34161  1.0000
  N   N29       1.0  0.96558  0.42836  0.17955  1.0000
  C   C189      1.0  0.95793  0.41299  0.09811  1.0000
  C   C190      1.0  0.94003  0.37716  0.09631  1.0000
  N   N30       1.0  0.93161  0.36044  0.17564  1.0000
  C   C191      1.0  0.96880  0.43473  0.01761  1.0000
  H   H127      1.0  0.98213  0.46143  0.03564  1.0000
  C   C192      1.0  0.92946  0.35588  0.01536  1.0000
  H   H128      1.0  0.90204  0.33995  0.01437  1.0000
  H   H129      1.0  0.94085  0.33986  0.01494  1.0000
  C   C193      1.0  0.80441  0.07527  0.26016  1.0000
  C   C194      1.0  0.77334  0.07485  0.26077  1.0000
  H   H130      1.0  0.76380  0.07722  0.20115  1.0000
  H   H131      1.0  0.81635  0.07837  0.20007  1.0000
  H   H132      1.0  0.81205  0.06325  0.04061  1.0000
  H   H133      1.0  0.83531  0.10813  0.03419  1.0000
  H   H134      1.0  0.77702  0.09444  0.05508  1.0000
  H   H135      1.0  0.73780  0.06386  0.00889  1.0000
  C   C195      1.0  0.92914  0.23069  0.25973  1.0000
  C   C196      1.0  0.92958  0.20007  0.26036  1.0000
  H   H136      1.0  0.92741  0.18820  0.20079  1.0000
  H   H137      1.0  0.92620  0.23960  0.19958  1.0000
  H   H138      1.0  0.94087  0.25034  0.04012  1.0000
  H   H139      1.0  0.89598  0.22868  0.03374  1.0000
  H   H140      1.0  0.90973  0.18416  0.05482  1.0000
  H   H141      1.0  0.94028  0.17547  0.00857  1.0000
  C   C197      1.0  0.77361  0.19988  0.26014  1.0000
  C   C198      1.0  0.80425  0.23094  0.26083  1.0000
  H   H142      1.0  0.81619  0.24050  0.20127  1.0000
  H   H143      1.0  0.76482  0.18796  0.20001  1.0000
  H   H144      1.0  0.75374  0.19207  0.04057  1.0000
  H   H145      1.0  0.77539  0.16884  0.03410  1.0000
  H   H146      1.0  0.81994  0.22710  0.05522  1.0000
  H   H147      1.0  0.82855  0.26632  0.00914  1.0000
  C   C199      1.0  0.53839  0.01986  0.34521  1.0000
  C   C200      1.0  0.52005  0.03732  0.34482  1.0000
  C   C201      1.0  0.98425  0.01993  0.34521  1.0000
  C   C202      1.0  0.96678  0.48414  0.34490  1.0000
  C   C203      1.0  0.98420  0.46575  0.34525  1.0000
  C   C204      1.0  0.52000  0.48407  0.34492  1.0000
  H   H148      1.0  0.94093  0.47124  0.34350  1.0000
  H   H149      1.0  0.53291  0.47113  0.34349  1.0000
  H   H150      1.0  0.53300  0.06316  0.34339  1.0000
  C   C205      1.0  0.73800  0.09262  0.33850  1.0000
  C   C206      1.0  0.75525  0.12823  0.33833  1.0000
  C   C207      1.0  0.73803  0.14663  0.33738  1.0000
  C   C208      1.0  0.70228  0.12851  0.33652  1.0000
  C   C209      1.0  0.68398  0.09263  0.33637  1.0000
  C   C210      1.0  0.70226  0.07503  0.33752  1.0000
  H   H151      1.0  0.68952  0.14158  0.33674  1.0000
  H   H152      1.0  0.68949  0.04920  0.33821  1.0000
  H   H153      1.0  0.78118  0.14118  0.33976  1.0000
  C   C211      1.0  0.91170  0.14695  0.33850  1.0000
  C   C212      1.0  0.87607  0.12859  0.33834  1.0000
  C   C213      1.0  0.85766  0.09298  0.33751  1.0000
  C   C214      1.0  0.87578  0.07536  0.33675  1.0000
  C   C215      1.0  0.91167  0.09292  0.33649  1.0000
  C   C216      1.0  0.92929  0.12880  0.33748  1.0000
  H   H154      1.0  0.86269  0.04953  0.33702  1.0000
  H   H155      1.0  0.95513  0.14184  0.33804  1.0000
  H   H156      1.0  0.86311  0.14156  0.33968  1.0000
  C   C217      1.0  0.85728  0.26623  0.33864  1.0000
  C   C218      1.0  0.87566  0.24898  0.33834  1.0000
  C   C219      1.0  0.91129  0.26618  0.33737  1.0000
  C   C220      1.0  0.92891  0.30191  0.33651  1.0000
  C   C221      1.0  0.91133  0.32022  0.33650  1.0000
  C   C222      1.0  0.87544  0.30196  0.33774  1.0000
  H   H157      1.0  0.95475  0.31465  0.33656  1.0000
  H   H158      1.0  0.86238  0.31474  0.33852  1.0000
  H   H159      1.0  0.86269  0.22306  0.33968  1.0000
  C   C223      1.0  0.59410  0.04748  0.42110  1.0000
  C   C224      1.0  0.62980  0.06530  0.41831  1.0000
  H   H160      1.0  0.64307  0.07169  0.47666  1.0000
  H   H161      1.0  0.58232  0.04143  0.48202  1.0000
  H   H162      1.0  0.57448  0.01870  0.64414  1.0000
  H   H163      1.0  0.57431  0.05757  0.64420  1.0000
  H   H164      1.0  0.63299  0.06801  0.62176  1.0000
  C   C225      1.0  0.95649  0.04786  0.42115  1.0000
  C   C226      1.0  0.93871  0.06578  0.41838  1.0000
  H   H165      1.0  0.93211  0.07244  0.47674  1.0000
  H   H166      1.0  0.96238  0.04196  0.48206  1.0000
  H   H167      1.0  0.98576  0.05743  0.64421  1.0000
  H   H168      1.0  0.94675  0.01854  0.64418  1.0000
  H   H169      1.0  0.93710  0.06742  0.62186  1.0000
  C   C227      1.0  0.95619  0.41007  0.42118  1.0000
  C   C228      1.0  0.93830  0.37439  0.41841  1.0000
  H   H170      1.0  0.93153  0.36113  0.47676  1.0000
  H   H171      1.0  0.96200  0.42185  0.48209  1.0000
  H   H172      1.0  0.94680  0.42970  0.64423  1.0000
  H   H173      1.0  0.98579  0.42974  0.64423  1.0000
  H   H174      1.0  0.93724  0.37116  0.62188  1.0000
  C   C229      1.0  0.75834  0.07698  0.34158  1.0000
  C   C230      1.0  0.77468  0.07734  0.42263  1.0000
  C   C231      1.0  0.80582  0.07741  0.42232  1.0000
  C   C232      1.0  0.82169  0.07737  0.34076  1.0000
  N   N31       1.0  0.82128  0.08054  0.50245  1.0000
  C   C233      1.0  0.80884  0.08324  0.58284  1.0000
  C   C234      1.0  0.77802  0.08364  0.58290  1.0000
  N   N32       1.0  0.76271  0.08085  0.50284  1.0000
  C   C235      1.0  0.82787  0.08477  0.66441  1.0000
  H   H175      1.0  0.85065  0.08382  0.64805  1.0000
  C   C236      1.0  0.76109  0.08748  0.66255  1.0000
  H   H176      1.0  0.75491  0.10727  0.65057  1.0000
  C   C237      1.0  0.92732  0.18293  0.34119  1.0000
  C   C238      1.0  0.92685  0.19884  0.42229  1.0000
  C   C239      1.0  0.92676  0.22988  0.42188  1.0000
  C   C240      1.0  0.92690  0.24581  0.34020  1.0000
  N   N33       1.0  0.92360  0.24221  0.50199  1.0000
  C   C241      1.0  0.92088  0.22709  0.58241  1.0000
  C   C242      1.0  0.92049  0.19589  0.58256  1.0000
  N   N34       1.0  0.92331  0.18337  0.50254  1.0000
  C   C243      1.0  0.91933  0.24460  0.66392  1.0000
  H   H177      1.0  0.92025  0.26830  0.64749  1.0000
  C   C244      1.0  0.91666  0.17516  0.66228  1.0000
  H   H178      1.0  0.89683  0.14920  0.65039  1.0000
  C   C245      1.0  0.82130  0.24589  0.34176  1.0000
  C   C246      1.0  0.80531  0.22956  0.42276  1.0000
  C   C247      1.0  0.77426  0.19844  0.42231  1.0000
  C   C248      1.0  0.75839  0.18259  0.34068  1.0000
  N   N35       1.0  0.76190  0.18295  0.50239  1.0000
  C   C249      1.0  0.77700  0.19535  0.58284  1.0000
  C   C250      1.0  0.80820  0.22617  0.58302  1.0000
  N   N36       1.0  0.82076  0.24150  0.50302  1.0000
  C   C251      1.0  0.75948  0.17629  0.66432  1.0000
  H   H179      1.0  0.73576  0.15352  0.64787  1.0000
  C   C252      1.0  0.82892  0.24305  0.66275  1.0000
  H   H180      1.0  0.85491  0.24925  0.65086  1.0000
  C   C253      1.0  0.64774  0.57452  0.33655  1.0000
  C   C254      1.0  0.62841  0.56500  0.25679  1.0000
  C   C255      1.0  0.59243  0.54699  0.25908  1.0000
  C   C256      1.0  0.57463  0.53795  0.34155  1.0000
  N   N37       1.0  0.57578  0.53873  0.17948  1.0000
  C   C257      1.0  0.59115  0.54652  0.09804  1.0000
  C   C258      1.0  0.62700  0.56450  0.09620  1.0000
  N   N38       1.0  0.64374  0.57278  0.17553  1.0000
  C   C259      1.0  0.56939  0.53561  0.01755  1.0000
  H   H181      1.0  0.54268  0.52218  0.03560  1.0000
  C   C260      1.0  0.64828  0.57532  0.01524  1.0000
  H   H182      1.0  0.66414  0.56375  0.01385  1.0000
  H   H183      1.0  0.66438  0.60271  0.01520  1.0000
  C   C261      1.0  0.92975  0.57477  0.33664  1.0000
  C   C262      1.0  0.93935  0.56505  0.25687  1.0000
  C   C263      1.0  0.95729  0.54700  0.25913  1.0000
  C   C264      1.0  0.96617  0.53808  0.34158  1.0000
  N   N39       1.0  0.96558  0.53866  0.17951  1.0000
  C   C265      1.0  0.95791  0.54638  0.09808  1.0000
  C   C266      1.0  0.94004  0.56435  0.09628  1.0000
  N   N40       1.0  0.93170  0.57273  0.17562  1.0000
  C   C267      1.0  0.96875  0.53547  0.01757  1.0000
  H   H184      1.0  0.98205  0.52206  0.03559  1.0000
  C   C268      1.0  0.92942  0.57502  0.01534  1.0000
  H   H185      1.0  0.94082  0.60242  0.01473  1.0000
  H   H186      1.0  0.90199  0.56356  0.01456  1.0000
  C   C269      1.0  0.92947  0.85644  0.33666  1.0000
  C   C270      1.0  0.93923  0.87576  0.25689  1.0000
  C   C271      1.0  0.95722  0.91173  0.25916  1.0000
  C   C272      1.0  0.96605  0.92953  0.34161  1.0000
  N   N41       1.0  0.96558  0.92837  0.17955  1.0000
  C   C273      1.0  0.95793  0.91299  0.09811  1.0000
  C   C274      1.0  0.94003  0.87716  0.09631  1.0000
  N   N42       1.0  0.93161  0.86044  0.17564  1.0000
  C   C275      1.0  0.96880  0.93473  0.01761  1.0000
  H   H187      1.0  0.98213  0.96143  0.03564  1.0000
  C   C276      1.0  0.92946  0.85588  0.01536  1.0000
  H   H188      1.0  0.90205  0.83995  0.01437  1.0000
  H   H189      1.0  0.94085  0.83986  0.01494  1.0000
  C   C277      1.0  0.80441  0.57527  0.26016  1.0000
  C   C278      1.0  0.77334  0.57485  0.26077  1.0000
  H   H190      1.0  0.76380  0.57722  0.20115  1.0000
  H   H191      1.0  0.81635  0.57837  0.20007  1.0000
  H   H192      1.0  0.81205  0.56326  0.04061  1.0000
  H   H193      1.0  0.83531  0.60813  0.03419  1.0000
  H   H194      1.0  0.77702  0.59444  0.05508  1.0000
  H   H195      1.0  0.73780  0.56386  0.00889  1.0000
  C   C279      1.0  0.92915  0.73069  0.25973  1.0000
  C   C280      1.0  0.92958  0.70007  0.26036  1.0000
  H   H196      1.0  0.92741  0.68820  0.20079  1.0000
  H   H197      1.0  0.92621  0.73960  0.19958  1.0000
  H   H198      1.0  0.94087  0.75034  0.04012  1.0000
  H   H199      1.0  0.89598  0.72869  0.03374  1.0000
  H   H200      1.0  0.90973  0.68416  0.05482  1.0000
  H   H201      1.0  0.94028  0.67547  0.00857  1.0000
  C   C281      1.0  0.77362  0.69988  0.26014  1.0000
  C   C282      1.0  0.80425  0.73094  0.26083  1.0000
  H   H202      1.0  0.81619  0.74050  0.20127  1.0000
  H   H203      1.0  0.76482  0.68796  0.20001  1.0000
  H   H204      1.0  0.75374  0.69207  0.04057  1.0000
  H   H205      1.0  0.77539  0.66884  0.03410  1.0000
  H   H206      1.0  0.81994  0.72710  0.05522  1.0000
  H   H207      1.0  0.82855  0.76632  0.00914  1.0000
  C   C283      1.0  0.53839  0.51986  0.34521  1.0000
  C   C284      1.0  0.52005  0.53733  0.34482  1.0000
  C   C285      1.0  0.98425  0.51993  0.34521  1.0000
  C   C286      1.0  0.96679  0.98414  0.34490  1.0000
  C   C287      1.0  0.98420  0.96575  0.34525  1.0000
  C   C288      1.0  0.52000  0.98408  0.34492  1.0000
  H   H208      1.0  0.94093  0.97124  0.34350  1.0000
  H   H209      1.0  0.53291  0.97113  0.34349  1.0000
  H   H210      1.0  0.53300  0.56317  0.34339  1.0000
  C   C289      1.0  0.73800  0.59262  0.33850  1.0000
  C   C290      1.0  0.75525  0.62823  0.33833  1.0000
  C   C291      1.0  0.73803  0.64663  0.33738  1.0000
  C   C292      1.0  0.70228  0.62851  0.33652  1.0000
  C   C293      1.0  0.68398  0.59263  0.33637  1.0000
  C   C294      1.0  0.70226  0.57503  0.33752  1.0000
  H   H211      1.0  0.68952  0.64158  0.33674  1.0000
  H   H212      1.0  0.68949  0.54920  0.33821  1.0000
  H   H213      1.0  0.78118  0.64118  0.33976  1.0000
  C   C295      1.0  0.91170  0.64695  0.33850  1.0000
  C   C296      1.0  0.87607  0.62859  0.33834  1.0000
  C   C297      1.0  0.85766  0.59298  0.33751  1.0000
  C   C298      1.0  0.87578  0.57536  0.33675  1.0000
  C   C299      1.0  0.91167  0.59292  0.33649  1.0000
  C   C300      1.0  0.92929  0.62880  0.33748  1.0000
  H   H214      1.0  0.86269  0.54953  0.33702  1.0000
  H   H215      1.0  0.95513  0.64184  0.33804  1.0000
  H   H216      1.0  0.86311  0.64156  0.33968  1.0000
  C   C301      1.0  0.85729  0.76623  0.33864  1.0000
  C   C302      1.0  0.87566  0.74898  0.33834  1.0000
  C   C303      1.0  0.91129  0.76618  0.33737  1.0000
  C   C304      1.0  0.92891  0.80191  0.33651  1.0000
  C   C305      1.0  0.91133  0.82022  0.33650  1.0000
  C   C306      1.0  0.87544  0.80196  0.33774  1.0000
  H   H217      1.0  0.95475  0.81466  0.33656  1.0000
  H   H218      1.0  0.86238  0.81474  0.33852  1.0000
  H   H219      1.0  0.86269  0.72306  0.33968  1.0000
  C   C307      1.0  0.59410  0.54748  0.42110  1.0000
  C   C308      1.0  0.62980  0.56530  0.41831  1.0000
  H   H220      1.0  0.64307  0.57169  0.47666  1.0000
  H   H221      1.0  0.58232  0.54143  0.48202  1.0000
  H   H222      1.0  0.57448  0.51870  0.64414  1.0000
  H   H223      1.0  0.57432  0.55757  0.64420  1.0000
  H   H224      1.0  0.63299  0.56801  0.62176  1.0000
  C   C309      1.0  0.95649  0.54786  0.42115  1.0000
  C   C310      1.0  0.93871  0.56578  0.41838  1.0000
  H   H225      1.0  0.93211  0.57244  0.47674  1.0000
  H   H226      1.0  0.96238  0.54197  0.48206  1.0000
  H   H227      1.0  0.98576  0.55743  0.64421  1.0000
  H   H228      1.0  0.94675  0.51854  0.64418  1.0000
  H   H229      1.0  0.93710  0.56742  0.62186  1.0000
  C   C311      1.0  0.95619  0.91007  0.42118  1.0000
  C   C312      1.0  0.93830  0.87439  0.41841  1.0000
  H   H230      1.0  0.93153  0.86113  0.47676  1.0000
  H   H231      1.0  0.96200  0.92185  0.48209  1.0000
  H   H232      1.0  0.94680  0.92970  0.64423  1.0000
  H   H233      1.0  0.98579  0.92974  0.64423  1.0000
  H   H234      1.0  0.93725  0.87116  0.62188  1.0000
  C   C313      1.0  0.75835  0.57698  0.34158  1.0000
  C   C314      1.0  0.77468  0.57734  0.42263  1.0000
  C   C315      1.0  0.80582  0.57741  0.42232  1.0000
  C   C316      1.0  0.82169  0.57737  0.34076  1.0000
  N   N43       1.0  0.82128  0.58054  0.50245  1.0000
  C   C317      1.0  0.80884  0.58324  0.58284  1.0000
  C   C318      1.0  0.77802  0.58364  0.58290  1.0000
  N   N44       1.0  0.76271  0.58085  0.50284  1.0000
  C   C319      1.0  0.82787  0.58477  0.66441  1.0000
  H   H235      1.0  0.85065  0.58382  0.64805  1.0000
  C   C320      1.0  0.76109  0.58748  0.66255  1.0000
  H   H236      1.0  0.75491  0.60727  0.65057  1.0000
  C   C321      1.0  0.92732  0.68293  0.34119  1.0000
  C   C322      1.0  0.92685  0.69883  0.42229  1.0000
  C   C323      1.0  0.92677  0.72988  0.42188  1.0000
  C   C324      1.0  0.92690  0.74581  0.34020  1.0000
  N   N45       1.0  0.92361  0.74221  0.50199  1.0000
  C   C325      1.0  0.92088  0.72709  0.58241  1.0000
  C   C326      1.0  0.92049  0.69589  0.58256  1.0000
  N   N46       1.0  0.92331  0.68337  0.50254  1.0000
  C   C327      1.0  0.91934  0.74460  0.66392  1.0000
  H   H237      1.0  0.92025  0.76830  0.64749  1.0000
  C   C328      1.0  0.91666  0.67516  0.66228  1.0000
  H   H238      1.0  0.89683  0.64920  0.65039  1.0000
  C   C329      1.0  0.82130  0.74590  0.34176  1.0000
  C   C330      1.0  0.80531  0.72956  0.42276  1.0000
  C   C331      1.0  0.77426  0.69844  0.42231  1.0000
  C   C332      1.0  0.75839  0.68259  0.34068  1.0000
  N   N47       1.0  0.76190  0.68295  0.50239  1.0000
  C   C333      1.0  0.77700  0.69535  0.58284  1.0000
  C   C334      1.0  0.80820  0.72616  0.58302  1.0000
  N   N48       1.0  0.82076  0.74150  0.50302  1.0000
  C   C335      1.0  0.75948  0.67629  0.66432  1.0000
  H   H239      1.0  0.73576  0.65352  0.64787  1.0000
  C   C336      1.0  0.82892  0.74305  0.66275  1.0000
  H   H240      1.0  0.85491  0.74925  0.65086  1.0000
