data_image0
_chemical_formula_structural       C2NC2H3CH3CH3C2NC2H3CH3CH3C2NC2H3CH3CH3CNCHOHCNCHOHCNCHOHNC18H12NC18H12NC18H12NC18H12CNCOHCNCOHCNCOHC2NC2H2CH3CH3C2NC2H2CH3CH3C2NC2H2CH3CH3
_chemical_formula_sum              "C120 N16 H108 O6"
_cell_length_a       38.7783
_cell_length_b       38.7784
_cell_length_c       14.7869
_cell_angle_alpha    90
_cell_angle_beta     90
_cell_angle_gamma    120

_space_group_name_H-M_alt    "P 1"
_space_group_IT_number       1

loop_
  _space_group_symop_operation_xyz
  'x, y, z'

loop_
  _atom_site_type_symbol
  _atom_site_label
  _atom_site_symmetry_multiplicity
  _atom_site_fract_x
  _atom_site_fract_y
  _atom_site_fract_z
  _atom_site_occupancy
  C   C1        1.0  0.23729  0.13807  0.26679  1.0000
  C   C2        1.0  0.26137  0.13001  0.32732  1.0000
  N   N1        1.0  0.19684  0.11499  0.27686  1.0000
  C   C3        1.0  0.25130  0.16975  0.19286  1.0000
  C   C4        1.0  0.21600  0.17439  0.15368  1.0000
  H   H1        1.0  0.19332  0.14669  0.12250  1.0000
  H   H2        1.0  0.22625  0.19756  0.10194  1.0000
  H   H3        1.0  0.20181  0.18234  0.20727  1.0000
  C   C5        1.0  0.26886  0.15803  0.11090  1.0000
  H   H4        1.0  0.24860  0.12732  0.09007  1.0000
  H   H5        1.0  0.29750  0.16094  0.12686  1.0000
  H   H6        1.0  0.27377  0.17734  0.05274  1.0000
  C   C6        1.0  0.28277  0.21192  0.22911  1.0000
  H   H7        1.0  0.27217  0.21885  0.29118  1.0000
  H   H8        1.0  0.28869  0.23515  0.17959  1.0000
  H   H9        1.0  0.31131  0.21400  0.24305  1.0000
  C   C7        1.0  0.86956  0.10368  0.26438  1.0000
  C   C8        1.0  0.87692  0.13517  0.32629  1.0000
  N   N2        1.0  0.89248  0.08616  0.27497  1.0000
  C   C9        1.0  0.83866  0.08671  0.18872  1.0000
  C   C10       1.0  0.83468  0.04733  0.14771  1.0000
  H   H10       1.0  0.86275  0.05288  0.11757  1.0000
  H   H11       1.0  0.81202  0.03486  0.09474  1.0000
  H   H12       1.0  0.82633  0.02461  0.20006  1.0000
  C   C11       1.0  0.85096  0.11684  0.10831  1.0000
  H   H13       1.0  0.88202  0.12802  0.08941  1.0000
  H   H14       1.0  0.84728  0.14206  0.12488  1.0000
  H   H15       1.0  0.83253  0.10290  0.04871  1.0000
  C   C12       1.0  0.79608  0.07536  0.22332  1.0000
  H   H16       1.0  0.78859  0.05700  0.28416  1.0000
  H   H17       1.0  0.77340  0.05867  0.17224  1.0000
  H   H18       1.0  0.79373  0.10154  0.23879  1.0000
  C   C13       1.0  0.90358  0.76940  0.26514  1.0000
  C   C14       1.0  0.87165  0.74527  0.32610  1.0000
  N   N3        1.0  0.92098  0.80984  0.27549  1.0000
  C   C15       1.0  0.92106  0.75545  0.19066  1.0000
  C   C16       1.0  0.96073  0.79084  0.15068  1.0000
  H   H19       1.0  0.95540  0.81337  0.11976  1.0000
  H   H20       1.0  0.97354  0.78064  0.09853  1.0000
  H   H21       1.0  0.98309  0.80520  0.20376  1.0000
  C   C17       1.0  0.89147  0.73762  0.10930  1.0000
  H   H22       1.0  0.88058  0.75760  0.08913  1.0000
  H   H23       1.0  0.86603  0.70882  0.12555  1.0000
  H   H24       1.0  0.90577  0.73295  0.05061  1.0000
  C   C18       1.0  0.93216  0.72421  0.22655  1.0000
  H   H25       1.0  0.95003  0.73505  0.28809  1.0000
  H   H26       1.0  0.94926  0.71827  0.17649  1.0000
  H   H27       1.0  0.90587  0.69566  0.24128  1.0000
  C   C19       1.0  0.56742  0.16815  0.27371  1.0000
  N   N4        1.0  0.60183  0.16676  0.26797  1.0000
  C   C20       1.0  0.62247  0.16647  0.34268  1.0000
  H   H28       1.0  0.58150  0.16643  0.00768  1.0000
  O   O1        1.0  0.55079  0.17105  0.19540  1.0000
  H   H29       1.0  0.61240  0.16784  0.20790  1.0000
  C   C21       1.0  0.84286  0.40501  0.27016  1.0000
  N   N5        1.0  0.84442  0.44089  0.26457  1.0000
  C   C22       1.0  0.84146  0.46025  0.33885  1.0000
  H   H30       1.0  0.82802  0.41293  0.00269  1.0000
  O   O2        1.0  0.84338  0.38715  0.19166  1.0000
  H   H31       1.0  0.84663  0.45198  0.20462  1.0000
  C   C23       1.0  0.60286  0.44059  0.27030  1.0000
  N   N6        1.0  0.56693  0.40635  0.26417  1.0000
  C   C24       1.0  0.54669  0.38465  0.33845  1.0000
  H   H32       1.0  0.59004  0.42173  0.00382  1.0000
  O   O3        1.0  0.62166  0.45834  0.19208  1.0000
  H   H33       1.0  0.55645  0.39707  0.20396  1.0000
  N   N7        1.0  0.00326  0.00338  0.33635  1.0000
  C   C25       1.0  0.04611  0.02358  0.33690  1.0000
  C   C26       1.0  0.98059  0.96052  0.33668  1.0000
  C   C27       1.0  0.98307  0.02604  0.33683  1.0000
  C   C28       1.0  0.96021  0.02584  0.26219  1.0000
  C   C29       1.0  0.94029  0.04805  0.26294  1.0000
  C   C30       1.0  0.94221  0.07196  0.33794  1.0000
  C   C31       1.0  0.96519  0.07168  0.41262  1.0000
  C   C32       1.0  0.98504  0.04939  0.41216  1.0000
  C   C33       1.0  0.06746  0.02141  0.41204  1.0000
  C   C34       1.0  0.10961  0.04128  0.41257  1.0000
  C   C35       1.0  0.13287  0.06451  0.33817  1.0000
  C   C36       1.0  0.11093  0.06665  0.26337  1.0000
  C   C37       1.0  0.06878  0.04667  0.26253  1.0000
  C   C38       1.0  0.98097  0.93791  0.26215  1.0000
  C   C39       1.0  0.95876  0.89577  0.26278  1.0000
  C   C40       1.0  0.93469  0.87376  0.33753  1.0000
  C   C41       1.0  0.93477  0.89697  0.41211  1.0000
  C   C42       1.0  0.95707  0.93911  0.41177  1.0000
  H   H34       1.0  0.12306  0.03906  0.46986  1.0000
  H   H35       1.0  0.05218  0.00532  0.46762  1.0000
  H   H36       1.0  0.05450  0.04902  0.20675  1.0000
  H   H37       1.0  0.12555  0.08269  0.20719  1.0000
  H   H38       1.0  0.95802  0.00934  0.20627  1.0000
  H   H39       1.0  0.92444  0.04680  0.20654  1.0000
  H   H40       1.0  0.99760  0.95225  0.20639  1.0000
  H   H41       1.0  0.96015  0.88120  0.20647  1.0000
  H   H42       1.0  0.91909  0.88348  0.46936  1.0000
  H   H43       1.0  0.95628  0.95435  0.46746  1.0000
  H   H44       1.0  0.00097  0.05005  0.46792  1.0000
  H   H45       1.0  0.96731  0.08724  0.47003  1.0000
  N   N8        1.0  0.43367  0.22039  0.34413  1.0000
  C   C43       1.0  0.44942  0.26268  0.34071  1.0000
  C   C44       1.0  0.39071  0.19603  0.34247  1.0000
  C   C45       1.0  0.46227  0.20621  0.34903  1.0000
  C   C46       1.0  0.50420  0.23302  0.34649  1.0000
  C   C47       1.0  0.53235  0.22037  0.35033  1.0000
  C   C48       1.0  0.52032  0.17969  0.35863  1.0000
  C   C49       1.0  0.47892  0.15218  0.35764  1.0000
  C   C50       1.0  0.45071  0.16526  0.35491  1.0000
  C   C51       1.0  0.46351  0.28497  0.42132  1.0000
  C   C52       1.0  0.49326  0.32550  0.41954  1.0000
  C   C53       1.0  0.51095  0.34571  0.33738  1.0000
  C   C54       1.0  0.49412  0.32371  0.25661  1.0000
  C   C55       1.0  0.46411  0.28317  0.25811  1.0000
  C   C56       1.0  0.36657  0.20034  0.40834  1.0000
  C   C57       1.0  0.32451  0.17907  0.40256  1.0000
  C   C58       1.0  0.30438  0.15173  0.33150  1.0000
  C   C59       1.0  0.32844  0.14508  0.26990  1.0000
  C   C60       1.0  0.37056  0.16786  0.27305  1.0000
  H   H46       1.0  0.50414  0.33909  0.48049  1.0000
  H   H47       1.0  0.45556  0.27062  0.48233  1.0000
  H   H48       1.0  0.45653  0.26740  0.19891  1.0000
  H   H49       1.0  0.50568  0.33563  0.19492  1.0000
  H   H50       1.0  0.51561  0.26298  0.34143  1.0000
  H   H51       1.0  0.56201  0.24139  0.34815  1.0000
  H   H52       1.0  0.37966  0.22022  0.45999  1.0000
  H   H53       1.0  0.30851  0.18417  0.45042  1.0000
  H   H54       1.0  0.31534  0.12396  0.22053  1.0000
  H   H55       1.0  0.38670  0.16336  0.22456  1.0000
  H   H56       1.0  0.42121  0.14419  0.35672  1.0000
  H   H57       1.0  0.46901  0.12229  0.35996  1.0000
  N   N9        1.0  0.78677  0.21735  0.33941  1.0000
  C   C61       1.0  0.74437  0.19130  0.34250  1.0000
  C   C62       1.0  0.81102  0.19864  0.33932  1.0000
  C   C63       1.0  0.80131  0.26019  0.34182  1.0000
  C   C64       1.0  0.77534  0.27571  0.32659  1.0000
  C   C65       1.0  0.78796  0.31648  0.33207  1.0000
  C   C66       1.0  0.82784  0.34466  0.35247  1.0000
  C   C67       1.0  0.85490  0.33043  0.36186  1.0000
  C   C68       1.0  0.84169  0.28911  0.35876  1.0000
  C   C69       1.0  0.72406  0.18807  0.42407  1.0000
  C   C70       1.0  0.68356  0.17737  0.42384  1.0000
  C   C71       1.0  0.66144  0.16977  0.34230  1.0000
  C   C72       1.0  0.68147  0.16971  0.26174  1.0000
  C   C73       1.0  0.72206  0.18035  0.26160  1.0000
  C   C74       1.0  0.80612  0.16988  0.40493  1.0000
  C   C75       1.0  0.82734  0.14902  0.39981  1.0000
  C   C76       1.0  0.85529  0.15657  0.32996  1.0000
  C   C77       1.0  0.86268  0.18775  0.26915  1.0000
  C   C78       1.0  0.83991  0.20711  0.27140  1.0000
  H   H58       1.0  0.67147  0.17862  0.48436  1.0000
  H   H59       1.0  0.73983  0.19798  0.48305  1.0000
  H   H60       1.0  0.73638  0.18453  0.20104  1.0000
  H   H61       1.0  0.66775  0.16464  0.20038  1.0000
  H   H62       1.0  0.74604  0.25741  0.31157  1.0000
  H   H63       1.0  0.76747  0.32541  0.32171  1.0000
  H   H64       1.0  0.78571  0.16277  0.45555  1.0000
  H   H65       1.0  0.82171  0.12758  0.44717  1.0000
  H   H66       1.0  0.88429  0.19606  0.22086  1.0000
  H   H67       1.0  0.84498  0.22813  0.22345  1.0000
  H   H68       1.0  0.86213  0.28025  0.36932  1.0000
  H   H69       1.0  0.88444  0.35011  0.37266  1.0000
  N   N10       1.0  0.78970  0.57295  0.34153  1.0000
  C   C79       1.0  0.81619  0.55711  0.33988  1.0000
  C   C80       1.0  0.80831  0.61591  0.34039  1.0000
  C   C81       1.0  0.74689  0.54440  0.34529  1.0000
  C   C82       1.0  0.73164  0.50255  0.33817  1.0000
  C   C83       1.0  0.69082  0.47444  0.34222  1.0000
  C   C84       1.0  0.66234  0.48643  0.35478  1.0000
  C   C85       1.0  0.67634  0.52784  0.35771  1.0000
  C   C86       1.0  0.71766  0.55600  0.35503  1.0000
  C   C87       1.0  0.82282  0.54214  0.42109  1.0000
  C   C88       1.0  0.83381  0.51253  0.41995  1.0000
  C   C89       1.0  0.83803  0.49586  0.33788  1.0000
  C   C90       1.0  0.83437  0.51358  0.25690  1.0000
  C   C91       1.0  0.82372  0.54351  0.25770  1.0000
  C   C92       1.0  0.83686  0.63995  0.40619  1.0000
  C   C93       1.0  0.85764  0.68202  0.40070  1.0000
  C   C94       1.0  0.85034  0.70224  0.33003  1.0000
  C   C95       1.0  0.81947  0.67828  0.26869  1.0000
  C   C96       1.0  0.80014  0.63616  0.27149  1.0000
  H   H70       1.0  0.83526  0.50092  0.48097  1.0000
  H   H71       1.0  0.81516  0.54936  0.48146  1.0000
  H   H72       1.0  0.81658  0.55173  0.19797  1.0000
  H   H73       1.0  0.83599  0.50276  0.19517  1.0000
  H   H74       1.0  0.75010  0.49120  0.32969  1.0000
  H   H75       1.0  0.68207  0.44482  0.33696  1.0000
  H   H76       1.0  0.84372  0.62679  0.45757  1.0000
  H   H77       1.0  0.87884  0.69795  0.44844  1.0000
  H   H78       1.0  0.81137  0.69145  0.21966  1.0000
  H   H79       1.0  0.77937  0.62008  0.22318  1.0000
  H   H80       1.0  0.72624  0.58547  0.36012  1.0000
  H   H81       1.0  0.65647  0.53779  0.36317  1.0000
  C   C97       1.0  0.24035  0.09939  0.39205  1.0000
  N   N11       1.0  0.19965  0.07844  0.39550  1.0000
  C   C98       1.0  0.17625  0.08543  0.33783  1.0000
  O   O4        1.0  0.26040  0.08975  0.45275  1.0000
  H   H82       1.0  0.18732  0.05734  0.44021  1.0000
  C   C99       1.0  0.90682  0.14411  0.39257  1.0000
  N   N12       1.0  0.92771  0.12430  0.39628  1.0000
  C   C100      1.0  0.92134  0.09448  0.33744  1.0000
  O   O5        1.0  0.91579  0.17319  0.45456  1.0000
  H   H83       1.0  0.94827  0.13259  0.44220  1.0000
  C   C101      1.0  0.86220  0.76623  0.39131  1.0000
  N   N13       1.0  0.88195  0.80693  0.39491  1.0000
  C   C102      1.0  0.91219  0.83038  0.33697  1.0000
  O   O6        1.0  0.83269  0.74613  0.45236  1.0000
  H   H84       1.0  0.87332  0.81921  0.44005  1.0000
  C   C103      1.0  0.57123  0.16763  0.43767  1.0000
  C   C104      1.0  0.55059  0.16882  0.35855  1.0000
  N   N14       1.0  0.60550  0.16664  0.42302  1.0000
  C   C105      1.0  0.55924  0.16720  0.53606  1.0000
  C   C106      1.0  0.59066  0.16743  0.60406  1.0000
  H   H85       1.0  0.59453  0.14168  0.59321  1.0000
  H   H86       1.0  0.61962  0.19437  0.59558  1.0000
  C   C107      1.0  0.51904  0.12813  0.55535  1.0000
  H   H87       1.0  0.52120  0.10193  0.53752  1.0000
  H   H88       1.0  0.49460  0.12709  0.51698  1.0000
  H   H89       1.0  0.51101  0.12590  0.62680  1.0000
  C   C108      1.0  0.55529  0.20437  0.56059  1.0000
  H   H90       1.0  0.58118  0.23170  0.53652  1.0000
  H   H91       1.0  0.55302  0.20704  0.63362  1.0000
  H   H92       1.0  0.52858  0.20244  0.53160  1.0000
  C   C109      1.0  0.83680  0.40613  0.43353  1.0000
  C   C110      1.0  0.83878  0.38583  0.35457  1.0000
  N   N15       1.0  0.83814  0.44156  0.41889  1.0000
  C   C111      1.0  0.83347  0.39283  0.53178  1.0000
  C   C112      1.0  0.82990  0.42243  0.59907  1.0000
  H   H93       1.0  0.85576  0.45237  0.59375  1.0000
  H   H94       1.0  0.80323  0.42428  0.58452  1.0000
  C   C113      1.0  0.87200  0.39208  0.55962  1.0000
  H   H95       1.0  0.89853  0.42088  0.54649  1.0000
  H   H96       1.0  0.87494  0.36946  0.52267  1.0000
  H   H97       1.0  0.87158  0.38537  0.63150  1.0000
  C   C114      1.0  0.79590  0.35100  0.54868  1.0000
  H   H98       1.0  0.76938  0.34972  0.51961  1.0000
  H   H99       1.0  0.79058  0.34452  0.62088  1.0000
  H   H100      1.0  0.79929  0.32706  0.51970  1.0000
  C   C115      1.0  0.59991  0.43466  0.43403  1.0000
  C   C116      1.0  0.62117  0.45622  0.35519  1.0000
  N   N16       1.0  0.56453  0.40057  0.41894  1.0000
  C   C117      1.0  0.61210  0.44558  0.53259  1.0000
  C   C118      1.0  0.58139  0.41338  0.60003  1.0000
  H   H101      1.0  0.55171  0.40962  0.59140  1.0000
  H   H102      1.0  0.57932  0.38454  0.58873  1.0000
  C   C119      1.0  0.61322  0.48549  0.55575  1.0000
  H   H103      1.0  0.58473  0.48344  0.53988  1.0000
  H   H104      1.0  0.63637  0.51040  0.51808  1.0000
  H   H105      1.0  0.61936  0.49267  0.62750  1.0000
  C   C120      1.0  0.65343  0.44943  0.55409  1.0000
  H   H106      1.0  0.65475  0.42381  0.52761  1.0000
  H   H107      1.0  0.65889  0.45103  0.62688  1.0000
  H   H108      1.0  0.67796  0.47644  0.52548  1.0000
