data_image0
_chemical_formula_structural       CNC2NC4NC18H14C2NC16H12C3NC2NC5NC4NC18H14CNC16H12C11H11CNCNC4NC16H13C2NOCHC2NOCHC2NOCHC2NOCHC2NOCHC2NOCHC2NOCHC2NOCHC2NOCHC2NOCHC2NOCHC2NOCHC7NC12H12C2NC3NC3NC18H14C12H12C3NC3NC3NC18H14C3NC3NC2NC5NC20H15C8NC14H13C4NOCHC4NOCHC4NOCHC4NOCHC4NOCHC4NOCHC4NOCHC4NOCHC4NOCHC4NOCHC4NOCHC4NOCH
_chemical_formula_sum              "C360 N48 H180 O24"
_cell_length_a       57.3562
_cell_length_b       57.3564
_cell_length_c       15.0267
_cell_angle_alpha    90.0018
_cell_angle_beta     89.9654
_cell_angle_gamma    120

_space_group_name_H-M_alt    "P 1"
_space_group_IT_number       1

loop_
  _space_group_symop_operation_xyz
  'x, y, z'

loop_
  _atom_site_type_symbol
  _atom_site_label
  _atom_site_symmetry_multiplicity
  _atom_site_fract_x
  _atom_site_fract_y
  _atom_site_fract_z
  _atom_site_occupancy
  C   C1        1.0  0.28401  0.52742  0.35962  1.0000
  N   N1        1.0  0.27544  0.48613  0.33819  1.0000
  C   C2        1.0  0.30260  0.50112  0.34680  1.0000
  C   C3        1.0  0.32272  0.49358  0.33828  1.0000
  N   N2        1.0  0.29230  0.44371  0.33686  1.0000
  C   C4        1.0  0.29415  0.42113  0.33139  1.0000
  C   C5        1.0  0.32170  0.43007  0.32643  1.0000
  C   C6        1.0  0.33542  0.45776  0.32327  1.0000
  C   C7        1.0  0.27296  0.39378  0.33222  1.0000
  N   N3        1.0  0.23294  0.40078  0.33339  1.0000
  C   C8        1.0  0.20569  0.38574  0.33843  1.0000
  C   C9        1.0  0.22397  0.35909  0.34387  1.0000
  C   C10       1.0  0.21448  0.46604  0.32579  1.0000
  C   C11       1.0  0.23546  0.49319  0.33493  1.0000
  C   C12       1.0  0.22816  0.51371  0.33504  1.0000
  C   C13       1.0  0.21744  0.51902  0.25816  1.0000
  C   C14       1.0  0.21091  0.53961  0.25786  1.0000
  C   C15       1.0  0.21693  0.55722  0.33139  1.0000
  C   C16       1.0  0.14590  0.35224  0.27433  1.0000
  C   C17       1.0  0.11844  0.33271  0.28046  1.0000
  C   C18       1.0  0.28027  0.37327  0.32707  1.0000
  C   C19       1.0  0.29825  0.33431  0.32028  1.0000
  C   C20       1.0  0.30472  0.35400  0.25276  1.0000
  C   C21       1.0  0.29463  0.37182  0.25304  1.0000
  C   C22       1.0  0.35039  0.51467  0.33243  1.0000
  C   C23       1.0  0.35858  0.53443  0.26512  1.0000
  C   C24       1.0  0.38477  0.55675  0.26404  1.0000
  C   C25       1.0  0.40497  0.55924  0.32422  1.0000
  H   H1        1.0  0.38833  0.57165  0.21986  1.0000
  H   H2        1.0  0.34494  0.53371  0.21967  1.0000
  H   H3        1.0  0.28277  0.54448  0.36582  1.0000
  H   H4        1.0  0.26622  0.46749  0.32089  1.0000
  H   H5        1.0  0.24249  0.41983  0.32202  1.0000
  H   H6        1.0  0.35585  0.46922  0.31790  1.0000
  H   H7        1.0  0.33093  0.41881  0.32392  1.0000
  H   H8        1.0  0.29981  0.38534  0.20193  1.0000
  H   H9        1.0  0.31786  0.35678  0.20299  1.0000
  H   H10       1.0  0.22498  0.34184  0.34542  1.0000
  H   H11       1.0  0.15721  0.35057  0.22469  1.0000
  H   H12       1.0  0.11134  0.31702  0.23683  1.0000
  H   H13       1.0  0.20215  0.54183  0.20180  1.0000
  H   H14       1.0  0.21401  0.50770  0.20188  1.0000
  C   C26       1.0  0.53666  0.75670  0.33679  1.0000
  C   C27       1.0  0.56350  0.80168  0.33066  1.0000
  N   N4        1.0  0.62139  0.84853  0.32821  1.0000
  C   C28       1.0  0.64409  0.87289  0.32581  1.0000
  C   C29       1.0  0.63551  0.89178  0.32106  1.0000
  C   C30       1.0  0.60780  0.87807  0.31792  1.0000
  C   C31       1.0  0.67125  0.87867  0.33062  1.0000
  C   C32       1.0  0.67875  0.81919  0.33864  1.0000
  C   C33       1.0  0.70539  0.86405  0.35070  1.0000
  C   C34       1.0  0.59830  0.74811  0.32032  1.0000
  C   C35       1.0  0.54517  0.69765  0.25222  1.0000
  C   C36       1.0  0.52432  0.67063  0.25387  1.0000
  C   C37       1.0  0.71260  0.79342  0.27594  1.0000
  C   C38       1.0  0.73213  0.78547  0.28188  1.0000
  C   C39       1.0  0.69189  0.90640  0.33050  1.0000
  C   C40       1.0  0.71425  0.95047  0.25775  1.0000
  C   C41       1.0  0.69602  0.92264  0.25491  1.0000
  C   C42       1.0  0.53282  0.82940  0.25401  1.0000
  C   C43       1.0  0.51097  0.83406  0.25761  1.0000
  H   H15       1.0  0.49713  0.82637  0.20740  1.0000
  H   H16       1.0  0.53443  0.81918  0.20070  1.0000
  H   H17       1.0  0.51945  0.73837  0.33856  1.0000
  H   H18       1.0  0.59635  0.88710  0.31389  1.0000
  H   H19       1.0  0.64709  0.91227  0.32042  1.0000
  H   H20       1.0  0.68447  0.91462  0.19915  1.0000
  H   H21       1.0  0.71449  0.96164  0.20447  1.0000
  H   H22       1.0  0.72247  0.88230  0.35800  1.0000
  H   H23       1.0  0.71448  0.80669  0.22708  1.0000
  H   H24       1.0  0.74799  0.79427  0.23887  1.0000
  H   H25       1.0  0.52194  0.65911  0.19908  1.0000
  H   H26       1.0  0.55662  0.70496  0.19590  1.0000
  C   C44       1.0  0.28534  0.75701  0.32346  1.0000
  C   C45       1.0  0.30918  0.78111  0.32187  1.0000
  C   C46       1.0  0.30346  0.80189  0.33382  1.0000
  N   N5        1.0  0.27614  0.78950  0.33638  1.0000
  C   C47       1.0  0.26408  0.76227  0.32985  1.0000
  C   C48       1.0  0.23621  0.74220  0.33170  1.0000
  N   N6        1.0  0.21671  0.77257  0.33164  1.0000
  C   C49       1.0  0.19226  0.77071  0.33560  1.0000
  C   C50       1.0  0.17366  0.74331  0.34492  1.0000
  C   C51       1.0  0.18745  0.72943  0.34103  1.0000
  C   C52       1.0  0.18597  0.79169  0.32780  1.0000
  C   C53       1.0  0.20583  0.81948  0.32247  1.0000
  N   N7        1.0  0.23295  0.83174  0.33249  1.0000
  C   C54       1.0  0.24509  0.85895  0.32661  1.0000
  C   C55       1.0  0.22419  0.86439  0.31248  1.0000
  C   C56       1.0  0.20038  0.84030  0.30691  1.0000
  C   C57       1.0  0.27280  0.87879  0.33517  1.0000
  N   N8        1.0  0.29255  0.84864  0.33814  1.0000
  C   C58       1.0  0.31698  0.85063  0.34676  1.0000
  C   C59       1.0  0.32334  0.82966  0.34290  1.0000
  C   C60       1.0  0.35119  0.83678  0.34818  1.0000
  C   C61       1.0  0.37032  0.85382  0.28464  1.0000
  C   C62       1.0  0.39725  0.85965  0.28848  1.0000
  C   C63       1.0  0.40591  0.84690  0.35062  1.0000
  C   C64       1.0  0.27989  0.90651  0.33476  1.0000
  C   C65       1.0  0.27638  0.91852  0.25772  1.0000
  C   C66       1.0  0.28390  0.94590  0.25721  1.0000
  C   C67       1.0  0.29742  0.96292  0.33047  1.0000
  C   C68       1.0  0.15809  0.78426  0.32207  1.0000
  C   C69       1.0  0.10126  0.76618  0.31678  1.0000
  C   C70       1.0  0.11358  0.75699  0.25481  1.0000
  C   C71       1.0  0.14145  0.76681  0.25438  1.0000
  C   C72       1.0  0.22911  0.71439  0.32683  1.0000
  C   C73       1.0  0.23665  0.70451  0.25280  1.0000
  C   C74       1.0  0.23274  0.67829  0.25306  1.0000
  C   C75       1.0  0.21800  0.65925  0.32096  1.0000
  H   H27       1.0  0.24201  0.67406  0.20316  1.0000
  H   H28       1.0  0.24726  0.71714  0.20146  1.0000
  H   H29       1.0  0.32759  0.78254  0.31642  1.0000
  H   H30       1.0  0.26644  0.79885  0.34754  1.0000
  H   H31       1.0  0.24235  0.82236  0.34799  1.0000
  H   H32       1.0  0.17828  0.70894  0.34281  1.0000
  H   H33       1.0  0.15322  0.73426  0.35026  1.0000
  H   H34       1.0  0.14919  0.75949  0.20786  1.0000
  H   H35       1.0  0.10243  0.74198  0.21075  1.0000
  H   H36       1.0  0.18214  0.83884  0.29562  1.0000
  H   H37       1.0  0.26796  0.90730  0.20162  1.0000
  H   H38       1.0  0.27984  0.95329  0.20116  1.0000
  H   H39       1.0  0.41032  0.87320  0.24352  1.0000
  H   H40       1.0  0.36481  0.86232  0.23505  1.0000
  C   C76       1.0  0.78363  0.54149  0.32817  1.0000
  N   N9        1.0  0.79432  0.59933  0.32488  1.0000
  C   C77       1.0  0.79259  0.62200  0.32271  1.0000
  C   C78       1.0  0.76513  0.61333  0.31728  1.0000
  C   C79       1.0  0.75130  0.58565  0.31246  1.0000
  C   C80       1.0  0.81385  0.64925  0.32562  1.0000
  C   C81       1.0  0.88101  0.65728  0.33576  1.0000
  C   C82       1.0  0.86274  0.68402  0.33051  1.0000
  C   C83       1.0  0.87219  0.57664  0.34339  1.0000
  C   C84       1.0  0.87415  0.52591  0.28097  1.0000
  C   C85       1.0  0.88032  0.50506  0.28516  1.0000
  C   C86       1.0  0.94005  0.68650  0.26409  1.0000
  C   C87       1.0  0.96750  0.70618  0.26299  1.0000
  C   C88       1.0  0.80671  0.66986  0.32521  1.0000
  C   C89       1.0  0.78450  0.69198  0.25430  1.0000
  C   C90       1.0  0.79398  0.67365  0.25072  1.0000
  C   C91       1.0  0.72630  0.50953  0.24821  1.0000
  C   C92       1.0  0.70002  0.48729  0.25051  1.0000
  H   H41       1.0  0.69574  0.47255  0.20494  1.0000
  H   H42       1.0  0.73915  0.51032  0.19945  1.0000
  H   H43       1.0  0.80309  0.49758  0.33294  1.0000
  H   H44       1.0  0.73089  0.57431  0.30568  1.0000
  H   H45       1.0  0.75612  0.62481  0.31485  1.0000
  H   H46       1.0  0.78984  0.66174  0.19556  1.0000
  H   H47       1.0  0.77315  0.69205  0.20206  1.0000
  H   H48       1.0  0.86145  0.70113  0.32792  1.0000
  H   H49       1.0  0.92849  0.68456  0.20964  1.0000
  H   H50       1.0  0.97473  0.71828  0.20819  1.0000
  H   H51       1.0  0.89339  0.50536  0.23862  1.0000
  H   H52       1.0  0.88185  0.53942  0.22966  1.0000
  C   C93       1.0  0.44349  0.17043  0.33875  1.0000
  C   C94       1.0  0.45250  0.15187  0.34112  1.0000
  C   C95       1.0  0.48018  0.16588  0.33771  1.0000
  C   C96       1.0  0.53947  0.34558  0.27044  1.0000
  C   C97       1.0  0.56034  0.37258  0.26806  1.0000
  C   C98       1.0  0.37845  0.25315  0.26081  1.0000
  C   C99       1.0  0.35875  0.26088  0.26015  1.0000
  C   C100      1.0  0.37784  0.09222  0.25608  1.0000
  C   C101      1.0  0.39589  0.12008  0.25679  1.0000
  C   C102      1.0  0.55583  0.21849  0.26655  1.0000
  C   C103      1.0  0.57814  0.21460  0.26479  1.0000
  H   H53       1.0  0.59251  0.22536  0.21840  1.0000
  H   H54       1.0  0.55458  0.23072  0.21944  1.0000
  H   H55       1.0  0.56697  0.30595  0.35977  1.0000
  H   H56       1.0  0.49163  0.15685  0.33603  1.0000
  H   H57       1.0  0.41056  0.12812  0.20894  1.0000
  H   H58       1.0  0.38142  0.08142  0.20984  1.0000
  H   H59       1.0  0.36452  0.15987  0.31165  1.0000
  H   H60       1.0  0.38052  0.24374  0.20599  1.0000
  H   H61       1.0  0.34667  0.25611  0.20536  1.0000
  H   H62       1.0  0.56194  0.38358  0.21261  1.0000
  H   H63       1.0  0.52721  0.33776  0.21609  1.0000
  C   C104      1.0  0.77867  0.26337  0.33551  1.0000
  N   N10       1.0  0.81132  0.25424  0.32513  1.0000
  C   C105      1.0  0.82364  0.28150  0.32961  1.0000
  N   N11       1.0  0.87047  0.27045  0.32668  1.0000
  C   C106      1.0  0.89482  0.27210  0.32410  1.0000
  C   C107      1.0  0.91373  0.29958  0.31969  1.0000
  C   C108      1.0  0.90003  0.31360  0.31690  1.0000
  C   C109      1.0  0.90058  0.25071  0.32854  1.0000
  N   N12       1.0  0.85349  0.21092  0.32730  1.0000
  C   C110      1.0  0.84110  0.18375  0.33598  1.0000
  C   C111      1.0  0.88595  0.20193  0.34811  1.0000
  C   C112      1.0  0.77006  0.19316  0.31783  1.0000
  C   C113      1.0  0.76415  0.21441  0.32319  1.0000
  C   C114      1.0  0.71956  0.19583  0.25073  1.0000
  C   C115      1.0  0.69252  0.18958  0.25296  1.0000
  C   C116      1.0  0.68181  0.19639  0.32711  1.0000
  C   C117      1.0  0.81523  0.12402  0.27419  1.0000
  C   C118      1.0  0.80728  0.09656  0.28097  1.0000
  C   C119      1.0  0.92828  0.25778  0.32861  1.0000
  C   C120      1.0  0.98471  0.27555  0.33218  1.0000
  C   C121      1.0  0.97241  0.27954  0.25631  1.0000
  C   C122      1.0  0.94460  0.26998  0.25321  1.0000
  C   C123      1.0  0.85880  0.32904  0.32499  1.0000
  C   C124      1.0  0.85131  0.33989  0.25344  1.0000
  C   C125      1.0  0.85591  0.36635  0.25721  1.0000
  H   H64       1.0  0.84817  0.37250  0.20712  1.0000
  H   H65       1.0  0.84108  0.32806  0.20014  1.0000
  H   H66       1.0  0.76034  0.26225  0.33729  1.0000
  H   H67       1.0  0.82078  0.24460  0.31520  1.0000
  H   H68       1.0  0.90907  0.33408  0.31316  1.0000
  H   H69       1.0  0.93422  0.30849  0.31905  1.0000
  H   H70       1.0  0.93665  0.27361  0.19748  1.0000
  H   H71       1.0  0.98366  0.29055  0.20323  1.0000
  H   H72       1.0  0.90418  0.20308  0.35545  1.0000
  H   H73       1.0  0.82849  0.13530  0.22511  1.0000
  H   H74       1.0  0.81605  0.08939  0.23832  1.0000
  H   H75       1.0  0.68092  0.18040  0.19837  1.0000
  H   H76       1.0  0.72681  0.19171  0.19421  1.0000
  C   C126      1.0  0.21876  0.59578  0.24725  1.0000
  C   C127      1.0  0.21827  0.61997  0.24490  1.0000
  N   N13       1.0  0.22246  0.62779  0.15997  1.0000
  O   O1        1.0  0.22552  0.59007  0.16636  1.0000
  C   C128      1.0  0.22560  0.60951  0.11452  1.0000
  H   H77       1.0  0.23164  0.61227  0.04964  1.0000
  C   C129      1.0  0.46772  0.62287  0.24629  1.0000
  C   C130      1.0  0.44348  0.59829  0.24570  1.0000
  N   N14       1.0  0.43480  0.59427  0.16173  1.0000
  O   O2        1.0  0.47303  0.63491  0.16469  1.0000
  C   C131      1.0  0.45286  0.61549  0.11484  1.0000
  H   H78       1.0  0.44980  0.61847  0.04996  1.0000
  C   C132      1.0  0.44729  0.85486  0.26655  1.0000
  C   C133      1.0  0.47191  0.85527  0.26269  1.0000
  N   N15       1.0  0.48078  0.86110  0.17914  1.0000
  O   O3        1.0  0.44006  0.85872  0.18371  1.0000
  C   C134      1.0  0.46196  0.86353  0.13434  1.0000
  H   H79       1.0  0.46363  0.86814  0.06825  1.0000
  C   C135      1.0  0.87652  0.45068  0.26579  1.0000
  C   C136      1.0  0.87705  0.42654  0.26214  1.0000
  N   N16       1.0  0.88290  0.42344  0.17868  1.0000
  O   O4        1.0  0.88022  0.46158  0.18266  1.0000
  C   C137      1.0  0.88520  0.44458  0.13356  1.0000
  H   H80       1.0  0.88982  0.44750  0.06747  1.0000
  C   C138      1.0  0.61694  0.41996  0.25001  1.0000
  C   C139      1.0  0.64121  0.44448  0.24472  1.0000
  N   N17       1.0  0.64853  0.44746  0.15936  1.0000
  O   O5        1.0  0.61041  0.40693  0.17010  1.0000
  C   C140      1.0  0.62978  0.42573  0.11633  1.0000
  H   H81       1.0  0.63188  0.42193  0.05138  1.0000
  C   C141      1.0  0.64465  0.19827  0.24676  1.0000
  C   C142      1.0  0.62007  0.19794  0.24695  1.0000
  N   N18       1.0  0.61586  0.20243  0.16300  1.0000
  O   O6        1.0  0.65651  0.20491  0.16485  1.0000
  C   C143      1.0  0.63693  0.20549  0.11547  1.0000
  H   H82       1.0  0.63979  0.21156  0.05061  1.0000
  C   C144      1.0  0.05772  0.30489  0.26341  1.0000
  C   C145      1.0  0.02954  0.29019  0.26181  1.0000
  N   N19       1.0  0.02226  0.28100  0.17911  1.0000
  O   O7        1.0  0.06783  0.30637  0.18001  1.0000
  C   C146      1.0  0.04510  0.29028  0.13270  1.0000
  H   H83       1.0  0.04543  0.28637  0.06663  1.0000
  C   C147      1.0  0.75961  0.75231  0.26270  1.0000
  C   C148      1.0  0.77427  0.73880  0.26031  1.0000
  N   N20       1.0  0.78328  0.74068  0.17733  1.0000
  O   O8        1.0  0.75799  0.76099  0.17956  1.0000
  C   C149      1.0  0.77392  0.75428  0.13154  1.0000
  H   H84       1.0  0.77771  0.75853  0.06542  1.0000
  C   C150      1.0  0.32017  0.00617  0.24550  1.0000
  C   C151      1.0  0.33387  0.03434  0.24299  1.0000
  N   N21       1.0  0.34113  0.04113  0.15836  1.0000
  O   O9        1.0  0.32095  0.99573  0.16466  1.0000
  C   C152      1.0  0.33245  0.01821  0.11296  1.0000
  H   H85       1.0  0.33763  0.01791  0.04818  1.0000
  C   C153      1.0  0.02762  0.72911  0.24699  1.0000
  C   C154      1.0  0.05578  0.74354  0.24303  1.0000
  N   N22       1.0  0.06221  0.74285  0.15814  1.0000
  O   O10       1.0  0.01674  0.71794  0.16655  1.0000
  C   C155      1.0  0.03905  0.72858  0.11394  1.0000
  H   H86       1.0  0.03841  0.72303  0.04911  1.0000
  C   C156      1.0  0.33536  0.29781  0.24670  1.0000
  C   C157      1.0  0.32079  0.31142  0.24412  1.0000
  N   N23       1.0  0.32113  0.31830  0.15912  1.0000
  O   O11       1.0  0.34633  0.29808  0.16584  1.0000
  C   C158      1.0  0.33566  0.30985  0.11425  1.0000
  H   H87       1.0  0.34032  0.31404  0.04852  1.0000
  C   C159      1.0  0.77415  0.03584  0.26398  1.0000
  C   C160      1.0  0.76066  0.00766  0.26274  1.0000
  N   N24       1.0  0.76259  0.00030  0.18015  1.0000
  O   O12       1.0  0.78280  0.04588  0.18054  1.0000
  C   C161      1.0  0.77615  0.02309  0.13350  1.0000
  H   H88       1.0  0.78036  0.02334  0.06742  1.0000
  C   C162      1.0  0.30790  0.52727  0.36383  1.0000
  C   C163      1.0  0.26317  0.50109  0.34479  1.0000
  C   C164      1.0  0.31672  0.46638  0.33267  1.0000
  C   C165      1.0  0.24508  0.38566  0.33688  1.0000
  C   C166      1.0  0.20011  0.35926  0.34925  1.0000
  C   C167      1.0  0.18586  0.39369  0.33179  1.0000
  C   C168      1.0  0.19209  0.42092  0.32373  1.0000
  N   N25       1.0  0.21634  0.44351  0.33235  1.0000
  C   C169      1.0  0.18721  0.45729  0.31307  1.0000
  C   C170      1.0  0.17360  0.42961  0.30890  1.0000
  C   C171      1.0  0.22766  0.55158  0.40815  1.0000
  C   C172      1.0  0.23207  0.52960  0.41138  1.0000
  C   C173      1.0  0.15795  0.37339  0.33689  1.0000
  C   C174      1.0  0.10113  0.33484  0.34344  1.0000
  C   C175      1.0  0.11354  0.35660  0.40442  1.0000
  C   C176      1.0  0.14141  0.37453  0.40435  1.0000
  C   C177      1.0  0.27413  0.35439  0.39609  1.0000
  C   C178      1.0  0.28141  0.33440  0.38956  1.0000
  C   C179      1.0  0.37005  0.51711  0.39422  1.0000
  C   C180      1.0  0.39691  0.53819  0.38748  1.0000
  H   H89       1.0  0.41044  0.53788  0.43077  1.0000
  H   H90       1.0  0.36502  0.50323  0.44404  1.0000
  H   H91       1.0  0.32615  0.54408  0.37476  1.0000
  H   H92       1.0  0.26347  0.35448  0.45063  1.0000
  H   H93       1.0  0.27421  0.32012  0.43803  1.0000
  H   H94       1.0  0.18178  0.34221  0.35510  1.0000
  H   H95       1.0  0.17817  0.46868  0.30742  1.0000
  H   H96       1.0  0.15331  0.41808  0.29930  1.0000
  H   H97       1.0  0.14925  0.38973  0.45038  1.0000
  H   H98       1.0  0.10248  0.36061  0.44844  1.0000
  H   H99       1.0  0.24000  0.52646  0.46811  1.0000
  H   H100      1.0  0.23358  0.56405  0.46210  1.0000
  C   C181      1.0  0.53688  0.78081  0.33927  1.0000
  C   C182      1.0  0.56322  0.76210  0.33027  1.0000
  N   N26       1.0  0.57844  0.78935  0.32668  1.0000
  C   C183      1.0  0.57164  0.82955  0.32627  1.0000
  C   C184      1.0  0.59893  0.85059  0.32382  1.0000
  C   C185      1.0  0.67909  0.85875  0.33699  1.0000
  N   N27       1.0  0.66396  0.83157  0.32987  1.0000
  C   C186      1.0  0.70501  0.83989  0.35507  1.0000
  C   C187      1.0  0.67074  0.79140  0.33139  1.0000
  C   C188      1.0  0.64348  0.77052  0.32183  1.0000
  N   N28       1.0  0.62094  0.77242  0.32740  1.0000
  C   C189      1.0  0.60692  0.72940  0.31037  1.0000
  C   C190      1.0  0.63463  0.74325  0.30829  1.0000
  C   C191      1.0  0.57112  0.74217  0.32529  1.0000
  C   C192      1.0  0.55045  0.71442  0.32717  1.0000
  C   C193      1.0  0.50667  0.65982  0.32770  1.0000
  C   C194      1.0  0.51223  0.67690  0.40249  1.0000
  C   C195      1.0  0.53425  0.70331  0.40359  1.0000
  C   C196      1.0  0.69104  0.78378  0.33716  1.0000
  C   C197      1.0  0.72977  0.76572  0.34380  1.0000
  C   C198      1.0  0.70781  0.75605  0.40413  1.0000
  C   C199      1.0  0.68969  0.76578  0.40379  1.0000
  C   C200      1.0  0.70780  0.91851  0.40671  1.0000
  C   C201      1.0  0.72746  0.94596  0.40672  1.0000
  C   C202      1.0  0.73049  0.96289  0.33362  1.0000
  C   C203      1.0  0.55111  0.83685  0.32567  1.0000
  C   C204      1.0  0.54778  0.85049  0.39852  1.0000
  C   C205      1.0  0.50722  0.84742  0.33087  1.0000
  C   C206      1.0  0.52662  0.85621  0.39995  1.0000
  H   H101      1.0  0.52527  0.86649  0.45346  1.0000
  H   H102      1.0  0.56065  0.85617  0.45160  1.0000
  H   H103      1.0  0.51992  0.78232  0.34410  1.0000
  H   H104      1.0  0.59756  0.79881  0.31700  1.0000
  H   H105      1.0  0.64522  0.82232  0.31380  1.0000
  H   H106      1.0  0.70536  0.90732  0.46265  1.0000
  H   H107      1.0  0.73916  0.95350  0.46222  1.0000
  H   H108      1.0  0.72174  0.83833  0.36597  1.0000
  H   H109      1.0  0.59541  0.70898  0.30440  1.0000
  H   H110      1.0  0.64606  0.73431  0.30028  1.0000
  H   H111      1.0  0.67431  0.75815  0.44920  1.0000
  H   H112      1.0  0.70376  0.74082  0.44752  1.0000
  H   H113      1.0  0.53726  0.71499  0.45868  1.0000
  H   H114      1.0  0.49970  0.67079  0.45639  1.0000
  C   C207      1.0  0.21494  0.74816  0.33575  1.0000
  C   C208      1.0  0.29408  0.87293  0.34268  1.0000
  C   C209      1.0  0.33532  0.87797  0.35858  1.0000
  C   C210      1.0  0.32140  0.89172  0.35328  1.0000
  C   C211      1.0  0.38636  0.82976  0.41368  1.0000
  C   C212      1.0  0.36013  0.82586  0.41534  1.0000
  C   C213      1.0  0.30097  0.95058  0.40712  1.0000
  C   C214      1.0  0.29135  0.92275  0.41074  1.0000
  C   C215      1.0  0.14619  0.79354  0.38467  1.0000
  C   C216      1.0  0.11872  0.78564  0.37934  1.0000
  C   C217      1.0  0.21486  0.69606  0.39596  1.0000
  C   C218      1.0  0.20812  0.66892  0.39010  1.0000
  H   H115      1.0  0.19591  0.65654  0.43883  1.0000
  H   H116      1.0  0.20857  0.70220  0.45034  1.0000
  H   H117      1.0  0.28443  0.73880  0.32043  1.0000
  H   H118      1.0  0.15758  0.80649  0.43421  1.0000
  H   H119      1.0  0.11171  0.79420  0.42346  1.0000
  H   H120      1.0  0.22541  0.88269  0.30634  1.0000
  H   H121      1.0  0.35564  0.88700  0.36790  1.0000
  H   H122      1.0  0.33029  0.91217  0.35746  1.0000
  H   H123      1.0  0.29461  0.91480  0.46720  1.0000
  H   H124      1.0  0.31160  0.96177  0.46073  1.0000
  H   H125      1.0  0.34690  0.81316  0.46217  1.0000
  H   H126      1.0  0.39035  0.81872  0.45778  1.0000
  C   C219      1.0  0.77805  0.51484  0.33229  1.0000
  C   C220      1.0  0.80201  0.51480  0.33292  1.0000
  C   C221      1.0  0.82313  0.54144  0.33594  1.0000
  N   N29       1.0  0.81094  0.55654  0.33168  1.0000
  C   C222      1.0  0.76372  0.54946  0.32180  1.0000
  C   C223      1.0  0.76987  0.57676  0.31997  1.0000
  C   C224      1.0  0.84169  0.65733  0.32973  1.0000
  N   N30       1.0  0.85377  0.64217  0.33247  1.0000
  C   C225      1.0  0.88668  0.68399  0.33624  1.0000
  C   C226      1.0  0.90074  0.64915  0.33902  1.0000
  C   C227      1.0  0.89474  0.62189  0.34111  1.0000
  N   N31       1.0  0.87032  0.59923  0.33926  1.0000
  C   C228      1.0  0.89966  0.58550  0.34999  1.0000
  C   C229      1.0  0.91351  0.61319  0.34542  1.0000
  C   C230      1.0  0.85100  0.54935  0.34196  1.0000
  C   C231      1.0  0.85812  0.52861  0.34700  1.0000
  C   C232      1.0  0.86860  0.48422  0.34977  1.0000
  C   C233      1.0  0.85244  0.48728  0.41525  1.0000
  C   C234      1.0  0.84853  0.50960  0.41686  1.0000
  C   C235      1.0  0.92849  0.66975  0.33910  1.0000
  C   C236      1.0  0.98485  0.70866  0.33401  1.0000
  C   C237      1.0  0.97294  0.69185  0.40916  1.0000
  C   C238      1.0  0.94516  0.67342  0.41306  1.0000
  C   C239      1.0  0.81160  0.68647  0.40040  1.0000
  C   C240      1.0  0.80375  0.70610  0.40117  1.0000
  C   C241      1.0  0.78911  0.70866  0.32957  1.0000
  C   C242      1.0  0.73585  0.52877  0.31735  1.0000
  C   C243      1.0  0.71720  0.52637  0.38327  1.0000
  C   C244      1.0  0.68089  0.48457  0.31586  1.0000
  C   C245      1.0  0.69014  0.50563  0.37962  1.0000
  H   H127      1.0  0.67745  0.50617  0.42594  1.0000
  H   H128      1.0  0.72311  0.54006  0.43405  1.0000
  H   H129      1.0  0.75971  0.49766  0.33313  1.0000
  H   H130      1.0  0.82062  0.57586  0.33100  1.0000
  H   H131      1.0  0.84411  0.62285  0.33180  1.0000
  H   H132      1.0  0.82102  0.68444  0.45525  1.0000
  H   H133      1.0  0.80839  0.71809  0.45613  1.0000
  H   H134      1.0  0.90510  0.70107  0.33941  1.0000
  H   H135      1.0  0.90873  0.57414  0.35607  1.0000
  H   H136      1.0  0.93401  0.62466  0.34749  1.0000
  H   H137      1.0  0.93748  0.66145  0.46816  1.0000
  H   H138      1.0  0.98448  0.69191  0.46103  1.0000
  H   H139      1.0  0.83664  0.51064  0.46576  1.0000
  H   H140      1.0  0.84208  0.47274  0.46154  1.0000
  C   C246      1.0  0.55000  0.26362  0.35881  1.0000
  C   C247      1.0  0.54990  0.28756  0.35631  1.0000
  C   C248      1.0  0.52325  0.28182  0.34955  1.0000
  N   N32       1.0  0.50833  0.25453  0.34523  1.0000
  C   C249      1.0  0.52356  0.24249  0.34859  1.0000
  C   C250      1.0  0.51594  0.21473  0.34300  1.0000
  C   C251      1.0  0.48875  0.19334  0.34056  1.0000
  N   N33       1.0  0.46601  0.19498  0.34031  1.0000
  C   C252      1.0  0.41614  0.16411  0.33369  1.0000
  C   C253      1.0  0.40793  0.18381  0.33153  1.0000
  N   N34       1.0  0.42281  0.21102  0.33822  1.0000
  C   C254      1.0  0.40759  0.22303  0.33414  1.0000
  C   C255      1.0  0.38107  0.20195  0.32590  1.0000
  C   C256      1.0  0.38140  0.17816  0.32093  1.0000
  C   C257      1.0  0.41550  0.25084  0.33696  1.0000
  C   C258      1.0  0.44264  0.27227  0.33949  1.0000
  N   N35       1.0  0.46535  0.27067  0.34213  1.0000
  C   C259      1.0  0.48776  0.29527  0.34330  1.0000
  C   C260      1.0  0.47881  0.31386  0.34214  1.0000
  C   C261      1.0  0.45112  0.29974  0.33792  1.0000
  C   C262      1.0  0.51505  0.30154  0.34671  1.0000
  C   C263      1.0  0.53545  0.32941  0.34623  1.0000
  C   C264      1.0  0.57913  0.38401  0.33864  1.0000
  C   C265      1.0  0.57461  0.36767  0.41482  1.0000
  C   C266      1.0  0.55269  0.34125  0.41990  1.0000
  C   C267      1.0  0.39489  0.25791  0.33629  1.0000
  C   C268      1.0  0.35615  0.27550  0.33182  1.0000
  C   C269      1.0  0.37297  0.28035  0.40682  1.0000
  C   C270      1.0  0.39130  0.27090  0.41046  1.0000
  C   C271      1.0  0.39573  0.13625  0.32729  1.0000
  C   C272      1.0  0.37506  0.12399  0.39146  1.0000
  C   C273      1.0  0.35522  0.09666  0.38446  1.0000
  C   C274      1.0  0.35666  0.07952  0.31919  1.0000
  C   C275      1.0  0.53698  0.20811  0.33682  1.0000
  C   C276      1.0  0.54017  0.19188  0.40081  1.0000
  C   C277      1.0  0.58130  0.19771  0.32690  1.0000
  C   C278      1.0  0.56095  0.18571  0.39299  1.0000
  H   H141      1.0  0.56090  0.17233  0.43770  1.0000
  H   H142      1.0  0.52691  0.18384  0.45270  1.0000
  H   H143      1.0  0.56709  0.26244  0.36560  1.0000
  H   H144      1.0  0.48920  0.24483  0.33621  1.0000
  H   H145      1.0  0.44194  0.22070  0.34775  1.0000
  H   H146      1.0  0.44128  0.13136  0.34201  1.0000
  H   H147      1.0  0.37389  0.13508  0.44283  1.0000
  H   H148      1.0  0.33987  0.08958  0.42938  1.0000
  H   H149      1.0  0.36394  0.20311  0.32099  1.0000
  H   H150      1.0  0.49015  0.33438  0.34330  1.0000
  H   H151      1.0  0.43947  0.30857  0.33441  1.0000
  H   H152      1.0  0.40324  0.27510  0.46556  1.0000
  H   H153      1.0  0.37295  0.29179  0.45890  1.0000
  H   H154      1.0  0.55050  0.33007  0.47565  1.0000
  H   H155      1.0  0.58795  0.37425  0.46651  1.0000
  C   C279      1.0  0.80278  0.28725  0.33845  1.0000
  C   C280      1.0  0.78407  0.24222  0.32857  1.0000
  C   C281      1.0  0.85151  0.30123  0.32541  1.0000
  C   C282      1.0  0.87255  0.29499  0.32270  1.0000
  C   C283      1.0  0.88066  0.22295  0.33458  1.0000
  C   C284      1.0  0.86178  0.17816  0.35241  1.0000
  C   C285      1.0  0.81332  0.16400  0.32866  1.0000
  C   C286      1.0  0.79245  0.17039  0.31903  1.0000
  N   N36       1.0  0.79436  0.19482  0.32477  1.0000
  C   C287      1.0  0.75134  0.16583  0.30775  1.0000
  C   C288      1.0  0.76518  0.15197  0.30545  1.0000
  C   C289      1.0  0.73642  0.20732  0.32546  1.0000
  C   C290      1.0  0.69901  0.20796  0.40160  1.0000
  C   C291      1.0  0.72540  0.21236  0.40222  1.0000
  C   C292      1.0  0.80565  0.13609  0.33502  1.0000
  C   C293      1.0  0.78756  0.07933  0.34333  1.0000
  C   C294      1.0  0.77790  0.09177  0.40307  1.0000
  C   C295      1.0  0.78767  0.11962  0.40200  1.0000
  C   C296      1.0  0.94028  0.25383  0.40484  1.0000
  C   C297      1.0  0.96771  0.26154  0.40501  1.0000
  C   C298      1.0  0.87245  0.34598  0.39786  1.0000
  C   C299      1.0  0.86931  0.38345  0.33043  1.0000
  C   C300      1.0  0.87816  0.37286  0.39938  1.0000
  H   H156      1.0  0.88845  0.38446  0.45285  1.0000
  H   H157      1.0  0.87816  0.33877  0.45084  1.0000
  H   H158      1.0  0.80428  0.30571  0.34364  1.0000
  H   H159      1.0  0.84426  0.22044  0.31127  1.0000
  H   H160      1.0  0.92902  0.24500  0.46061  1.0000
  H   H161      1.0  0.97516  0.25725  0.46045  1.0000
  H   H162      1.0  0.86021  0.15986  0.36325  1.0000
  H   H163      1.0  0.73092  0.15692  0.30195  1.0000
  H   H164      1.0  0.75624  0.13161  0.29742  1.0000
  H   H165      1.0  0.78009  0.12749  0.44711  1.0000
  H   H166      1.0  0.76267  0.08070  0.44660  1.0000
  H   H167      1.0  0.73716  0.22103  0.45714  1.0000
  H   H168      1.0  0.69298  0.21439  0.45567  1.0000
  C   C301      1.0  0.21469  0.63239  0.32185  1.0000
  C   C302      1.0  0.20920  0.61671  0.40093  1.0000
  C   C303      1.0  0.20835  0.59185  0.40204  1.0000
  C   C304      1.0  0.21412  0.58076  0.32671  1.0000
  N   N37       1.0  0.20162  0.58198  0.48428  1.0000
  O   O13       1.0  0.20513  0.62305  0.48492  1.0000
  C   C305      1.0  0.19897  0.60030  0.53121  1.0000
  H   H169      1.0  0.19465  0.59825  0.59757  1.0000
  C   C306      1.0  0.43164  0.58265  0.32352  1.0000
  C   C307      1.0  0.44755  0.59296  0.40172  1.0000
  C   C308      1.0  0.47231  0.61706  0.40146  1.0000
  C   C309      1.0  0.48310  0.63351  0.32498  1.0000
  N   N38       1.0  0.48227  0.62057  0.48361  1.0000
  O   O14       1.0  0.44134  0.58252  0.48568  1.0000
  C   C310      1.0  0.46398  0.59977  0.53148  1.0000
  H   H170      1.0  0.46646  0.59745  0.59748  1.0000
  C   C311      1.0  0.48373  0.85013  0.33730  1.0000
  C   C312      1.0  0.46947  0.84585  0.41827  1.0000
  C   C313      1.0  0.44522  0.84615  0.42281  1.0000
  C   C314      1.0  0.43247  0.84984  0.34722  1.0000
  N   N39       1.0  0.43763  0.84170  0.50792  1.0000
  O   O15       1.0  0.47602  0.83957  0.49851  1.0000
  C   C315      1.0  0.45620  0.83848  0.55129  1.0000
  H   H171      1.0  0.45425  0.83310  0.61674  1.0000
  C   C316      1.0  0.87201  0.40964  0.33684  1.0000
  C   C317      1.0  0.86783  0.41968  0.41778  1.0000
  C   C318      1.0  0.86815  0.44424  0.42226  1.0000
  C   C319      1.0  0.87160  0.46058  0.34649  1.0000
  N   N40       1.0  0.86389  0.44738  0.50755  1.0000
  O   O16       1.0  0.86164  0.40687  0.49806  1.0000
  C   C320      1.0  0.86099  0.42575  0.55116  1.0000
  H   H172      1.0  0.85505  0.42205  0.61609  1.0000
  C   C321      1.0  0.65421  0.46104  0.31990  1.0000
  C   C322      1.0  0.63943  0.45148  0.40079  1.0000
  C   C323      1.0  0.61465  0.42745  0.40518  1.0000
  C   C324      1.0  0.60272  0.41020  0.33122  1.0000
  N   N41       1.0  0.60583  0.42480  0.48870  1.0000
  O   O17       1.0  0.64683  0.46262  0.48353  1.0000
  C   C325      1.0  0.62473  0.44611  0.53297  1.0000
  H   H173      1.0  0.62340  0.44893  0.59939  1.0000
  C   C326      1.0  0.60468  0.19434  0.32534  1.0000
  C   C327      1.0  0.61522  0.18877  0.40317  1.0000
  C   C328      1.0  0.63924  0.18799  0.40199  1.0000
  C   C329      1.0  0.65549  0.19360  0.32506  1.0000
  N   N42       1.0  0.64295  0.18146  0.48381  1.0000
  O   O18       1.0  0.60512  0.18465  0.48761  1.0000
  C   C330      1.0  0.62235  0.17906  0.53254  1.0000
  H   H174      1.0  0.62018  0.17422  0.59850  1.0000
  C   C331      1.0  0.01338  0.28711  0.33720  1.0000
  C   C332      1.0  0.02787  0.29838  0.41703  1.0000
  C   C333      1.0  0.05603  0.31218  0.41950  1.0000
  C   C334      1.0  0.07233  0.31711  0.34264  1.0000
  N   N43       1.0  0.06286  0.31958  0.50398  1.0000
  O   O19       1.0  0.01736  0.29900  0.49793  1.0000
  C   C335      1.0  0.03991  0.31103  0.54918  1.0000
  H   H175      1.0  0.03955  0.31564  0.61455  1.0000
  C   C336      1.0  0.77752  0.72574  0.33536  1.0000
  C   C337      1.0  0.76643  0.72896  0.41564  1.0000
  C   C338      1.0  0.75255  0.74324  0.41881  1.0000
  C   C339      1.0  0.74748  0.75462  0.34232  1.0000
  N   N44       1.0  0.74518  0.74253  0.50341  1.0000
  O   O20       1.0  0.76601  0.71784  0.49634  1.0000
  C   C340      1.0  0.75408  0.72837  0.54824  1.0000
  H   H176      1.0  0.74912  0.72290  0.61314  1.0000
  C   C341      1.0  0.33888  0.05065  0.31989  1.0000
  C   C342      1.0  0.32660  0.03593  0.39906  1.0000
  C   C343      1.0  0.31186  0.00775  0.40053  1.0000
  C   C344      1.0  0.30893  0.99161  0.32529  1.0000
  N   N45       1.0  0.30251  0.00040  0.48309  1.0000
  O   O21       1.0  0.32808  0.04589  0.48269  1.0000
  C   C345      1.0  0.31157  0.02319  0.52952  1.0000
  H   H177      1.0  0.30807  0.02341  0.59598  1.0000
  C   C346      1.0  0.07241  0.75493  0.31915  1.0000
  C   C347      1.0  0.05811  0.75247  0.39928  1.0000
  C   C348      1.0  0.02993  0.73886  0.40240  1.0000
  C   C349      1.0  0.01348  0.72583  0.32766  1.0000
  N   N46       1.0  0.02294  0.74066  0.48563  1.0000
  O   O22       1.0  0.06854  0.76111  0.48228  1.0000
  C   C350      1.0  0.04597  0.75430  0.53093  1.0000
  H   H178      1.0  0.04656  0.75857  0.59706  1.0000
  C   C351      1.0  0.30959  0.31664  0.32114  1.0000
  C   C352      1.0  0.31236  0.30458  0.40052  1.0000
  C   C353      1.0  0.32589  0.28993  0.40194  1.0000
  C   C354      1.0  0.33887  0.28682  0.32656  1.0000
  N   N47       1.0  0.32413  0.28059  0.48436  1.0000
  O   O23       1.0  0.30403  0.30595  0.48454  1.0000
  C   C355      1.0  0.31055  0.28971  0.53130  1.0000
  H   H179      1.0  0.30639  0.28572  0.59737  1.0000
  C   C356      1.0  0.74758  0.99159  0.33830  1.0000
  C   C357      1.0  0.75081  0.00619  0.41792  1.0000
  C   C358      1.0  0.76515  0.03436  0.42000  1.0000
  C   C359      1.0  0.77648  0.05054  0.34294  1.0000
  N   N48       1.0  0.76457  0.04133  0.50430  1.0000
  O   O24       1.0  0.73970  0.99583  0.49896  1.0000
  C   C360      1.0  0.75039  0.01844  0.55003  1.0000
  H   H180      1.0  0.74500  0.01819  0.61489  1.0000
