data_image0
_chemical_formula_structural       C5OC3OH4N2C4OC4OH4N2C4OC4OH4N2C2HC4HN2H2O2CHC2HC4HN2H2O2CHC2HC4HN2H2O2CHC2HC4HN2H2O2CHC2HC4HN2H2O2CHC2HC4HN2H2O2CHC2HC2HN2C2HC2HN2C2HC2HN2C6H2NH2NO2CHC6H2NH2NO2CHC6H2NH2NO2CHC6H2NH2NO2CHC6H2NH2NO2CHC6H2NH2NO2CH
_chemical_formula_sum              "C120 O30 H78 N36"
_cell_length_a       39.2471
_cell_length_b       39.2472
_cell_length_c       14.9628
_cell_angle_alpha    90
_cell_angle_beta     90
_cell_angle_gamma    120

_space_group_name_H-M_alt    "P 1"
_space_group_IT_number       1

loop_
  _space_group_symop_operation_xyz
  'x, y, z'

loop_
  _atom_site_type_symbol
  _atom_site_label
  _atom_site_symmetry_multiplicity
  _atom_site_fract_x
  _atom_site_fract_y
  _atom_site_fract_z
  _atom_site_occupancy
  C   C1        1.0  0.02327  0.51273  0.35098  1.0000
  C   C2        1.0  0.98047  0.48978  0.35098  1.0000
  C   C3        1.0  0.89623  0.44487  0.34548  1.0000
  C   C4        1.0  0.91834  0.42579  0.33548  1.0000
  C   C5        1.0  0.95984  0.44842  0.33530  1.0000
  O   O1        1.0  0.85608  0.42324  0.34665  1.0000
  C   C6        1.0  0.04391  0.55409  0.33524  1.0000
  C   C7        1.0  0.08540  0.57673  0.33543  1.0000
  C   C8        1.0  0.10751  0.55766  0.34547  1.0000
  O   O2        1.0  0.14766  0.57928  0.34666  1.0000
  H   H1        1.0  0.84756  0.41709  0.28402  1.0000
  H   H2        1.0  0.15618  0.58543  0.28404  1.0000
  H   H3        1.0  0.97478  0.43395  0.32206  1.0000
  H   H4        1.0  0.02896  0.56856  0.32201  1.0000
  N   N1        1.0  0.10600  0.61560  0.32807  1.0000
  N   N2        1.0  0.89774  0.38692  0.32812  1.0000
  C   C9        1.0  0.51332  0.49130  0.35098  1.0000
  C   C10       1.0  0.55824  0.45198  0.34548  1.0000
  C   C11       1.0  0.57732  0.49317  0.33548  1.0000
  C   C12       1.0  0.55469  0.51203  0.33530  1.0000
  O   O3        1.0  0.57987  0.43346  0.34665  1.0000
  C   C13       1.0  0.49037  0.51116  0.35098  1.0000
  C   C14       1.0  0.44901  0.49043  0.33524  1.0000
  C   C15       1.0  0.42637  0.50929  0.33543  1.0000
  C   C16       1.0  0.44545  0.55048  0.34547  1.0000
  O   O4        1.0  0.42383  0.56900  0.34666  1.0000
  H   H5        1.0  0.58601  0.43109  0.28402  1.0000
  H   H6        1.0  0.41768  0.57138  0.28404  1.0000
  H   H7        1.0  0.56916  0.54145  0.32206  1.0000
  H   H8        1.0  0.43454  0.46101  0.32201  1.0000
  N   N3        1.0  0.38751  0.49103  0.32807  1.0000
  N   N4        1.0  0.61618  0.51143  0.32812  1.0000
  C   C17       1.0  0.51180  0.02264  0.35098  1.0000
  C   C18       1.0  0.55113  0.10688  0.34548  1.0000
  C   C19       1.0  0.50994  0.08477  0.33548  1.0000
  C   C20       1.0  0.49107  0.04327  0.33530  1.0000
  O   O5        1.0  0.56965  0.14703  0.34665  1.0000
  C   C21       1.0  0.49195  0.97983  0.35098  1.0000
  C   C22       1.0  0.51268  0.95920  0.33524  1.0000
  C   C23       1.0  0.49382  0.91770  0.33543  1.0000
  C   C24       1.0  0.45263  0.89559  0.34547  1.0000
  O   O6        1.0  0.43410  0.85544  0.34666  1.0000
  H   H9        1.0  0.57202  0.15554  0.28402  1.0000
  H   H10       1.0  0.43173  0.84693  0.28404  1.0000
  H   H11       1.0  0.46165  0.02833  0.32206  1.0000
  H   H12       1.0  0.54209  0.97415  0.32201  1.0000
  N   N5        1.0  0.51208  0.89711  0.32807  1.0000
  N   N6        1.0  0.49168  0.10537  0.32812  1.0000
  C   C25       1.0  0.27267  0.46198  0.25124  1.0000
  C   C26       1.0  0.30726  0.45917  0.25427  1.0000
  H   H13       1.0  0.32383  0.46483  0.19738  1.0000
  C   C27       1.0  0.21833  0.46258  0.33730  1.0000
  C   C28       1.0  0.15799  0.48285  0.33423  1.0000
  C   C29       1.0  0.15341  0.44971  0.28547  1.0000
  C   C30       1.0  0.18331  0.43957  0.28901  1.0000
  H   H14       1.0  0.18030  0.41631  0.25186  1.0000
  N   N7        1.0  0.11954  0.42779  0.23163  1.0000
  N   N8        1.0  0.26317  0.47243  0.17225  1.0000
  H   H15       1.0  0.27918  0.47719  0.11895  1.0000
  H   H16       1.0  0.24120  0.47704  0.16678  1.0000
  O   O7        1.0  0.12840  0.42876  0.15058  1.0000
  O   O8        1.0  0.10032  0.39251  0.25638  1.0000
  C   C31       1.0  0.13321  0.49752  0.31466  1.0000
  H   H17       1.0  0.13658  0.51014  0.25505  1.0000
  C   C32       1.0  0.54113  0.81131  0.25124  1.0000
  C   C33       1.0  0.54394  0.84872  0.25427  1.0000
  H   H18       1.0  0.53827  0.85962  0.19738  1.0000
  C   C34       1.0  0.54053  0.75637  0.33730  1.0000
  C   C35       1.0  0.52026  0.67576  0.33423  1.0000
  C   C36       1.0  0.55340  0.70432  0.28547  1.0000
  C   C37       1.0  0.56354  0.74436  0.28901  1.0000
  H   H19       1.0  0.58679  0.76461  0.25186  1.0000
  N   N9        1.0  0.57532  0.69237  0.23163  1.0000
  N   N10       1.0  0.53067  0.79136  0.17225  1.0000
  H   H20       1.0  0.52592  0.80261  0.11895  1.0000
  H   H21       1.0  0.52607  0.76478  0.16678  1.0000
  O   O9        1.0  0.57435  0.70026  0.15058  1.0000
  O   O10       1.0  0.61060  0.70843  0.25638  1.0000
  C   C38       1.0  0.50559  0.63631  0.31466  1.0000
  H   H22       1.0  0.49297  0.62706  0.25505  1.0000
  C   C39       1.0  0.19179  0.73044  0.25124  1.0000
  C   C40       1.0  0.15439  0.69584  0.25427  1.0000
  H   H23       1.0  0.14349  0.67927  0.19738  1.0000
  C   C41       1.0  0.24674  0.78478  0.33730  1.0000
  C   C42       1.0  0.32735  0.84512  0.33423  1.0000
  C   C43       1.0  0.29879  0.84970  0.28547  1.0000
  C   C44       1.0  0.25875  0.81980  0.28901  1.0000
  H   H24       1.0  0.23850  0.82280  0.25186  1.0000
  N   N11       1.0  0.31074  0.88357  0.23163  1.0000
  N   N12       1.0  0.21175  0.73993  0.17225  1.0000
  H   H25       1.0  0.20050  0.72392  0.11895  1.0000
  H   H26       1.0  0.23833  0.76191  0.16678  1.0000
  O   O11       1.0  0.30285  0.87470  0.15058  1.0000
  O   O12       1.0  0.29468  0.90279  0.25638  1.0000
  C   C45       1.0  0.36680  0.86990  0.31466  1.0000
  H   H27       1.0  0.37604  0.86652  0.25505  1.0000
  C   C46       1.0  0.73102  0.54049  0.25129  1.0000
  C   C47       1.0  0.69643  0.54329  0.25433  1.0000
  H   H28       1.0  0.67986  0.53763  0.19746  1.0000
  C   C48       1.0  0.78538  0.53989  0.33731  1.0000
  C   C49       1.0  0.84574  0.51966  0.33421  1.0000
  C   C50       1.0  0.85030  0.55279  0.28544  1.0000
  C   C51       1.0  0.82039  0.56292  0.28900  1.0000
  H   H29       1.0  0.82338  0.58617  0.25186  1.0000
  N   N13       1.0  0.88417  0.57472  0.23159  1.0000
  N   N14       1.0  0.74051  0.53003  0.17228  1.0000
  H   H30       1.0  0.72450  0.52528  0.11899  1.0000
  H   H31       1.0  0.76249  0.52543  0.16680  1.0000
  O   O13       1.0  0.87529  0.57375  0.15055  1.0000
  O   O14       1.0  0.90338  0.61001  0.25634  1.0000
  C   C52       1.0  0.87054  0.50502  0.31461  1.0000
  H   H32       1.0  0.86712  0.49235  0.25504  1.0000
  C   C53       1.0  0.46262  0.19116  0.25129  1.0000
  C   C54       1.0  0.45981  0.15376  0.25433  1.0000
  H   H33       1.0  0.46548  0.14285  0.19746  1.0000
  C   C55       1.0  0.46321  0.24611  0.33731  1.0000
  C   C56       1.0  0.48345  0.32671  0.33421  1.0000
  C   C57       1.0  0.45031  0.29813  0.28545  1.0000
  C   C58       1.0  0.44019  0.25810  0.28900  1.0000
  H   H34       1.0  0.41694  0.23784  0.25186  1.0000
  N   N15       1.0  0.42839  0.31006  0.23159  1.0000
  N   N16       1.0  0.47307  0.21110  0.17228  1.0000
  H   H35       1.0  0.47783  0.19985  0.11899  1.0000
  H   H36       1.0  0.47768  0.23768  0.16680  1.0000
  O   O15       1.0  0.42936  0.30217  0.15055  1.0000
  O   O16       1.0  0.39310  0.29399  0.25634  1.0000
  C   C59       1.0  0.49809  0.36615  0.31461  1.0000
  H   H37       1.0  0.51076  0.37539  0.25504  1.0000
  C   C60       1.0  0.81195  0.27209  0.25129  1.0000
  C   C61       1.0  0.84935  0.30668  0.25433  1.0000
  H   H38       1.0  0.86026  0.32325  0.19746  1.0000
  C   C62       1.0  0.75700  0.21773  0.33731  1.0000
  C   C63       1.0  0.67640  0.15736  0.33421  1.0000
  C   C64       1.0  0.70498  0.15280  0.28545  1.0000
  C   C65       1.0  0.74501  0.18271  0.28900  1.0000
  H   H39       1.0  0.76527  0.17972  0.25186  1.0000
  N   N17       1.0  0.69304  0.11894  0.23159  1.0000
  N   N18       1.0  0.79200  0.26259  0.17228  1.0000
  H   H40       1.0  0.80326  0.27860  0.11899  1.0000
  H   H41       1.0  0.76542  0.24062  0.16680  1.0000
  O   O17       1.0  0.70094  0.12781  0.15055  1.0000
  O   O18       1.0  0.70912  0.09973  0.25634  1.0000
  C   C66       1.0  0.63696  0.13256  0.31461  1.0000
  H   H42       1.0  0.62771  0.13598  0.25504  1.0000
  C   C67       1.0  0.95675  0.50735  0.36591  1.0000
  C   C68       1.0  0.91531  0.48590  0.36010  1.0000
  H   H43       1.0  0.96940  0.53652  0.38134  1.0000
  C   C69       1.0  0.08844  0.51663  0.36013  1.0000
  C   C70       1.0  0.04699  0.49517  0.36593  1.0000
  H   H44       1.0  0.03434  0.46600  0.38137  1.0000
  N   N19       1.0  0.10944  0.49875  0.37220  1.0000
  N   N20       1.0  0.89431  0.50378  0.37216  1.0000
  C   C71       1.0  0.49575  0.45001  0.36591  1.0000
  C   C72       1.0  0.51721  0.43002  0.36010  1.0000
  H   H45       1.0  0.46659  0.43350  0.38134  1.0000
  C   C73       1.0  0.48648  0.57243  0.36013  1.0000
  C   C74       1.0  0.50794  0.55244  0.36593  1.0000
  H   H46       1.0  0.53711  0.56896  0.38137  1.0000
  N   N21       1.0  0.50435  0.61131  0.37220  1.0000
  N   N22       1.0  0.49933  0.39115  0.37216  1.0000
  C   C75       1.0  0.55309  0.04636  0.36591  1.0000
  C   C76       1.0  0.57308  0.08780  0.36010  1.0000
  H   H47       1.0  0.56960  0.03370  0.38134  1.0000
  C   C77       1.0  0.43067  0.91467  0.36013  1.0000
  C   C78       1.0  0.45066  0.95611  0.36593  1.0000
  H   H48       1.0  0.43415  0.96877  0.38137  1.0000
  N   N23       1.0  0.39180  0.89366  0.37220  1.0000
  N   N24       1.0  0.61196  0.10880  0.37216  1.0000
  C   C79       1.0  0.32122  0.45162  0.33466  1.0000
  C   C80       1.0  0.29933  0.44536  0.41430  1.0000
  C   C81       1.0  0.26426  0.44720  0.41139  1.0000
  C   C82       1.0  0.25080  0.45590  0.33160  1.0000
  C   C83       1.0  0.22183  0.49451  0.38785  1.0000
  C   C84       1.0  0.19235  0.50524  0.38741  1.0000
  H   H49       1.0  0.24734  0.51151  0.42267  1.0000
  H   H50       1.0  0.24922  0.44365  0.46980  1.0000
  N   N25       1.0  0.19912  0.53737  0.43617  1.0000
  H   H51       1.0  0.22289  0.55193  0.47182  1.0000
  H   H52       1.0  0.17975  0.54564  0.44128  1.0000
  N   N26       1.0  0.31376  0.43928  0.49608  1.0000
  O   O19       1.0  0.28968  0.40680  0.53054  1.0000
  O   O20       1.0  0.32089  0.46617  0.55135  1.0000
  C   C85       1.0  0.35844  0.45592  0.33665  1.0000
  H   H53       1.0  0.36243  0.43433  0.35879  1.0000
  C   C86       1.0  0.55149  0.87022  0.33466  1.0000
  C   C87       1.0  0.55775  0.85459  0.41430  1.0000
  C   C88       1.0  0.55591  0.81768  0.41139  1.0000
  C   C89       1.0  0.54721  0.79552  0.33160  1.0000
  C   C90       1.0  0.50859  0.72794  0.38785  1.0000
  C   C91       1.0  0.49787  0.68774  0.38741  1.0000
  H   H54       1.0  0.49160  0.73645  0.42267  1.0000
  H   H55       1.0  0.55946  0.80619  0.46980  1.0000
  N   N27       1.0  0.46573  0.66237  0.43617  1.0000
  H   H56       1.0  0.45118  0.67158  0.47182  1.0000
  H   H57       1.0  0.45747  0.63473  0.44128  1.0000
  N   N28       1.0  0.56383  0.87510  0.49608  1.0000
  O   O21       1.0  0.59630  0.88350  0.53054  1.0000
  O   O22       1.0  0.53694  0.85534  0.55135  1.0000
  C   C92       1.0  0.54718  0.90314  0.33665  1.0000
  H   H58       1.0  0.56878  0.92873  0.35879  1.0000
  C   C93       1.0  0.13289  0.68189  0.33466  1.0000
  C   C94       1.0  0.14851  0.70377  0.41430  1.0000
  C   C95       1.0  0.18543  0.73885  0.41139  1.0000
  C   C96       1.0  0.20758  0.75231  0.33160  1.0000
  C   C97       1.0  0.27516  0.78127  0.38785  1.0000
  C   C98       1.0  0.31537  0.81075  0.38741  1.0000
  H   H59       1.0  0.26665  0.75577  0.42267  1.0000
  H   H60       1.0  0.19692  0.75389  0.46980  1.0000
  N   N29       1.0  0.34074  0.80399  0.43617  1.0000
  H   H61       1.0  0.33153  0.78022  0.47182  1.0000
  H   H62       1.0  0.36838  0.82336  0.44128  1.0000
  N   N30       1.0  0.12801  0.68935  0.49608  1.0000
  O   O23       1.0  0.11961  0.71342  0.53054  1.0000
  O   O24       1.0  0.14776  0.68222  0.55135  1.0000
  C   C99       1.0  0.09997  0.64466  0.33665  1.0000
  H   H63       1.0  0.07438  0.64067  0.35879  1.0000
  C   C100      1.0  0.68248  0.55084  0.33474  1.0000
  C   C101      1.0  0.70437  0.55709  0.41437  1.0000
  C   C102      1.0  0.73944  0.55526  0.41143  1.0000
  C   C103      1.0  0.75290  0.54656  0.33163  1.0000
  C   C104      1.0  0.78189  0.50797  0.38785  1.0000
  C   C105      1.0  0.81139  0.49726  0.38740  1.0000
  H   H64       1.0  0.75639  0.49097  0.42269  1.0000
  H   H65       1.0  0.75449  0.55881  0.46984  1.0000
  N   N31       1.0  0.80464  0.46514  0.43615  1.0000
  H   H66       1.0  0.78088  0.45057  0.47182  1.0000
  H   H67       1.0  0.82403  0.45688  0.44127  1.0000
  N   N32       1.0  0.68995  0.56317  0.49615  1.0000
  O   O25       1.0  0.71402  0.59564  0.53062  1.0000
  O   O26       1.0  0.68282  0.53628  0.55142  1.0000
  C   C106      1.0  0.64525  0.54653  0.33674  1.0000
  H   H68       1.0  0.64126  0.56813  0.35892  1.0000
  C   C107      1.0  0.45227  0.13226  0.33474  1.0000
  C   C108      1.0  0.44601  0.14789  0.41437  1.0000
  C   C109      1.0  0.44785  0.18480  0.41143  1.0000
  C   C110      1.0  0.45654  0.20696  0.33163  1.0000
  C   C111      1.0  0.49514  0.27454  0.38785  1.0000
  C   C112      1.0  0.50584  0.31474  0.38740  1.0000
  H   H69       1.0  0.51214  0.26605  0.42269  1.0000
  H   H70       1.0  0.44430  0.19630  0.46984  1.0000
  N   N33       1.0  0.53797  0.34013  0.43616  1.0000
  H   H71       1.0  0.55253  0.33093  0.47182  1.0000
  H   H72       1.0  0.54622  0.36776  0.44127  1.0000
  N   N34       1.0  0.43994  0.12740  0.49615  1.0000
  O   O27       1.0  0.40746  0.11900  0.53062  1.0000
  O   O28       1.0  0.46682  0.14716  0.55142  1.0000
  C   C113      1.0  0.45657  0.09934  0.33674  1.0000
  H   H73       1.0  0.43498  0.07376  0.35892  1.0000
  C   C114      1.0  0.87085  0.32063  0.33474  1.0000
  C   C115      1.0  0.85522  0.29874  0.41437  1.0000
  C   C116      1.0  0.81830  0.26367  0.41143  1.0000
  C   C117      1.0  0.79615  0.25021  0.33163  1.0000
  C   C118      1.0  0.72856  0.22122  0.38786  1.0000
  C   C119      1.0  0.68837  0.19172  0.38740  1.0000
  H   H74       1.0  0.73706  0.24672  0.42269  1.0000
  H   H75       1.0  0.80680  0.24862  0.46984  1.0000
  N   N35       1.0  0.66298  0.19847  0.43616  1.0000
  H   H76       1.0  0.67218  0.22223  0.47183  1.0000
  H   H77       1.0  0.63534  0.17908  0.44127  1.0000
  N   N36       1.0  0.87571  0.31316  0.49615  1.0000
  O   O29       1.0  0.88411  0.28908  0.53062  1.0000
  O   O30       1.0  0.85595  0.32028  0.55142  1.0000
  C   C120      1.0  0.90376  0.35785  0.33674  1.0000
  H   H78       1.0  0.92935  0.36185  0.35892  1.0000
