data_image0
_chemical_formula_structural       C2NHCHC2NHCH3C3HC3HCHC2OH2C2OCHCHC2OH2C2OCHC3NH3C6N2H4C6N2H4C2OHC3HOHCHC3HOHC3HOHC3HOHC3H2C3H2C3H2C3H2C3H2CHC3OH2C2OHC3OH2C3OH2C3OH2C3NH3C6N2H4C6N2H4C2OHC3HOHCHC3HOHC3HOHC3HOHC3H2C3H2C3H2C3H2C3H2CHC3OH2C2OHC3OH2C3OH2C3OH2C6N2H3C6N2H4C6N2H4C3HOHC3HOHC3HOHC3HOHC3HOHC3HOHC3H2C3H2C3H2C3H2C3H2C3H2C3OH2C3OH2C3OH2C3OH2C3OH2C3OH2C6N2H3C6N2H4C6N2H4C3HOHC3HOHC3HOHC3HOHC3HOHC3HOHC3H2C3H2C3H2C3H2C3H2C3H2C3OH2C3OH2C3OH2C3OH2C3OH2C3OH2
_chemical_formula_sum              "C288 N24 H192 O48"
_cell_length_a       46.3175
_cell_length_b       46.3175
_cell_length_c       14.921
_cell_angle_alpha    90
_cell_angle_beta     90
_cell_angle_gamma    120

_space_group_name_H-M_alt    "P 1"
_space_group_IT_number       1

loop_
  _space_group_symop_operation_xyz
  'x, y, z'

loop_
  _atom_site_type_symbol
  _atom_site_label
  _atom_site_symmetry_multiplicity
  _atom_site_fract_x
  _atom_site_fract_y
  _atom_site_fract_z
  _atom_site_occupancy
  C   C1        1.0  0.02210  0.26197  0.30415  1.0000
  C   C2        1.0  0.04219  0.29788  0.29606  1.0000
  N   N1        1.0  0.03066  0.31545  0.24981  1.0000
  H   H1        1.0  0.04249  0.33961  0.24787  1.0000
  C   C3        1.0  0.04010  0.24529  0.32644  1.0000
  H   H2        1.0  0.02822  0.22020  0.33635  1.0000
  C   C4        1.0  0.02210  0.76197  0.30415  1.0000
  C   C5        1.0  0.04219  0.79787  0.29606  1.0000
  N   N2        1.0  0.03066  0.81545  0.24981  1.0000
  H   H3        1.0  0.04248  0.83961  0.24787  1.0000
  C   C6        1.0  0.04010  0.74529  0.32644  1.0000
  H   H4        1.0  0.02821  0.72020  0.33635  1.0000
  H   H5        1.0  0.01190  0.30422  0.20896  1.0000
  H   H6        1.0  0.01190  0.80422  0.20896  1.0000
  C   C7        1.0  0.07493  0.31549  0.33473  1.0000
  C   C8        1.0  0.09000  0.29673  0.36058  1.0000
  C   C9        1.0  0.07401  0.26203  0.35023  1.0000
  H   H7        1.0  0.08499  0.23837  0.53416  1.0000
  C   C10       1.0  0.07493  0.81549  0.33473  1.0000
  C   C11       1.0  0.09000  0.79673  0.36058  1.0000
  C   C12       1.0  0.07401  0.76203  0.35023  1.0000
  H   H8        1.0  0.08499  0.73837  0.53416  1.0000
  C   C13       1.0  0.10475  0.24049  0.27151  1.0000
  H   H9        1.0  0.09341  0.24127  0.21331  1.0000
  C   C14       1.0  0.11085  0.37084  0.26364  1.0000
  C   C15       1.0  0.09643  0.35070  0.34082  1.0000
  O   O1        1.0  0.10098  0.35752  0.18009  1.0000
  H   H10       1.0  0.09425  0.37170  0.14762  1.0000
  H   H11       1.0  0.11484  0.30897  0.37755  1.0000
  C   C16       1.0  0.11269  0.24989  0.43176  1.0000
  C   C17       1.0  0.09351  0.24631  0.35432  1.0000
  O   O2        1.0  0.10515  0.25828  0.51242  1.0000
  C   C18       1.0  0.11196  0.36393  0.42458  1.0000
  H   H12       1.0  0.10317  0.34954  0.48111  1.0000
  C   C19       1.0  0.10475  0.74050  0.27151  1.0000
  H   H13       1.0  0.09341  0.74127  0.21331  1.0000
  C   C20       1.0  0.11085  0.87084  0.26364  1.0000
  C   C21       1.0  0.09643  0.85070  0.34082  1.0000
  O   O3        1.0  0.10098  0.85752  0.18009  1.0000
  H   H14       1.0  0.09425  0.87170  0.14762  1.0000
  H   H15       1.0  0.11484  0.80897  0.37755  1.0000
  C   C22       1.0  0.11269  0.74989  0.43176  1.0000
  C   C23       1.0  0.09351  0.74631  0.35432  1.0000
  O   O4        1.0  0.10515  0.75828  0.51242  1.0000
  C   C24       1.0  0.11196  0.86393  0.42458  1.0000
  H   H16       1.0  0.10317  0.84954  0.48111  1.0000
  C   C25       1.0  0.48585  0.24329  0.30420  1.0000
  C   C26       1.0  0.43293  0.18978  0.33419  1.0000
  C   C27       1.0  0.46575  0.20738  0.29597  1.0000
  N   N3        1.0  0.47733  0.18981  0.24992  1.0000
  H   H17       1.0  0.99603  0.20106  0.20893  1.0000
  H   H18       1.0  0.46533  0.16566  0.24739  1.0000
  H   H19       1.0  0.51190  0.30422  0.20896  1.0000
  C   C28       1.0  0.26332  0.24390  0.30449  1.0000
  C   C29       1.0  0.31685  0.24447  0.33382  1.0000
  C   C30       1.0  0.29922  0.25970  0.29588  1.0000
  C   C31       1.0  0.24464  0.26147  0.30459  1.0000
  C   C32       1.0  0.20873  0.24566  0.29645  1.0000
  C   C33       1.0  0.19114  0.26084  0.33497  1.0000
  N   N4        1.0  0.31675  0.28884  0.24975  1.0000
  N   N5        1.0  0.19114  0.21654  0.25029  1.0000
  H   H20       1.0  0.30545  0.29628  0.20890  1.0000
  H   H21       1.0  0.34089  0.30094  0.24689  1.0000
  H   H22       1.0  0.16698  0.20424  0.24829  1.0000
  H   H23       1.0  0.20235  0.20898  0.20949  1.0000
  C   C34       1.0  0.26278  0.02078  0.30421  1.0000
  C   C35       1.0  0.26220  0.07370  0.33414  1.0000
  C   C36       1.0  0.24698  0.04088  0.29596  1.0000
  C   C37       1.0  0.24521  0.48453  0.30429  1.0000
  C   C38       1.0  0.26100  0.46442  0.29580  1.0000
  C   C39       1.0  0.24574  0.43155  0.33370  1.0000
  N   N6        1.0  0.21783  0.02930  0.24991  1.0000
  N   N7        1.0  0.29017  0.47603  0.24980  1.0000
  H   H24       1.0  0.21035  0.51057  0.20900  1.0000
  H   H25       1.0  0.20563  0.04125  0.24742  1.0000
  H   H26       1.0  0.30225  0.46397  0.24691  1.0000
  H   H27       1.0  0.29759  0.99473  0.20884  1.0000
  C   C40       1.0  0.13569  0.24135  0.26420  1.0000
  C   C41       1.0  0.15593  0.24713  0.34120  1.0000
  O   O5        1.0  0.14891  0.24471  0.18057  1.0000
  H   H28       1.0  0.13471  0.22376  0.14829  1.0000
  C   C42       1.0  0.26593  0.36545  0.27068  1.0000
  C   C43       1.0  0.26519  0.39558  0.26304  1.0000
  C   C44       1.0  0.25955  0.41014  0.34004  1.0000
  H   H29       1.0  0.26522  0.35328  0.21263  1.0000
  O   O6        1.0  0.26184  0.40547  0.17944  1.0000
  H   H30       1.0  0.28271  0.41201  0.14698  1.0000
  C   C45       1.0  0.14096  0.40176  0.27078  1.0000
  H   H31       1.0  0.15307  0.41302  0.21251  1.0000
  C   C46       1.0  0.40312  0.26457  0.27046  1.0000
  C   C47       1.0  0.37226  0.26386  0.26293  1.0000
  C   C48       1.0  0.35207  0.25826  0.33994  1.0000
  H   H32       1.0  0.41455  0.26386  0.21236  1.0000
  O   O7        1.0  0.35901  0.26054  0.17936  1.0000
  H   H33       1.0  0.37333  0.28142  0.14695  1.0000
  C   C49       1.0  0.24185  0.13971  0.27077  1.0000
  C   C50       1.0  0.24269  0.10961  0.26346  1.0000
  C   C51       1.0  0.24841  0.09512  0.34047  1.0000
  H   H34       1.0  0.24268  0.15184  0.21257  1.0000
  O   O8        1.0  0.24610  0.09978  0.17983  1.0000
  H   H35       1.0  0.22516  0.09304  0.14747  1.0000
  C   C52       1.0  0.36681  0.10349  0.27072  1.0000
  C   C53       1.0  0.39694  0.13436  0.26326  1.0000
  C   C54       1.0  0.41148  0.15455  0.34029  1.0000
  H   H36       1.0  0.35469  0.09205  0.21260  1.0000
  O   O9        1.0  0.40688  0.14763  0.17970  1.0000
  H   H37       1.0  0.41345  0.13332  0.14726  1.0000
  C   C55       1.0  0.46785  0.25996  0.32648  1.0000
  C   C56       1.0  0.43392  0.24326  0.34991  1.0000
  C   C57       1.0  0.41785  0.20855  0.36001  1.0000
  H   H38       1.0  0.47973  0.28506  0.33618  1.0000
  H   H39       1.0  0.39296  0.19629  0.37641  1.0000
  C   C58       1.0  0.24664  0.20923  0.32683  1.0000
  C   C59       1.0  0.26337  0.19198  0.34969  1.0000
  C   C60       1.0  0.29810  0.21058  0.35929  1.0000
  H   H40       1.0  0.22155  0.19605  0.33677  1.0000
  H   H41       1.0  0.31036  0.19796  0.37575  1.0000
  C   C61       1.0  0.20992  0.29473  0.36042  1.0000
  C   C62       1.0  0.24463  0.31338  0.35025  1.0000
  C   C63       1.0  0.26133  0.29614  0.32690  1.0000
  H   H42       1.0  0.19769  0.30736  0.37712  1.0000
  H   H43       1.0  0.28645  0.30935  0.33643  1.0000
  C   C64       1.0  0.29746  0.03877  0.32642  1.0000
  C   C65       1.0  0.31467  0.07269  0.34996  1.0000
  C   C66       1.0  0.29602  0.08875  0.36015  1.0000
  H   H44       1.0  0.31065  0.02686  0.33643  1.0000
  H   H45       1.0  0.30866  0.11362  0.37679  1.0000
  C   C67       1.0  0.21188  0.41645  0.35936  1.0000
  C   C68       1.0  0.19327  0.43256  0.34950  1.0000
  C   C69       1.0  0.21054  0.46654  0.32662  1.0000
  H   H46       1.0  0.19926  0.39156  0.37580  1.0000
  H   H47       1.0  0.19735  0.47845  0.33646  1.0000
  C   C70       1.0  0.14280  0.24954  0.42502  1.0000
  H   H48       1.0  0.15725  0.25520  0.48144  1.0000
  C   C71       1.0  0.25716  0.39471  0.42405  1.0000
  C   C72       1.0  0.25691  0.36431  0.43113  1.0000
  C   C73       1.0  0.26038  0.34862  0.35373  1.0000
  O   O10       1.0  0.24860  0.34852  0.51200  1.0000
  H   H49       1.0  0.25165  0.40367  0.48039  1.0000
  H   H50       1.0  0.26845  0.34809  0.53343  1.0000
  C   C74       1.0  0.14244  0.39403  0.43107  1.0000
  C   C75       1.0  0.15805  0.41312  0.35350  1.0000
  O   O11       1.0  0.15838  0.40164  0.51171  1.0000
  H   H51       1.0  0.15862  0.42181  0.53333  1.0000
  C   C76       1.0  0.36514  0.25582  0.42388  1.0000
  C   C77       1.0  0.39528  0.25553  0.43088  1.0000
  C   C78       1.0  0.41441  0.25899  0.35344  1.0000
  O   O12       1.0  0.40276  0.24720  0.51171  1.0000
  H   H52       1.0  0.35070  0.25032  0.48027  1.0000
  H   H53       1.0  0.42303  0.26706  0.53319  1.0000
  C   C79       1.0  0.25077  0.11065  0.42430  1.0000
  C   C80       1.0  0.25113  0.14111  0.43099  1.0000
  C   C81       1.0  0.24761  0.15676  0.35355  1.0000
  O   O13       1.0  0.25950  0.15702  0.51168  1.0000
  H   H54       1.0  0.25641  0.10184  0.48074  1.0000
  H   H55       1.0  0.23958  0.15724  0.53344  1.0000
  C   C82       1.0  0.39595  0.14146  0.42421  1.0000
  C   C83       1.0  0.36555  0.11130  0.43114  1.0000
  C   C84       1.0  0.34991  0.09218  0.35367  1.0000
  O   O14       1.0  0.34971  0.10380  0.51193  1.0000
  H   H56       1.0  0.40488  0.15590  0.48062  1.0000
  H   H57       1.0  0.34927  0.08351  0.53337  1.0000
  C   C85       1.0  0.48585  0.74328  0.30420  1.0000
  C   C86       1.0  0.43293  0.68978  0.33419  1.0000
  C   C87       1.0  0.46575  0.70738  0.29597  1.0000
  N   N8        1.0  0.47733  0.68981  0.24992  1.0000
  H   H58       1.0  0.99603  0.70106  0.20893  1.0000
  H   H59       1.0  0.46533  0.66566  0.24739  1.0000
  H   H60       1.0  0.51190  0.80422  0.20896  1.0000
  C   C88       1.0  0.26332  0.74390  0.30449  1.0000
  C   C89       1.0  0.31685  0.74447  0.33382  1.0000
  C   C90       1.0  0.29922  0.75970  0.29588  1.0000
  C   C91       1.0  0.24464  0.76147  0.30459  1.0000
  C   C92       1.0  0.20873  0.74566  0.29645  1.0000
  C   C93       1.0  0.19114  0.76084  0.33497  1.0000
  N   N9        1.0  0.31675  0.78884  0.24975  1.0000
  N   N10       1.0  0.19114  0.71654  0.25029  1.0000
  H   H61       1.0  0.30545  0.79628  0.20890  1.0000
  H   H62       1.0  0.34089  0.80094  0.24689  1.0000
  H   H63       1.0  0.16698  0.70424  0.24829  1.0000
  H   H64       1.0  0.20235  0.70898  0.20949  1.0000
  C   C94       1.0  0.26278  0.52078  0.30421  1.0000
  C   C95       1.0  0.26220  0.57370  0.33414  1.0000
  C   C96       1.0  0.24698  0.54088  0.29596  1.0000
  C   C97       1.0  0.24521  0.98453  0.30429  1.0000
  C   C98       1.0  0.26100  0.96442  0.29580  1.0000
  C   C99       1.0  0.24574  0.93155  0.33370  1.0000
  N   N11       1.0  0.21782  0.52930  0.24991  1.0000
  N   N12       1.0  0.29017  0.97603  0.24980  1.0000
  H   H65       1.0  0.21035  0.01057  0.20900  1.0000
  H   H66       1.0  0.20563  0.54125  0.24742  1.0000
  H   H67       1.0  0.30225  0.96397  0.24691  1.0000
  H   H68       1.0  0.29759  0.49473  0.20884  1.0000
  C   C100      1.0  0.13569  0.74135  0.26420  1.0000
  C   C101      1.0  0.15593  0.74713  0.34120  1.0000
  O   O15       1.0  0.14891  0.74471  0.18057  1.0000
  H   H69       1.0  0.13471  0.72376  0.14829  1.0000
  C   C102      1.0  0.26593  0.86545  0.27068  1.0000
  C   C103      1.0  0.26519  0.89558  0.26304  1.0000
  C   C104      1.0  0.25955  0.91014  0.34004  1.0000
  H   H70       1.0  0.26522  0.85329  0.21263  1.0000
  O   O16       1.0  0.26184  0.90547  0.17944  1.0000
  H   H71       1.0  0.28271  0.91201  0.14698  1.0000
  C   C105      1.0  0.14096  0.90176  0.27078  1.0000
  H   H72       1.0  0.15307  0.91302  0.21251  1.0000
  C   C106      1.0  0.40312  0.76457  0.27046  1.0000
  C   C107      1.0  0.37226  0.76385  0.26293  1.0000
  C   C108      1.0  0.35207  0.75826  0.33994  1.0000
  H   H73       1.0  0.41455  0.76385  0.21236  1.0000
  O   O17       1.0  0.35900  0.76054  0.17936  1.0000
  H   H74       1.0  0.37333  0.78142  0.14695  1.0000
  C   C109      1.0  0.24185  0.63971  0.27077  1.0000
  C   C110      1.0  0.24269  0.60961  0.26346  1.0000
  C   C111      1.0  0.24841  0.59512  0.34047  1.0000
  H   H75       1.0  0.24267  0.65184  0.21257  1.0000
  O   O18       1.0  0.24610  0.59978  0.17983  1.0000
  H   H76       1.0  0.22516  0.59303  0.14747  1.0000
  C   C112      1.0  0.36681  0.60349  0.27072  1.0000
  C   C113      1.0  0.39694  0.63436  0.26326  1.0000
  C   C114      1.0  0.41148  0.65455  0.34029  1.0000
  H   H77       1.0  0.35469  0.59205  0.21260  1.0000
  O   O19       1.0  0.40688  0.64763  0.17970  1.0000
  H   H78       1.0  0.41344  0.63332  0.14726  1.0000
  C   C115      1.0  0.46785  0.75996  0.32648  1.0000
  C   C116      1.0  0.43392  0.74326  0.34991  1.0000
  C   C117      1.0  0.41785  0.70855  0.36001  1.0000
  H   H79       1.0  0.47973  0.78506  0.33618  1.0000
  H   H80       1.0  0.39296  0.69629  0.37641  1.0000
  C   C118      1.0  0.24664  0.70923  0.32683  1.0000
  C   C119      1.0  0.26337  0.69198  0.34969  1.0000
  C   C120      1.0  0.29810  0.71058  0.35929  1.0000
  H   H81       1.0  0.22155  0.69605  0.33677  1.0000
  H   H82       1.0  0.31036  0.69796  0.37575  1.0000
  C   C121      1.0  0.20992  0.79473  0.36042  1.0000
  C   C122      1.0  0.24463  0.81338  0.35025  1.0000
  C   C123      1.0  0.26133  0.79614  0.32690  1.0000
  H   H83       1.0  0.19769  0.80736  0.37712  1.0000
  H   H84       1.0  0.28644  0.80935  0.33643  1.0000
  C   C124      1.0  0.29746  0.53876  0.32642  1.0000
  C   C125      1.0  0.31467  0.57269  0.34996  1.0000
  C   C126      1.0  0.29602  0.58875  0.36015  1.0000
  H   H85       1.0  0.31065  0.52686  0.33643  1.0000
  H   H86       1.0  0.30866  0.61362  0.37679  1.0000
  C   C127      1.0  0.21188  0.91645  0.35936  1.0000
  C   C128      1.0  0.19327  0.93256  0.34950  1.0000
  C   C129      1.0  0.21053  0.96654  0.32662  1.0000
  H   H87       1.0  0.19926  0.89156  0.37580  1.0000
  H   H88       1.0  0.19735  0.97845  0.33646  1.0000
  C   C130      1.0  0.14280  0.74954  0.42502  1.0000
  H   H89       1.0  0.15725  0.75520  0.48144  1.0000
  C   C131      1.0  0.25716  0.89471  0.42405  1.0000
  C   C132      1.0  0.25691  0.86431  0.43113  1.0000
  C   C133      1.0  0.26038  0.84862  0.35373  1.0000
  O   O20       1.0  0.24860  0.84853  0.51200  1.0000
  H   H90       1.0  0.25165  0.90367  0.48039  1.0000
  H   H91       1.0  0.26845  0.84809  0.53343  1.0000
  C   C134      1.0  0.14244  0.89403  0.43107  1.0000
  C   C135      1.0  0.15805  0.91312  0.35350  1.0000
  O   O21       1.0  0.15838  0.90164  0.51171  1.0000
  H   H92       1.0  0.15861  0.92181  0.53333  1.0000
  C   C136      1.0  0.36514  0.75582  0.42388  1.0000
  C   C137      1.0  0.39528  0.75553  0.43088  1.0000
  C   C138      1.0  0.41441  0.75899  0.35344  1.0000
  O   O22       1.0  0.40276  0.74720  0.51171  1.0000
  H   H93       1.0  0.35070  0.75032  0.48027  1.0000
  H   H94       1.0  0.42303  0.76706  0.53319  1.0000
  C   C139      1.0  0.25077  0.61065  0.42430  1.0000
  C   C140      1.0  0.25113  0.64111  0.43099  1.0000
  C   C141      1.0  0.24761  0.65676  0.35355  1.0000
  O   O23       1.0  0.25950  0.65702  0.51168  1.0000
  H   H95       1.0  0.25640  0.60184  0.48074  1.0000
  H   H96       1.0  0.23958  0.65724  0.53344  1.0000
  C   C142      1.0  0.39595  0.64146  0.42421  1.0000
  C   C143      1.0  0.36554  0.61130  0.43114  1.0000
  C   C144      1.0  0.34991  0.59218  0.35367  1.0000
  O   O24       1.0  0.34971  0.60380  0.51193  1.0000
  H   H97       1.0  0.40488  0.65590  0.48062  1.0000
  H   H98       1.0  0.34927  0.58351  0.53337  1.0000
  C   C145      1.0  0.98585  0.24329  0.30420  1.0000
  C   C146      1.0  0.93293  0.18978  0.33419  1.0000
  C   C147      1.0  0.96575  0.20738  0.29597  1.0000
  C   C148      1.0  0.52210  0.26197  0.30415  1.0000
  C   C149      1.0  0.54219  0.29788  0.29606  1.0000
  C   C150      1.0  0.57493  0.31549  0.33473  1.0000
  N   N13       1.0  0.97733  0.18981  0.24992  1.0000
  N   N14       1.0  0.53066  0.31545  0.24981  1.0000
  H   H99       1.0  0.49603  0.20106  0.20893  1.0000
  H   H100      1.0  0.96533  0.16566  0.24739  1.0000
  H   H101      1.0  0.54249  0.33961  0.24787  1.0000
  C   C151      1.0  0.76332  0.24390  0.30449  1.0000
  C   C152      1.0  0.81685  0.24447  0.33382  1.0000
  C   C153      1.0  0.79921  0.25970  0.29588  1.0000
  C   C154      1.0  0.74464  0.26147  0.30459  1.0000
  C   C155      1.0  0.70873  0.24566  0.29645  1.0000
  C   C156      1.0  0.69114  0.26084  0.33497  1.0000
  N   N15       1.0  0.81675  0.28884  0.24975  1.0000
  N   N16       1.0  0.69114  0.21654  0.25029  1.0000
  H   H102      1.0  0.80545  0.29628  0.20890  1.0000
  H   H103      1.0  0.84089  0.30094  0.24689  1.0000
  H   H104      1.0  0.66698  0.20424  0.24829  1.0000
  H   H105      1.0  0.70235  0.20898  0.20949  1.0000
  C   C157      1.0  0.76278  0.02078  0.30421  1.0000
  C   C158      1.0  0.76220  0.07370  0.33414  1.0000
  C   C159      1.0  0.74698  0.04088  0.29596  1.0000
  C   C160      1.0  0.74521  0.48453  0.30429  1.0000
  C   C161      1.0  0.76100  0.46442  0.29580  1.0000
  C   C162      1.0  0.74574  0.43155  0.33370  1.0000
  N   N17       1.0  0.71783  0.02930  0.24991  1.0000
  N   N18       1.0  0.79017  0.47603  0.24980  1.0000
  H   H106      1.0  0.71035  0.51057  0.20900  1.0000
  H   H107      1.0  0.70563  0.04125  0.24742  1.0000
  H   H108      1.0  0.80225  0.46397  0.24691  1.0000
  H   H109      1.0  0.79759  0.99473  0.20884  1.0000
  C   C163      1.0  0.60475  0.24049  0.27151  1.0000
  C   C164      1.0  0.63569  0.24135  0.26420  1.0000
  C   C165      1.0  0.65593  0.24713  0.34120  1.0000
  H   H110      1.0  0.59341  0.24127  0.21331  1.0000
  O   O25       1.0  0.64891  0.24471  0.18057  1.0000
  H   H111      1.0  0.63471  0.22376  0.14829  1.0000
  C   C166      1.0  0.76593  0.36545  0.27068  1.0000
  C   C167      1.0  0.76519  0.39558  0.26304  1.0000
  C   C168      1.0  0.75955  0.41014  0.34004  1.0000
  H   H112      1.0  0.76522  0.35328  0.21263  1.0000
  O   O26       1.0  0.76184  0.40547  0.17944  1.0000
  H   H113      1.0  0.78271  0.41201  0.14698  1.0000
  C   C169      1.0  0.64096  0.40176  0.27078  1.0000
  C   C170      1.0  0.61085  0.37084  0.26364  1.0000
  C   C171      1.0  0.59643  0.35070  0.34082  1.0000
  H   H114      1.0  0.65307  0.41302  0.21251  1.0000
  O   O27       1.0  0.60098  0.35752  0.18009  1.0000
  H   H115      1.0  0.59425  0.37170  0.14762  1.0000
  C   C172      1.0  0.90312  0.26457  0.27046  1.0000
  C   C173      1.0  0.87226  0.26386  0.26293  1.0000
  C   C174      1.0  0.85208  0.25826  0.33994  1.0000
  H   H116      1.0  0.91455  0.26386  0.21236  1.0000
  O   O28       1.0  0.85900  0.26054  0.17936  1.0000
  H   H117      1.0  0.87333  0.28142  0.14695  1.0000
  C   C175      1.0  0.74185  0.13971  0.27077  1.0000
  C   C176      1.0  0.74269  0.10961  0.26346  1.0000
  C   C177      1.0  0.74842  0.09512  0.34047  1.0000
  H   H118      1.0  0.74268  0.15184  0.21257  1.0000
  O   O29       1.0  0.74610  0.09978  0.17983  1.0000
  H   H119      1.0  0.72516  0.09304  0.14747  1.0000
  C   C178      1.0  0.86681  0.10349  0.27072  1.0000
  C   C179      1.0  0.89694  0.13436  0.26326  1.0000
  C   C180      1.0  0.91148  0.15455  0.34029  1.0000
  H   H120      1.0  0.85469  0.09205  0.21260  1.0000
  O   O30       1.0  0.90688  0.14763  0.17970  1.0000
  H   H121      1.0  0.91344  0.13332  0.14726  1.0000
  C   C181      1.0  0.96785  0.25996  0.32648  1.0000
  C   C182      1.0  0.93392  0.24326  0.34991  1.0000
  C   C183      1.0  0.91785  0.20855  0.36001  1.0000
  H   H122      1.0  0.97973  0.28506  0.33618  1.0000
  H   H123      1.0  0.89296  0.19629  0.37641  1.0000
  C   C184      1.0  0.59000  0.29673  0.36058  1.0000
  C   C185      1.0  0.57401  0.26203  0.35023  1.0000
  C   C186      1.0  0.54010  0.24529  0.32644  1.0000
  H   H124      1.0  0.61484  0.30897  0.37755  1.0000
  H   H125      1.0  0.52822  0.22020  0.33635  1.0000
  C   C187      1.0  0.74664  0.20923  0.32683  1.0000
  C   C188      1.0  0.76337  0.19198  0.34969  1.0000
  C   C189      1.0  0.79810  0.21058  0.35929  1.0000
  H   H126      1.0  0.72155  0.19605  0.33677  1.0000
  H   H127      1.0  0.81036  0.19796  0.37575  1.0000
  C   C190      1.0  0.70992  0.29473  0.36042  1.0000
  C   C191      1.0  0.74463  0.31338  0.35025  1.0000
  C   C192      1.0  0.76133  0.29614  0.32690  1.0000
  H   H128      1.0  0.69769  0.30736  0.37712  1.0000
  H   H129      1.0  0.78645  0.30935  0.33643  1.0000
  C   C193      1.0  0.79746  0.03877  0.32642  1.0000
  C   C194      1.0  0.81467  0.07269  0.34996  1.0000
  C   C195      1.0  0.79602  0.08875  0.36015  1.0000
  H   H130      1.0  0.81065  0.02686  0.33643  1.0000
  H   H131      1.0  0.80866  0.11362  0.37679  1.0000
  C   C196      1.0  0.71188  0.41645  0.35936  1.0000
  C   C197      1.0  0.69327  0.43256  0.34950  1.0000
  C   C198      1.0  0.71054  0.46654  0.32662  1.0000
  H   H132      1.0  0.69926  0.39156  0.37580  1.0000
  H   H133      1.0  0.69735  0.47845  0.33646  1.0000
  C   C199      1.0  0.64279  0.24954  0.42502  1.0000
  C   C200      1.0  0.61269  0.24989  0.43176  1.0000
  C   C201      1.0  0.59351  0.24631  0.35432  1.0000
  O   O31       1.0  0.60516  0.25828  0.51242  1.0000
  H   H134      1.0  0.65725  0.25520  0.48144  1.0000
  H   H135      1.0  0.58499  0.23837  0.53416  1.0000
  C   C202      1.0  0.75716  0.39471  0.42405  1.0000
  C   C203      1.0  0.75691  0.36431  0.43113  1.0000
  C   C204      1.0  0.76038  0.34862  0.35373  1.0000
  O   O32       1.0  0.74860  0.34852  0.51200  1.0000
  H   H136      1.0  0.75165  0.40367  0.48039  1.0000
  H   H137      1.0  0.76845  0.34809  0.53343  1.0000
  C   C205      1.0  0.61196  0.36393  0.42458  1.0000
  C   C206      1.0  0.64244  0.39403  0.43107  1.0000
  C   C207      1.0  0.65805  0.41312  0.35350  1.0000
  O   O33       1.0  0.65838  0.40164  0.51171  1.0000
  H   H138      1.0  0.60317  0.34954  0.48111  1.0000
  H   H139      1.0  0.65862  0.42181  0.53333  1.0000
  C   C208      1.0  0.86514  0.25582  0.42388  1.0000
  C   C209      1.0  0.89528  0.25553  0.43088  1.0000
  C   C210      1.0  0.91441  0.25899  0.35344  1.0000
  O   O34       1.0  0.90276  0.24720  0.51171  1.0000
  H   H140      1.0  0.85070  0.25032  0.48027  1.0000
  H   H141      1.0  0.92303  0.26706  0.53319  1.0000
  C   C211      1.0  0.75077  0.11065  0.42430  1.0000
  C   C212      1.0  0.75113  0.14111  0.43099  1.0000
  C   C213      1.0  0.74761  0.15676  0.35355  1.0000
  O   O35       1.0  0.75951  0.15702  0.51168  1.0000
  H   H142      1.0  0.75640  0.10184  0.48074  1.0000
  H   H143      1.0  0.73958  0.15724  0.53344  1.0000
  C   C214      1.0  0.89595  0.14146  0.42421  1.0000
  C   C215      1.0  0.86554  0.11130  0.43114  1.0000
  C   C216      1.0  0.84991  0.09218  0.35367  1.0000
  O   O36       1.0  0.84971  0.10380  0.51193  1.0000
  H   H144      1.0  0.90488  0.15590  0.48062  1.0000
  H   H145      1.0  0.84927  0.08351  0.53337  1.0000
  C   C217      1.0  0.98585  0.74328  0.30420  1.0000
  C   C218      1.0  0.93293  0.68978  0.33419  1.0000
  C   C219      1.0  0.96575  0.70738  0.29597  1.0000
  C   C220      1.0  0.52210  0.76197  0.30415  1.0000
  C   C221      1.0  0.54219  0.79787  0.29606  1.0000
  C   C222      1.0  0.57493  0.81549  0.33473  1.0000
  N   N19       1.0  0.97733  0.68981  0.24992  1.0000
  N   N20       1.0  0.53066  0.81545  0.24981  1.0000
  H   H146      1.0  0.49603  0.70106  0.20893  1.0000
  H   H147      1.0  0.96533  0.66566  0.24739  1.0000
  H   H148      1.0  0.54248  0.83961  0.24787  1.0000
  C   C223      1.0  0.76332  0.74390  0.30449  1.0000
  C   C224      1.0  0.81685  0.74447  0.33382  1.0000
  C   C225      1.0  0.79921  0.75970  0.29588  1.0000
  C   C226      1.0  0.74464  0.76147  0.30459  1.0000
  C   C227      1.0  0.70873  0.74566  0.29645  1.0000
  C   C228      1.0  0.69114  0.76084  0.33497  1.0000
  N   N21       1.0  0.81675  0.78884  0.24975  1.0000
  N   N22       1.0  0.69114  0.71654  0.25029  1.0000
  H   H149      1.0  0.80545  0.79628  0.20890  1.0000
  H   H150      1.0  0.84089  0.80094  0.24689  1.0000
  H   H151      1.0  0.66698  0.70424  0.24829  1.0000
  H   H152      1.0  0.70235  0.70898  0.20949  1.0000
  C   C229      1.0  0.76278  0.52078  0.30421  1.0000
  C   C230      1.0  0.76220  0.57370  0.33414  1.0000
  C   C231      1.0  0.74698  0.54088  0.29596  1.0000
  C   C232      1.0  0.74521  0.98453  0.30429  1.0000
  C   C233      1.0  0.76100  0.96442  0.29580  1.0000
  C   C234      1.0  0.74574  0.93155  0.33370  1.0000
  N   N23       1.0  0.71782  0.52930  0.24991  1.0000
  N   N24       1.0  0.79017  0.97603  0.24980  1.0000
  H   H153      1.0  0.71035  0.01057  0.20900  1.0000
  H   H154      1.0  0.70562  0.54125  0.24742  1.0000
  H   H155      1.0  0.80225  0.96397  0.24691  1.0000
  H   H156      1.0  0.79759  0.49473  0.20884  1.0000
  C   C235      1.0  0.60475  0.74050  0.27151  1.0000
  C   C236      1.0  0.63569  0.74135  0.26420  1.0000
  C   C237      1.0  0.65593  0.74713  0.34120  1.0000
  H   H157      1.0  0.59341  0.74127  0.21331  1.0000
  O   O37       1.0  0.64891  0.74471  0.18057  1.0000
  H   H158      1.0  0.63471  0.72376  0.14829  1.0000
  C   C238      1.0  0.76593  0.86545  0.27068  1.0000
  C   C239      1.0  0.76518  0.89558  0.26304  1.0000
  C   C240      1.0  0.75955  0.91014  0.34004  1.0000
  H   H159      1.0  0.76522  0.85329  0.21263  1.0000
  O   O38       1.0  0.76184  0.90547  0.17944  1.0000
  H   H160      1.0  0.78271  0.91201  0.14698  1.0000
  C   C241      1.0  0.64096  0.90176  0.27078  1.0000
  C   C242      1.0  0.61085  0.87084  0.26364  1.0000
  C   C243      1.0  0.59643  0.85070  0.34082  1.0000
  H   H161      1.0  0.65307  0.91302  0.21251  1.0000
  O   O39       1.0  0.60098  0.85752  0.18009  1.0000
  H   H162      1.0  0.59425  0.87170  0.14762  1.0000
  C   C244      1.0  0.90312  0.76457  0.27046  1.0000
  C   C245      1.0  0.87226  0.76385  0.26293  1.0000
  C   C246      1.0  0.85207  0.75826  0.33994  1.0000
  H   H163      1.0  0.91455  0.76385  0.21236  1.0000
  O   O40       1.0  0.85900  0.76054  0.17936  1.0000
  H   H164      1.0  0.87333  0.78142  0.14695  1.0000
  C   C247      1.0  0.74185  0.63971  0.27077  1.0000
  C   C248      1.0  0.74269  0.60961  0.26346  1.0000
  C   C249      1.0  0.74842  0.59512  0.34047  1.0000
  H   H165      1.0  0.74267  0.65184  0.21257  1.0000
  O   O41       1.0  0.74610  0.59978  0.17983  1.0000
  H   H166      1.0  0.72516  0.59303  0.14747  1.0000
  C   C250      1.0  0.86681  0.60349  0.27072  1.0000
  C   C251      1.0  0.89694  0.63436  0.26326  1.0000
  C   C252      1.0  0.91148  0.65455  0.34029  1.0000
  H   H167      1.0  0.85469  0.59205  0.21260  1.0000
  O   O42       1.0  0.90688  0.64763  0.17970  1.0000
  H   H168      1.0  0.91344  0.63332  0.14726  1.0000
  C   C253      1.0  0.96785  0.75996  0.32648  1.0000
  C   C254      1.0  0.93392  0.74326  0.34991  1.0000
  C   C255      1.0  0.91785  0.70855  0.36001  1.0000
  H   H169      1.0  0.97973  0.78506  0.33618  1.0000
  H   H170      1.0  0.89296  0.69629  0.37641  1.0000
  C   C256      1.0  0.59000  0.79673  0.36058  1.0000
  C   C257      1.0  0.57401  0.76203  0.35023  1.0000
  C   C258      1.0  0.54010  0.74529  0.32644  1.0000
  H   H171      1.0  0.61484  0.80897  0.37755  1.0000
  H   H172      1.0  0.52821  0.72020  0.33635  1.0000
  C   C259      1.0  0.74664  0.70923  0.32683  1.0000
  C   C260      1.0  0.76337  0.69198  0.34969  1.0000
  C   C261      1.0  0.79810  0.71058  0.35929  1.0000
  H   H173      1.0  0.72155  0.69605  0.33677  1.0000
  H   H174      1.0  0.81036  0.69796  0.37575  1.0000
  C   C262      1.0  0.70992  0.79473  0.36042  1.0000
  C   C263      1.0  0.74463  0.81338  0.35025  1.0000
  C   C264      1.0  0.76133  0.79614  0.32690  1.0000
  H   H175      1.0  0.69769  0.80736  0.37712  1.0000
  H   H176      1.0  0.78644  0.80935  0.33643  1.0000
  C   C265      1.0  0.79746  0.53876  0.32642  1.0000
  C   C266      1.0  0.81468  0.57269  0.34996  1.0000
  C   C267      1.0  0.79602  0.58875  0.36015  1.0000
  H   H177      1.0  0.81065  0.52686  0.33643  1.0000
  H   H178      1.0  0.80866  0.61362  0.37679  1.0000
  C   C268      1.0  0.71188  0.91645  0.35936  1.0000
  C   C269      1.0  0.69327  0.93256  0.34950  1.0000
  C   C270      1.0  0.71054  0.96654  0.32662  1.0000
  H   H179      1.0  0.69926  0.89156  0.37580  1.0000
  H   H180      1.0  0.69735  0.97845  0.33646  1.0000
  C   C271      1.0  0.64279  0.74954  0.42502  1.0000
  C   C272      1.0  0.61269  0.74989  0.43176  1.0000
  C   C273      1.0  0.59351  0.74631  0.35432  1.0000
  O   O43       1.0  0.60515  0.75828  0.51242  1.0000
  H   H181      1.0  0.65725  0.75520  0.48144  1.0000
  H   H182      1.0  0.58499  0.73837  0.53416  1.0000
  C   C274      1.0  0.75716  0.89471  0.42405  1.0000
  C   C275      1.0  0.75691  0.86431  0.43113  1.0000
  C   C276      1.0  0.76037  0.84862  0.35373  1.0000
  O   O44       1.0  0.74860  0.84853  0.51200  1.0000
  H   H183      1.0  0.75165  0.90367  0.48039  1.0000
  H   H184      1.0  0.76845  0.84809  0.53343  1.0000
  C   C277      1.0  0.61196  0.86393  0.42458  1.0000
  C   C278      1.0  0.64243  0.89403  0.43107  1.0000
  C   C279      1.0  0.65805  0.91312  0.35350  1.0000
  O   O45       1.0  0.65838  0.90164  0.51171  1.0000
  H   H185      1.0  0.60317  0.84954  0.48111  1.0000
  H   H186      1.0  0.65861  0.92181  0.53333  1.0000
  C   C280      1.0  0.86514  0.75582  0.42388  1.0000
  C   C281      1.0  0.89528  0.75553  0.43088  1.0000
  C   C282      1.0  0.91441  0.75899  0.35344  1.0000
  O   O46       1.0  0.90276  0.74720  0.51171  1.0000
  H   H187      1.0  0.85069  0.75032  0.48027  1.0000
  H   H188      1.0  0.92303  0.76706  0.53319  1.0000
  C   C283      1.0  0.75077  0.61065  0.42430  1.0000
  C   C284      1.0  0.75113  0.64111  0.43099  1.0000
  C   C285      1.0  0.74761  0.65676  0.35355  1.0000
  O   O47       1.0  0.75950  0.65702  0.51168  1.0000
  H   H189      1.0  0.75641  0.60184  0.48074  1.0000
  H   H190      1.0  0.73958  0.65724  0.53344  1.0000
  C   C286      1.0  0.89595  0.64146  0.42421  1.0000
  C   C287      1.0  0.86554  0.61130  0.43114  1.0000
  C   C288      1.0  0.84991  0.59218  0.35367  1.0000
  O   O48       1.0  0.84971  0.60380  0.51193  1.0000
  H   H191      1.0  0.90488  0.65590  0.48062  1.0000
  H   H192      1.0  0.84927  0.58351  0.53337  1.0000
