data_image0
_chemical_formula_structural       C2OHC2H2C3OH2C3OH2C3HOHC3HOHC3HOHC3HOHC3HOHC3HOHC24H15C24H15C24H15C24H15C24H15C24H15C2OHC3HOHC3HOHC3OH2C3OH2C3OH2C3OH2C3OH2C3OH2
_chemical_formula_sum              "C198 O18 H126"
_cell_length_a       61.5883
_cell_length_b       61.5884
_cell_length_c       14.988
_cell_angle_alpha    90
_cell_angle_beta     90
_cell_angle_gamma    120

_space_group_name_H-M_alt    "P 1"
_space_group_IT_number       1

loop_
  _space_group_symop_operation_xyz
  'x, y, z'

loop_
  _atom_site_type_symbol
  _atom_site_label
  _atom_site_symmetry_multiplicity
  _atom_site_fract_x
  _atom_site_fract_y
  _atom_site_fract_z
  _atom_site_occupancy
  C   C1        1.0  0.01278  0.50574  0.25091  1.0000
  C   C2        1.0  0.01460  0.50750  0.41280  1.0000
  O   O1        1.0  0.02342  0.51127  0.16829  1.0000
  H   H1        1.0  0.02454  0.51285  0.47122  1.0000
  C   C3        1.0  0.98640  0.49231  0.25562  1.0000
  C   C4        1.0  0.02737  0.51342  0.33005  1.0000
  H   H2        1.0  0.97645  0.48689  0.19722  1.0000
  H   H3        1.0  0.02778  0.52867  0.15580  1.0000
  C   C5        1.0  0.50751  0.49328  0.25542  1.0000
  C   C6        1.0  0.49457  0.50676  0.25061  1.0000
  C   C7        1.0  0.48764  0.51437  0.32982  1.0000
  O   O2        1.0  0.48706  0.51030  0.16900  1.0000
  H   H4        1.0  0.51209  0.48792  0.19700  1.0000
  H   H5        1.0  0.50224  0.52255  0.13704  1.0000
  C   C8        1.0  0.50769  0.01442  0.25536  1.0000
  C   C9        1.0  0.49421  0.98800  0.25055  1.0000
  C   C10       1.0  0.48658  0.97346  0.32976  1.0000
  O   O3        1.0  0.49067  0.97694  0.16896  1.0000
  H   H6        1.0  0.51305  0.02436  0.19695  1.0000
  H   H7        1.0  0.47844  0.97989  0.13694  1.0000
  C   C11       1.0  0.28057  0.53741  0.25733  1.0000
  C   C12       1.0  0.25766  0.53738  0.25558  1.0000
  C   C13       1.0  0.24191  0.52965  0.33184  1.0000
  H   H8        1.0  0.29268  0.54545  0.20492  1.0000
  O   O4        1.0  0.25322  0.54858  0.18509  1.0000
  H   H9        1.0  0.24726  0.53630  0.13618  1.0000
  C   C14       1.0  0.46365  0.74344  0.25676  1.0000
  C   C15       1.0  0.46361  0.72053  0.25513  1.0000
  C   C16       1.0  0.47133  0.71250  0.33139  1.0000
  H   H10       1.0  0.45552  0.74747  0.20452  1.0000
  O   O5        1.0  0.45230  0.70486  0.18476  1.0000
  H   H11       1.0  0.46456  0.71110  0.13577  1.0000
  C   C17       1.0  0.25762  0.72035  0.25563  1.0000
  C   C18       1.0  0.28051  0.74325  0.25404  1.0000
  C   C19       1.0  0.28848  0.75899  0.33030  1.0000
  H   H12       1.0  0.25359  0.70824  0.20325  1.0000
  O   O6        1.0  0.29621  0.74767  0.18374  1.0000
  H   H13       1.0  0.28994  0.75366  0.13471  1.0000
  C   C20       1.0  0.72909  0.48071  0.26248  1.0000
  C   C21       1.0  0.75213  0.48107  0.26142  1.0000
  C   C22       1.0  0.75921  0.47142  0.33485  1.0000
  H   H14       1.0  0.72359  0.48606  0.20610  1.0000
  O   O7        1.0  0.76586  0.48866  0.18485  1.0000
  H   H15       1.0  0.78095  0.50475  0.19853  1.0000
  C   C23       1.0  0.52035  0.24867  0.26329  1.0000
  C   C24       1.0  0.51996  0.27134  0.26246  1.0000
  C   C25       1.0  0.52965  0.28806  0.33591  1.0000
  H   H16       1.0  0.51490  0.23779  0.20698  1.0000
  O   O8        1.0  0.51224  0.27746  0.18616  1.0000
  H   H17       1.0  0.49615  0.27642  0.20017  1.0000
  C   C26       1.0  0.75236  0.27180  0.26416  1.0000
  C   C27       1.0  0.72968  0.24874  0.26327  1.0000
  C   C28       1.0  0.71293  0.24173  0.33661  1.0000
  H   H18       1.0  0.76322  0.27724  0.20781  1.0000
  O   O9        1.0  0.72357  0.23494  0.18688  1.0000
  H   H19       1.0  0.72456  0.21986  0.20089  1.0000
  C   C29       1.0  0.17507  0.60764  0.33559  1.0000
  C   C30       1.0  0.14868  0.59428  0.32806  1.0000
  C   C31       1.0  0.13486  0.56768  0.32737  1.0000
  C   C32       1.0  0.14837  0.55461  0.33179  1.0000
  C   C33       1.0  0.17479  0.56744  0.33861  1.0000
  C   C34       1.0  0.18776  0.59391  0.33999  1.0000
  C   C35       1.0  0.10801  0.55439  0.32606  1.0000
  C   C36       1.0  0.09424  0.56241  0.37878  1.0000
  C   C37       1.0  0.06787  0.54910  0.37952  1.0000
  C   C38       1.0  0.05416  0.52713  0.32780  1.0000
  C   C39       1.0  0.06785  0.51901  0.27528  1.0000
  C   C40       1.0  0.09424  0.53241  0.27423  1.0000
  C   C41       1.0  0.18903  0.63430  0.34030  1.0000
  C   C42       1.0  0.18751  0.64938  0.27224  1.0000
  C   C43       1.0  0.20416  0.67548  0.27098  1.0000
  C   C44       1.0  0.22238  0.68728  0.33875  1.0000
  C   C45       1.0  0.22313  0.67223  0.40863  1.0000
  C   C46       1.0  0.20672  0.64621  0.40947  1.0000
  C   C47       1.0  0.18855  0.55454  0.34426  1.0000
  C   C48       1.0  0.20689  0.56096  0.41150  1.0000
  C   C49       1.0  0.22343  0.55150  0.40965  1.0000
  C   C50       1.0  0.22223  0.53533  0.34039  1.0000
  C   C51       1.0  0.20314  0.52798  0.27543  1.0000
  C   C52       1.0  0.18639  0.53730  0.27767  1.0000
  H   H20       1.0  0.20349  0.68571  0.21832  1.0000
  H   H21       1.0  0.17545  0.64130  0.21979  1.0000
  H   H22       1.0  0.23668  0.67983  0.45692  1.0000
  H   H23       1.0  0.20852  0.63586  0.45938  1.0000
  H   H24       1.0  0.20913  0.57354  0.46037  1.0000
  H   H25       1.0  0.23744  0.55790  0.45630  1.0000
  H   H26       1.0  0.17383  0.53282  0.22657  1.0000
  H   H27       1.0  0.20197  0.51659  0.22372  1.0000
  H   H28       1.0  0.10332  0.52596  0.23452  1.0000
  H   H29       1.0  0.05871  0.50295  0.23821  1.0000
  H   H30       1.0  0.05874  0.55571  0.41823  1.0000
  H   H31       1.0  0.10328  0.57782  0.41904  1.0000
  H   H32       1.0  0.13941  0.60418  0.32454  1.0000
  H   H33       1.0  0.20697  0.60344  0.34281  1.0000
  H   H34       1.0  0.13885  0.53543  0.33403  1.0000
  C   C53       1.0  0.39326  0.56759  0.33697  1.0000
  C   C54       1.0  0.40664  0.55457  0.32946  1.0000
  C   C55       1.0  0.43324  0.56741  0.32808  1.0000
  C   C56       1.0  0.44628  0.59399  0.33193  1.0000
  C   C57       1.0  0.43344  0.60755  0.33886  1.0000
  C   C58       1.0  0.40697  0.59402  0.34084  1.0000
  C   C59       1.0  0.44657  0.55390  0.32660  1.0000
  C   C60       1.0  0.43887  0.53237  0.38050  1.0000
  C   C61       1.0  0.45225  0.51937  0.38105  1.0000
  C   C62       1.0  0.47391  0.52741  0.32784  1.0000
  C   C63       1.0  0.48172  0.54897  0.27419  1.0000
  C   C64       1.0  0.46828  0.56191  0.27343  1.0000
  C   C65       1.0  0.36661  0.55487  0.34199  1.0000
  C   C66       1.0  0.35149  0.53820  0.27411  1.0000
  C   C67       1.0  0.32539  0.52877  0.27298  1.0000
  C   C68       1.0  0.31364  0.53528  0.34064  1.0000
  C   C69       1.0  0.32871  0.55112  0.41039  1.0000
  C   C70       1.0  0.35474  0.56072  0.41110  1.0000
  C   C71       1.0  0.44631  0.63421  0.34417  1.0000
  C   C72       1.0  0.43998  0.64619  0.41145  1.0000
  C   C73       1.0  0.44942  0.67219  0.40931  1.0000
  C   C74       1.0  0.46557  0.68711  0.33993  1.0000
  C   C75       1.0  0.47287  0.67533  0.27498  1.0000
  C   C76       1.0  0.46348  0.64925  0.27731  1.0000
  H   H35       1.0  0.31514  0.51785  0.22038  1.0000
  H   H36       1.0  0.35954  0.53419  0.22168  1.0000
  H   H37       1.0  0.32115  0.55713  0.45855  1.0000
  H   H38       1.0  0.36512  0.57292  0.46084  1.0000
  H   H39       1.0  0.42742  0.63590  0.46043  1.0000
  H   H40       1.0  0.44310  0.67985  0.45605  1.0000
  H   H41       1.0  0.46794  0.64113  0.22628  1.0000
  H   H42       1.0  0.48422  0.68550  0.22313  1.0000
  H   H43       1.0  0.47449  0.57727  0.23295  1.0000
  H   H44       1.0  0.49759  0.55574  0.23612  1.0000
  H   H45       1.0  0.44590  0.50384  0.42071  1.0000
  H   H46       1.0  0.42366  0.52616  0.42168  1.0000
  H   H47       1.0  0.39678  0.53540  0.32637  1.0000
  H   H48       1.0  0.39742  0.60368  0.34369  1.0000
  H   H49       1.0  0.46548  0.60367  0.33367  1.0000
  C   C77       1.0  0.43338  0.82587  0.33674  1.0000
  C   C78       1.0  0.44639  0.85227  0.32929  1.0000
  C   C79       1.0  0.43355  0.86603  0.32798  1.0000
  C   C80       1.0  0.40697  0.85249  0.33177  1.0000
  C   C81       1.0  0.39341  0.82608  0.33862  1.0000
  C   C82       1.0  0.40694  0.81314  0.34058  1.0000
  C   C83       1.0  0.44706  0.89287  0.32652  1.0000
  C   C84       1.0  0.46858  0.90669  0.38042  1.0000
  C   C85       1.0  0.48157  0.93306  0.38101  1.0000
  C   C86       1.0  0.47354  0.94669  0.32778  1.0000
  C   C87       1.0  0.45199  0.93295  0.27408  1.0000
  C   C88       1.0  0.43905  0.90656  0.27332  1.0000
  C   C89       1.0  0.44610  0.81194  0.34164  1.0000
  C   C90       1.0  0.46279  0.81354  0.27379  1.0000
  C   C91       1.0  0.47223  0.79688  0.27254  1.0000
  C   C92       1.0  0.46576  0.77862  0.34019  1.0000
  C   C93       1.0  0.44988  0.77780  0.40989  1.0000
  C   C94       1.0  0.44027  0.79422  0.41072  1.0000
  C   C95       1.0  0.36674  0.81228  0.34377  1.0000
  C   C96       1.0  0.35473  0.79394  0.41093  1.0000
  C   C97       1.0  0.32873  0.77740  0.40869  1.0000
  C   C98       1.0  0.31386  0.77863  0.33912  1.0000
  C   C99       1.0  0.32566  0.79773  0.27429  1.0000
  C   C100      1.0  0.35174  0.81443  0.27681  1.0000
  H   H50       1.0  0.48319  0.79760  0.22002  1.0000
  H   H51       1.0  0.46681  0.82562  0.22141  1.0000
  H   H52       1.0  0.44387  0.76420  0.45798  1.0000
  H   H53       1.0  0.42802  0.79233  0.46038  1.0000
  H   H54       1.0  0.36501  0.79165  0.45992  1.0000
  H   H55       1.0  0.32107  0.76336  0.45519  1.0000
  H   H56       1.0  0.35988  0.82706  0.22594  1.0000
  H   H57       1.0  0.31551  0.79894  0.22242  1.0000
  H   H58       1.0  0.42369  0.89742  0.23285  1.0000
  H   H59       1.0  0.44522  0.94205  0.23602  1.0000
  H   H60       1.0  0.49711  0.94225  0.42070  1.0000
  H   H61       1.0  0.47478  0.89768  0.42166  1.0000
  H   H62       1.0  0.46556  0.86158  0.32625  1.0000
  H   H63       1.0  0.39729  0.79393  0.34333  1.0000
  H   H64       1.0  0.39728  0.86200  0.33351  1.0000
  C   C101      1.0  0.82627  0.39318  0.32954  1.0000
  C   C102      1.0  0.85268  0.40675  0.33645  1.0000
  C   C103      1.0  0.86620  0.43333  0.34016  1.0000
  C   C104      1.0  0.85243  0.44616  0.33876  1.0000
  C   C105      1.0  0.82604  0.43313  0.33133  1.0000
  C   C106      1.0  0.81332  0.40669  0.32753  1.0000
  C   C107      1.0  0.89305  0.44685  0.34161  1.0000
  C   C108      1.0  0.90675  0.43885  0.39480  1.0000
  C   C109      1.0  0.93313  0.45181  0.39407  1.0000
  C   C110      1.0  0.94687  0.47336  0.34038  1.0000
  C   C111      1.0  0.93324  0.48139  0.28716  1.0000
  C   C112      1.0  0.90687  0.46838  0.28770  1.0000
  C   C113      1.0  0.81249  0.36651  0.32445  1.0000
  C   C114      1.0  0.81465  0.35152  0.39145  1.0000
  C   C115      1.0  0.79795  0.32544  0.39404  1.0000
  C   C116      1.0  0.77886  0.31361  0.32915  1.0000
  C   C117      1.0  0.77762  0.32848  0.25959  1.0000
  C   C118      1.0  0.79414  0.35449  0.25733  1.0000
  C   C119      1.0  0.81209  0.44584  0.32637  1.0000
  C   C120      1.0  0.79433  0.43995  0.25740  1.0000
  C   C121      1.0  0.77792  0.44958  0.25816  1.0000
  C   C122      1.0  0.77875  0.46550  0.32774  1.0000
  C   C123      1.0  0.79704  0.47200  0.39534  1.0000
  C   C124      1.0  0.81368  0.46254  0.39418  1.0000
  H   H65       1.0  0.79917  0.31530  0.44588  1.0000
  H   H66       1.0  0.82728  0.35967  0.44230  1.0000
  H   H67       1.0  0.76357  0.32081  0.21311  1.0000
  H   H68       1.0  0.79184  0.36475  0.20833  1.0000
  H   H69       1.0  0.79247  0.42774  0.20769  1.0000
  H   H70       1.0  0.76433  0.44357  0.21002  1.0000
  H   H71       1.0  0.82581  0.46662  0.44645  1.0000
  H   H72       1.0  0.79778  0.48300  0.44777  1.0000
  H   H73       1.0  0.89785  0.47458  0.24652  1.0000
  H   H74       1.0  0.94242  0.49692  0.24748  1.0000
  H   H75       1.0  0.94224  0.44504  0.43211  1.0000
  H   H76       1.0  0.89761  0.42350  0.43530  1.0000
  H   H77       1.0  0.86220  0.39708  0.33468  1.0000
  H   H78       1.0  0.79411  0.39703  0.32479  1.0000
  H   H79       1.0  0.86174  0.46533  0.34178  1.0000
  C   C125      1.0  0.60779  0.43339  0.32956  1.0000
  C   C126      1.0  0.59419  0.44620  0.33652  1.0000
  C   C127      1.0  0.56761  0.43311  0.34082  1.0000
  C   C128      1.0  0.55484  0.40651  0.34003  1.0000
  C   C129      1.0  0.56789  0.39317  0.33245  1.0000
  C   C130      1.0  0.59432  0.40692  0.32808  1.0000
  C   C131      1.0  0.55404  0.44640  0.34215  1.0000
  C   C132      1.0  0.56223  0.46836  0.39401  1.0000
  C   C133      1.0  0.54924  0.48176  0.39297  1.0000
  C   C134      1.0  0.52743  0.47364  0.34043  1.0000
  C   C135      1.0  0.51919  0.45168  0.28869  1.0000
  C   C136      1.0  0.53225  0.43838  0.28942  1.0000
  C   C137      1.0  0.63445  0.44629  0.32397  1.0000
  C   C138      1.0  0.64952  0.46350  0.39067  1.0000
  C   C139      1.0  0.67560  0.47287  0.39291  1.0000
  C   C140      1.0  0.68735  0.46552  0.32800  1.0000
  C   C141      1.0  0.67239  0.44932  0.25877  1.0000
  C   C142      1.0  0.64639  0.43990  0.25675  1.0000
  C   C143      1.0  0.55521  0.36651  0.32765  1.0000
  C   C144      1.0  0.56101  0.35463  0.25843  1.0000
  C   C145      1.0  0.55141  0.32861  0.25919  1.0000
  C   C146      1.0  0.53559  0.31354  0.32898  1.0000
  C   C147      1.0  0.52912  0.32530  0.39675  1.0000
  C   C148      1.0  0.53860  0.35140  0.39568  1.0000
  H   H80       1.0  0.68582  0.48430  0.44454  1.0000
  H   H81       1.0  0.64144  0.46804  0.44159  1.0000
  H   H82       1.0  0.68001  0.44293  0.21212  1.0000
  H   H83       1.0  0.63607  0.42729  0.20793  1.0000
  H   H84       1.0  0.57316  0.36499  0.20856  1.0000
  H   H85       1.0  0.55736  0.32102  0.21086  1.0000
  H   H86       1.0  0.53458  0.35947  0.44805  1.0000
  H   H87       1.0  0.51822  0.31505  0.44937  1.0000
  H   H88       1.0  0.52589  0.42297  0.24913  1.0000
  H   H89       1.0  0.50345  0.44507  0.24995  1.0000
  H   H90       1.0  0.55615  0.49782  0.43006  1.0000
  H   H91       1.0  0.57776  0.47482  0.43373  1.0000
  H   H92       1.0  0.60384  0.46538  0.33420  1.0000
  H   H93       1.0  0.60400  0.39740  0.32524  1.0000
  H   H94       1.0  0.53567  0.39660  0.34348  1.0000
  C   C149      1.0  0.56762  0.17461  0.32970  1.0000
  C   C150      1.0  0.55479  0.14820  0.33658  1.0000
  C   C151      1.0  0.56786  0.13468  0.34085  1.0000
  C   C152      1.0  0.59446  0.14850  0.34011  1.0000
  C   C153      1.0  0.60782  0.17489  0.33258  1.0000
  C   C154      1.0  0.59409  0.18759  0.32823  1.0000
  C   C155      1.0  0.55456  0.10783  0.34214  1.0000
  C   C156      1.0  0.53259  0.09405  0.39396  1.0000
  C   C157      1.0  0.51918  0.06767  0.39289  1.0000
  C   C158      1.0  0.52730  0.05398  0.34038  1.0000
  C   C159      1.0  0.54927  0.06769  0.28867  1.0000
  C   C160      1.0  0.56259  0.09406  0.28943  1.0000
  C   C161      1.0  0.55473  0.18838  0.32423  1.0000
  C   C162      1.0  0.53755  0.18626  0.39105  1.0000
  C   C163      1.0  0.52821  0.20299  0.39343  1.0000
  C   C164      1.0  0.53553  0.22208  0.32851  1.0000
  C   C165      1.0  0.55169  0.22330  0.25918  1.0000
  C   C166      1.0  0.56113  0.20674  0.25710  1.0000
  C   C167      1.0  0.63448  0.18885  0.32790  1.0000
  C   C168      1.0  0.64639  0.20655  0.25877  1.0000
  C   C169      1.0  0.67242  0.22295  0.25960  1.0000
  C   C170      1.0  0.68746  0.22220  0.32952  1.0000
  C   C171      1.0  0.67566  0.20398  0.39728  1.0000
  C   C172      1.0  0.64955  0.18734  0.39602  1.0000
  H   H95       1.0  0.51682  0.20179  0.44516  1.0000
  H   H96       1.0  0.53302  0.17363  0.44195  1.0000
  H   H97       1.0  0.55807  0.23731  0.21252  1.0000
  H   H98       1.0  0.57368  0.20898  0.20812  1.0000
  H   H99       1.0  0.63605  0.20836  0.20887  1.0000
  H   H100      1.0  0.68001  0.23652  0.21140  1.0000
  H   H101      1.0  0.64146  0.17524  0.44835  1.0000
  H   H102      1.0  0.68588  0.20329  0.44991  1.0000
  H   H103      1.0  0.57800  0.10310  0.24917  1.0000
  H   H104      1.0  0.55589  0.05857  0.24997  1.0000
  H   H105      1.0  0.50312  0.05852  0.42994  1.0000
  H   H106      1.0  0.52613  0.10313  0.43365  1.0000
  H   H107      1.0  0.53561  0.13867  0.33427  1.0000
  H   H108      1.0  0.60362  0.20679  0.32545  1.0000
  H   H109      1.0  0.60436  0.13923  0.34357  1.0000
  C   C173      1.0  0.98818  0.49402  0.41761  1.0000
  C   C174      1.0  0.97365  0.48641  0.33840  1.0000
  O   O10       1.0  0.97712  0.49047  0.49922  1.0000
  H   H110      1.0  0.98007  0.47823  0.53119  1.0000
  C   C175      1.0  0.49450  0.50847  0.41260  1.0000
  C   C176      1.0  0.50745  0.49504  0.41732  1.0000
  C   C177      1.0  0.51436  0.48735  0.33818  1.0000
  H   H111      1.0  0.48996  0.51388  0.47100  1.0000
  O   O11       1.0  0.51255  0.48951  0.49993  1.0000
  H   H112      1.0  0.49952  0.47211  0.51243  1.0000
  C   C178      1.0  0.49246  0.98621  0.41254  1.0000
  C   C179      1.0  0.50589  0.01260  0.41726  1.0000
  C   C180      1.0  0.51359  0.02719  0.33812  1.0000
  H   H113      1.0  0.48704  0.97626  0.47094  1.0000
  O   O12       1.0  0.51141  0.02323  0.49989  1.0000
  H   H114      1.0  0.52881  0.02759  0.51241  1.0000
  C   C181      1.0  0.24878  0.52015  0.40593  1.0000
  C   C182      1.0  0.27143  0.51972  0.40695  1.0000
  C   C183      1.0  0.28817  0.52939  0.33357  1.0000
  O   O13       1.0  0.27752  0.51205  0.48343  1.0000
  H   H115      1.0  0.23788  0.51472  0.46218  1.0000
  H   H116      1.0  0.27652  0.49597  0.46959  1.0000
  C   C184      1.0  0.48090  0.72890  0.40536  1.0000
  C   C185      1.0  0.48132  0.75197  0.40643  1.0000
  C   C186      1.0  0.47165  0.75904  0.33307  1.0000
  O   O14       1.0  0.48902  0.76575  0.48286  1.0000
  H   H117      1.0  0.48630  0.72341  0.46167  1.0000
  H   H118      1.0  0.50512  0.78080  0.46899  1.0000
  C   C187      1.0  0.27205  0.75213  0.40420  1.0000
  C   C188      1.0  0.24896  0.72949  0.40504  1.0000
  C   C189      1.0  0.24192  0.71275  0.33169  1.0000
  O   O15       1.0  0.23514  0.72341  0.48140  1.0000
  H   H119      1.0  0.27749  0.76303  0.46047  1.0000
  H   H120      1.0  0.22007  0.72441  0.46735  1.0000
  C   C190      1.0  0.74363  0.46350  0.41120  1.0000
  C   C191      1.0  0.72074  0.46352  0.41288  1.0000
  C   C192      1.0  0.71272  0.47122  0.33657  1.0000
  O   O16       1.0  0.70510  0.45234  0.48341  1.0000
  H   H121      1.0  0.74767  0.45544  0.46360  1.0000
  H   H122      1.0  0.71144  0.46465  0.53227  1.0000
  C   C193      1.0  0.53770  0.28041  0.41198  1.0000
  C   C194      1.0  0.53763  0.25748  0.41356  1.0000
  C   C195      1.0  0.52987  0.24177  0.33722  1.0000
  O   O17       1.0  0.54889  0.25305  0.48390  1.0000
  H   H123      1.0  0.54576  0.29251  0.46442  1.0000
  H   H124      1.0  0.53661  0.24703  0.53285  1.0000
  C   C196      1.0  0.72057  0.25740  0.41274  1.0000
  C   C197      1.0  0.74346  0.28030  0.41427  1.0000
  C   C198      1.0  0.75920  0.28825  0.33800  1.0000
  O   O18       1.0  0.74790  0.29601  0.48452  1.0000
  H   H125      1.0  0.70844  0.25341  0.46505  1.0000
  H   H126      1.0  0.75387  0.28975  0.53358  1.0000
