data_image0
_chemical_formula_structural       C6SiC9H11C3HCH4CH4C9H5C3HCH3C5HC2H2C6SiC9H11C3HCH4CH4C9H5C3HCH3C5HC2H2C6SiC9H11C3HCH4CH4C9H5C3HCH3C5HC2H2C6SiC9H11C3HCH4CH4C9H5C3HCH3C5HC2H2C6SiC9H11C3HCH4CH4C9H5C3HCH3C5HC2H2C6SiC9H11C3HCH4CH4C9H5C3HCH3C5HC2H2C6SiC9H11C3HCH4CH4C9H5C3HCH3C5HC2H2C6SiC9H11C3HCH4CH4C9H5C3HCH3C5HC2H2C6SiC9H11C3HCH4CH4C9H5C3HCH3C5HC2H2
_chemical_formula_sum              "C360 Si9 H288"
_cell_length_a       36.4564
_cell_length_b       36.457
_cell_length_c       15.0976
_cell_angle_alpha    90
_cell_angle_beta     90
_cell_angle_gamma    89.9302

_space_group_name_H-M_alt    "P 1"
_space_group_IT_number       1

loop_
  _space_group_symop_operation_xyz
  'x, y, z'

loop_
  _atom_site_type_symbol
  _atom_site_label
  _atom_site_symmetry_multiplicity
  _atom_site_fract_x
  _atom_site_fract_y
  _atom_site_fract_z
  _atom_site_occupancy
  C   C1        1.0  0.00487  0.23100  0.27189  1.0000
  C   C2        1.0  0.03692  0.24864  0.24154  1.0000
  C   C3        1.0  0.03414  0.27889  0.18449  1.0000
  C   C4        1.0  0.99938  0.29199  0.15685  1.0000
  C   C5        1.0  0.30092  0.27696  0.19660  1.0000
  C   C6        1.0  0.30354  0.24615  0.25192  1.0000
  Si  Si1       1.0  0.99656  0.99668  0.09766  1.0000
  C   C7        1.0  0.00076  0.02681  0.17904  1.0000
  C   C8        1.0  0.30307  0.03761  0.22912  1.0000
  C   C9        1.0  0.30669  0.06289  0.29878  1.0000
  C   C10       1.0  0.00817  0.07771  0.31891  1.0000
  C   C11       1.0  0.03973  0.06038  0.28373  1.0000
  C   C12       1.0  0.03591  0.03600  0.21218  1.0000
  C   C13       1.0  0.02707  0.00029  0.01699  1.0000
  C   C14       1.0  0.29221  0.33374  0.03743  1.0000
  C   C15       1.0  0.27805  0.03542  0.01528  1.0000
  H   H1        1.0  0.28822  0.05880  0.04349  1.0000
  H   H2        1.0  0.28928  0.27709  0.00191  1.0000
  H   H3        1.0  0.02887  0.05875  0.01540  1.0000
  H   H4        1.0  0.05927  0.02737  0.18086  1.0000
  H   H5        1.0  0.06507  0.07175  0.29353  1.0000
  H   H6        1.0  0.28341  0.07548  0.32160  1.0000
  H   H7        1.0  0.27717  0.02983  0.21116  1.0000
  H   H8        1.0  0.27530  0.28673  0.18208  1.0000
  H   H9        1.0  0.05792  0.28992  0.16032  1.0000
  H   H10       1.0  0.06215  0.23694  0.25109  1.0000
  H   H11       1.0  0.27996  0.23295  0.27022  1.0000
  C   C16       1.0  0.00652  0.19298  0.28644  1.0000
  C   C17       1.0  0.00839  0.16911  0.21221  1.0000
  C   C18       1.0  0.01004  0.13138  0.22876  1.0000
  H   H12       1.0  0.01091  0.11406  0.17517  1.0000
  C   C19       1.0  0.00809  0.18015  0.11681  1.0000
  H   H13       1.0  0.00497  0.20943  0.10583  1.0000
  H   H14       1.0  0.31867  0.16670  0.08284  1.0000
  H   H15       1.0  0.03371  0.17161  0.08554  1.0000
  H   H16       1.0  0.11479  0.33276  0.01933  1.0000
  C   C20       1.0  0.18116  0.33092  0.07640  1.0000
  H   H17       1.0  0.21063  0.33086  0.08688  1.0000
  H   H18       1.0  0.17068  0.30482  0.10122  1.0000
  H   H19       1.0  0.16971  0.01970  0.11655  1.0000
  H   H20       1.0  0.13912  0.32520  0.33953  1.0000
  C   C21       1.0  0.24753  0.03866  0.62583  1.0000
  C   C22       1.0  0.23160  0.34030  0.58848  1.0000
  C   C23       1.0  0.24838  0.30583  0.60132  1.0000
  C   C24       1.0  0.27870  0.30272  0.65799  1.0000
  C   C25       1.0  0.03721  0.30241  0.63348  1.0000
  C   C26       1.0  0.06212  0.30550  0.56286  1.0000
  C   C27       1.0  0.07822  0.00659  0.54378  1.0000
  C   C28       1.0  0.06195  0.03847  0.58006  1.0000
  C   C29       1.0  0.03714  0.03523  0.65086  1.0000
  H   H21       1.0  0.23480  0.06359  0.62038  1.0000
  H   H22       1.0  0.23619  0.28234  0.57872  1.0000
  H   H23       1.0  0.02902  0.27666  0.65167  1.0000
  H   H24       1.0  0.07420  0.28192  0.54024  1.0000
  H   H25       1.0  0.07401  0.06349  0.57017  1.0000
  C   C30       1.0  0.00926  0.11656  0.31547  1.0000
  C   C31       1.0  0.33957  0.14042  0.38941  1.0000
  C   C32       1.0  0.33863  0.17870  0.37351  1.0000
  H   H26       1.0  0.33662  0.19642  0.42597  1.0000
  C   C33       1.0  0.33721  0.12727  0.48246  1.0000
  H   H27       1.0  0.33829  0.09748  0.48783  1.0000
  H   H28       1.0  0.31147  0.13651  0.51198  1.0000
  H   H29       1.0  0.02662  0.13845  0.52086  1.0000
  C   C34       1.0  0.11703  0.00628  0.54662  1.0000
  C   C35       1.0  0.14074  0.01025  0.47271  1.0000
  C   C36       1.0  0.17905  0.01071  0.48823  1.0000
  C   C37       1.0  0.19349  0.34044  0.57471  1.0000
  C   C38       1.0  0.16981  0.33583  0.64863  1.0000
  H   H30       1.0  0.19667  0.01358  0.43582  1.0000
  C   C39       1.0  0.13201  0.33574  0.63265  1.0000
  C   C40       1.0  0.12743  0.01374  0.38006  1.0000
  H   H31       1.0  0.09769  0.01193  0.37490  1.0000
  H   H32       1.0  0.13594  0.04013  0.35285  1.0000
  C   C41       1.0  0.00487  0.56434  0.27189  1.0000
  C   C42       1.0  0.03692  0.58198  0.24154  1.0000
  C   C43       1.0  0.03414  0.61223  0.18449  1.0000
  C   C44       1.0  0.99938  0.62532  0.15685  1.0000
  C   C45       1.0  0.30092  0.61030  0.19660  1.0000
  C   C46       1.0  0.30354  0.57948  0.25192  1.0000
  Si  Si2       1.0  0.99654  0.33002  0.09766  1.0000
  C   C47       1.0  0.00075  0.36014  0.17904  1.0000
  C   C48       1.0  0.30307  0.37095  0.22912  1.0000
  C   C49       1.0  0.30668  0.39623  0.29878  1.0000
  C   C50       1.0  0.00817  0.41105  0.31891  1.0000
  C   C51       1.0  0.03973  0.39371  0.28372  1.0000
  C   C52       1.0  0.03590  0.36933  0.21218  1.0000
  C   C53       1.0  0.02706  0.33363  0.01699  1.0000
  C   C54       1.0  0.29221  0.66708  0.03743  1.0000
  C   C55       1.0  0.27804  0.36875  0.01528  1.0000
  H   H33       1.0  0.28821  0.39214  0.04349  1.0000
  H   H34       1.0  0.28928  0.61042  0.00191  1.0000
  H   H35       1.0  0.02885  0.39208  0.01541  1.0000
  H   H36       1.0  0.05926  0.36070  0.18086  1.0000
  H   H37       1.0  0.06507  0.40508  0.29353  1.0000
  H   H38       1.0  0.28340  0.40882  0.32160  1.0000
  H   H39       1.0  0.27715  0.36317  0.21117  1.0000
  H   H40       1.0  0.27530  0.62006  0.18208  1.0000
  H   H41       1.0  0.05792  0.62325  0.16032  1.0000
  H   H42       1.0  0.06215  0.57027  0.25109  1.0000
  H   H43       1.0  0.27996  0.56628  0.27022  1.0000
  C   C56       1.0  0.00652  0.52631  0.28644  1.0000
  C   C57       1.0  0.00839  0.50244  0.21221  1.0000
  C   C58       1.0  0.01004  0.46471  0.22876  1.0000
  H   H44       1.0  0.01091  0.44740  0.17517  1.0000
  C   C59       1.0  0.00809  0.51348  0.11681  1.0000
  H   H45       1.0  0.00497  0.54277  0.10583  1.0000
  H   H46       1.0  0.31867  0.50004  0.08284  1.0000
  H   H47       1.0  0.03371  0.50494  0.08554  1.0000
  H   H48       1.0  0.11479  0.66609  0.01933  1.0000
  C   C60       1.0  0.18116  0.66425  0.07640  1.0000
  H   H49       1.0  0.21063  0.66419  0.08688  1.0000
  H   H50       1.0  0.17068  0.63816  0.10122  1.0000
  H   H51       1.0  0.16970  0.35303  0.11655  1.0000
  H   H52       1.0  0.13912  0.65853  0.33953  1.0000
  C   C61       1.0  0.24752  0.37199  0.62581  1.0000
  C   C62       1.0  0.23160  0.67363  0.58848  1.0000
  C   C63       1.0  0.24838  0.63916  0.60132  1.0000
  C   C64       1.0  0.27870  0.63606  0.65799  1.0000
  C   C65       1.0  0.03721  0.63574  0.63348  1.0000
  C   C66       1.0  0.06212  0.63883  0.56286  1.0000
  C   C67       1.0  0.07821  0.33992  0.54379  1.0000
  C   C68       1.0  0.06195  0.37180  0.58007  1.0000
  C   C69       1.0  0.03713  0.36857  0.65087  1.0000
  H   H53       1.0  0.23479  0.39693  0.62036  1.0000
  H   H54       1.0  0.23619  0.61567  0.57872  1.0000
  H   H55       1.0  0.02902  0.60999  0.65167  1.0000
  H   H56       1.0  0.07420  0.61526  0.54024  1.0000
  H   H57       1.0  0.07400  0.39682  0.57019  1.0000
  C   C70       1.0  0.00926  0.44989  0.31547  1.0000
  C   C71       1.0  0.33957  0.47375  0.38941  1.0000
  C   C72       1.0  0.33863  0.51203  0.37351  1.0000
  H   H58       1.0  0.33662  0.52975  0.42597  1.0000
  C   C73       1.0  0.33721  0.46060  0.48246  1.0000
  H   H59       1.0  0.33829  0.43082  0.48783  1.0000
  H   H60       1.0  0.31146  0.46984  0.51198  1.0000
  H   H61       1.0  0.02662  0.47179  0.52086  1.0000
  C   C74       1.0  0.11702  0.33961  0.54663  1.0000
  C   C75       1.0  0.14073  0.34358  0.47271  1.0000
  C   C76       1.0  0.17904  0.34404  0.48822  1.0000
  C   C77       1.0  0.19349  0.67377  0.57471  1.0000
  C   C78       1.0  0.16981  0.66917  0.64863  1.0000
  H   H62       1.0  0.19665  0.34691  0.43581  1.0000
  C   C79       1.0  0.13200  0.66907  0.63265  1.0000
  C   C80       1.0  0.12741  0.34707  0.38006  1.0000
  H   H63       1.0  0.09767  0.34526  0.37492  1.0000
  H   H64       1.0  0.13592  0.37346  0.35285  1.0000
  C   C81       1.0  0.00487  0.89767  0.27189  1.0000
  C   C82       1.0  0.03693  0.91531  0.24154  1.0000
  C   C83       1.0  0.03415  0.94556  0.18449  1.0000
  C   C84       1.0  0.99940  0.95866  0.15685  1.0000
  C   C85       1.0  0.30093  0.94363  0.19660  1.0000
  C   C86       1.0  0.30354  0.91282  0.25192  1.0000
  Si  Si3       1.0  0.99654  0.66335  0.09766  1.0000
  C   C87       1.0  0.00075  0.69348  0.17904  1.0000
  C   C88       1.0  0.30307  0.70428  0.22912  1.0000
  C   C89       1.0  0.30668  0.72956  0.29878  1.0000
  C   C90       1.0  0.00817  0.74438  0.31891  1.0000
  C   C91       1.0  0.03973  0.72705  0.28372  1.0000
  C   C92       1.0  0.03590  0.70267  0.21218  1.0000
  C   C93       1.0  0.02706  0.66696  0.01699  1.0000
  C   C94       1.0  0.29222  0.00041  0.03743  1.0000
  C   C95       1.0  0.27804  0.70208  0.01528  1.0000
  H   H65       1.0  0.28821  0.72547  0.04349  1.0000
  H   H66       1.0  0.28930  0.94375  0.00191  1.0000
  H   H67       1.0  0.02885  0.72542  0.01541  1.0000
  H   H68       1.0  0.05926  0.69403  0.18086  1.0000
  H   H69       1.0  0.06507  0.73841  0.29353  1.0000
  H   H70       1.0  0.28340  0.74216  0.32161  1.0000
  H   H71       1.0  0.27715  0.69650  0.21117  1.0000
  H   H72       1.0  0.27531  0.95340  0.18207  1.0000
  H   H73       1.0  0.05793  0.95658  0.16032  1.0000
  H   H74       1.0  0.06216  0.90360  0.25109  1.0000
  H   H75       1.0  0.27996  0.89962  0.27022  1.0000
  C   C96       1.0  0.00653  0.85964  0.28644  1.0000
  C   C97       1.0  0.00839  0.83577  0.21221  1.0000
  C   C98       1.0  0.01004  0.79805  0.22876  1.0000
  H   H76       1.0  0.01091  0.78073  0.17517  1.0000
  C   C99       1.0  0.00809  0.84681  0.11681  1.0000
  H   H77       1.0  0.00497  0.87610  0.10583  1.0000
  H   H78       1.0  0.31867  0.83337  0.08284  1.0000
  H   H79       1.0  0.03371  0.83827  0.08554  1.0000
  H   H80       1.0  0.11479  0.99943  0.01932  1.0000
  C   C100      1.0  0.18116  0.99758  0.07640  1.0000
  H   H81       1.0  0.21063  0.99753  0.08690  1.0000
  H   H82       1.0  0.17068  0.97149  0.10122  1.0000
  H   H83       1.0  0.16970  0.68637  0.11655  1.0000
  H   H84       1.0  0.13914  0.99186  0.33952  1.0000
  C   C101      1.0  0.24752  0.70532  0.62581  1.0000
  C   C102      1.0  0.23161  0.00696  0.58850  1.0000
  C   C103      1.0  0.24839  0.97249  0.60134  1.0000
  C   C104      1.0  0.27872  0.96939  0.65799  1.0000
  C   C105      1.0  0.03723  0.96908  0.63347  1.0000
  C   C106      1.0  0.06213  0.97216  0.56285  1.0000
  C   C107      1.0  0.07821  0.67326  0.54379  1.0000
  C   C108      1.0  0.06195  0.70514  0.58007  1.0000
  C   C109      1.0  0.03713  0.70190  0.65087  1.0000
  H   H85       1.0  0.23479  0.73026  0.62036  1.0000
  H   H86       1.0  0.23620  0.94900  0.57874  1.0000
  H   H87       1.0  0.02903  0.94332  0.65166  1.0000
  H   H88       1.0  0.07421  0.94859  0.54022  1.0000
  H   H89       1.0  0.07400  0.73015  0.57019  1.0000
  C   C110      1.0  0.00926  0.78322  0.31547  1.0000
  C   C111      1.0  0.33957  0.80709  0.38941  1.0000
  C   C112      1.0  0.33863  0.84537  0.37351  1.0000
  H   H90       1.0  0.33662  0.86308  0.42597  1.0000
  C   C113      1.0  0.33721  0.79393  0.48246  1.0000
  H   H91       1.0  0.33828  0.76415  0.48783  1.0000
  H   H92       1.0  0.31146  0.80317  0.51198  1.0000
  H   H93       1.0  0.02662  0.80512  0.52086  1.0000
  C   C114      1.0  0.11702  0.67295  0.54663  1.0000
  C   C115      1.0  0.14073  0.67691  0.47271  1.0000
  C   C116      1.0  0.17904  0.67738  0.48822  1.0000
  C   C117      1.0  0.19350  0.00710  0.57472  1.0000
  C   C118      1.0  0.16982  0.00250  0.64863  1.0000
  H   H94       1.0  0.19665  0.68024  0.43581  1.0000
  C   C119      1.0  0.13201  0.00240  0.63265  1.0000
  C   C120      1.0  0.12741  0.68040  0.38006  1.0000
  H   H95       1.0  0.09767  0.67859  0.37492  1.0000
  H   H96       1.0  0.13592  0.70679  0.35285  1.0000
  C   C121      1.0  0.33820  0.23100  0.27189  1.0000
  C   C122      1.0  0.37025  0.24864  0.24154  1.0000
  C   C123      1.0  0.36747  0.27889  0.18449  1.0000
  C   C124      1.0  0.33272  0.29199  0.15685  1.0000
  C   C125      1.0  0.63426  0.27696  0.19660  1.0000
  C   C126      1.0  0.63687  0.24615  0.25192  1.0000
  Si  Si4       1.0  0.32989  0.99668  0.09766  1.0000
  C   C127      1.0  0.33410  0.02681  0.17904  1.0000
  C   C128      1.0  0.63641  0.03761  0.22912  1.0000
  C   C129      1.0  0.64002  0.06289  0.29878  1.0000
  C   C130      1.0  0.34150  0.07771  0.31891  1.0000
  C   C131      1.0  0.37307  0.06038  0.28373  1.0000
  C   C132      1.0  0.36924  0.03600  0.21218  1.0000
  C   C133      1.0  0.36041  0.00029  0.01699  1.0000
  C   C134      1.0  0.62554  0.33374  0.03743  1.0000
  C   C135      1.0  0.61139  0.03542  0.01528  1.0000
  H   H97       1.0  0.62156  0.05880  0.04349  1.0000
  H   H98       1.0  0.62262  0.27709  0.00191  1.0000
  H   H99       1.0  0.36220  0.05875  0.01540  1.0000
  H   H100      1.0  0.39260  0.02737  0.18086  1.0000
  H   H101      1.0  0.39841  0.07175  0.29353  1.0000
  H   H102      1.0  0.61674  0.07548  0.32160  1.0000
  H   H103      1.0  0.61050  0.02983  0.21116  1.0000
  H   H104      1.0  0.60863  0.28673  0.18208  1.0000
  H   H105      1.0  0.39125  0.28992  0.16032  1.0000
  H   H106      1.0  0.39548  0.23694  0.25109  1.0000
  H   H107      1.0  0.61329  0.23295  0.27022  1.0000
  C   C136      1.0  0.33986  0.19298  0.28644  1.0000
  C   C137      1.0  0.34172  0.16911  0.21221  1.0000
  C   C138      1.0  0.34337  0.13138  0.22876  1.0000
  H   H108      1.0  0.34425  0.11406  0.17517  1.0000
  C   C139      1.0  0.34142  0.18015  0.11681  1.0000
  H   H109      1.0  0.33831  0.20943  0.10583  1.0000
  H   H110      1.0  0.65201  0.16670  0.08284  1.0000
  H   H111      1.0  0.36704  0.17161  0.08554  1.0000
  H   H112      1.0  0.44812  0.33276  0.01933  1.0000
  C   C140      1.0  0.51449  0.33092  0.07640  1.0000
  H   H113      1.0  0.54396  0.33086  0.08688  1.0000
  H   H114      1.0  0.50401  0.30482  0.10122  1.0000
  H   H115      1.0  0.50304  0.01970  0.11655  1.0000
  H   H116      1.0  0.47245  0.32520  0.33953  1.0000
  C   C141      1.0  0.58086  0.03866  0.62583  1.0000
  C   C142      1.0  0.56493  0.34030  0.58848  1.0000
  C   C143      1.0  0.58172  0.30583  0.60132  1.0000
  C   C144      1.0  0.61204  0.30272  0.65799  1.0000
  C   C145      1.0  0.37055  0.30241  0.63348  1.0000
  C   C146      1.0  0.39545  0.30550  0.56286  1.0000
  C   C147      1.0  0.41155  0.00659  0.54378  1.0000
  C   C148      1.0  0.39529  0.03847  0.58006  1.0000
  C   C149      1.0  0.37048  0.03523  0.65086  1.0000
  H   H117      1.0  0.56813  0.06359  0.62038  1.0000
  H   H118      1.0  0.56953  0.28234  0.57872  1.0000
  H   H119      1.0  0.36235  0.27666  0.65167  1.0000
  H   H120      1.0  0.40754  0.28192  0.54024  1.0000
  H   H121      1.0  0.40734  0.06349  0.57017  1.0000
  C   C150      1.0  0.34260  0.11656  0.31547  1.0000
  C   C151      1.0  0.67290  0.14042  0.38941  1.0000
  C   C152      1.0  0.67196  0.17870  0.37351  1.0000
  H   H122      1.0  0.66995  0.19642  0.42597  1.0000
  C   C153      1.0  0.67054  0.12727  0.48246  1.0000
  H   H123      1.0  0.67162  0.09748  0.48783  1.0000
  H   H124      1.0  0.64480  0.13651  0.51198  1.0000
  H   H125      1.0  0.35996  0.13845  0.52086  1.0000
  C   C154      1.0  0.45036  0.00628  0.54662  1.0000
  C   C155      1.0  0.47408  0.01025  0.47271  1.0000
  C   C156      1.0  0.51238  0.01071  0.48823  1.0000
  C   C157      1.0  0.52682  0.34044  0.57471  1.0000
  C   C158      1.0  0.50314  0.33583  0.64863  1.0000
  H   H126      1.0  0.53000  0.01358  0.43582  1.0000
  C   C159      1.0  0.46534  0.33574  0.63265  1.0000
  C   C160      1.0  0.46076  0.01374  0.38006  1.0000
  H   H127      1.0  0.43102  0.01193  0.37490  1.0000
  H   H128      1.0  0.46927  0.04013  0.35285  1.0000
  C   C161      1.0  0.33820  0.56434  0.27189  1.0000
  C   C162      1.0  0.37026  0.58198  0.24154  1.0000
  C   C163      1.0  0.36747  0.61223  0.18449  1.0000
  C   C164      1.0  0.33272  0.62532  0.15685  1.0000
  C   C165      1.0  0.63426  0.61030  0.19660  1.0000
  C   C166      1.0  0.63687  0.57948  0.25192  1.0000
  Si  Si5       1.0  0.32988  0.33002  0.09766  1.0000
  C   C167      1.0  0.33408  0.36014  0.17904  1.0000
  C   C168      1.0  0.63640  0.37095  0.22912  1.0000
  C   C169      1.0  0.64002  0.39623  0.29878  1.0000
  C   C170      1.0  0.34150  0.41105  0.31891  1.0000
  C   C171      1.0  0.37306  0.39371  0.28372  1.0000
  C   C172      1.0  0.36923  0.36933  0.21218  1.0000
  C   C173      1.0  0.36040  0.33363  0.01699  1.0000
  C   C174      1.0  0.62554  0.66708  0.03743  1.0000
  C   C175      1.0  0.61138  0.36875  0.01528  1.0000
  H   H129      1.0  0.62154  0.39214  0.04349  1.0000
  H   H130      1.0  0.62262  0.61042  0.00191  1.0000
  H   H131      1.0  0.36219  0.39208  0.01541  1.0000
  H   H132      1.0  0.39259  0.36070  0.18086  1.0000
  H   H133      1.0  0.39840  0.40508  0.29353  1.0000
  H   H134      1.0  0.61674  0.40882  0.32160  1.0000
  H   H135      1.0  0.61049  0.36317  0.21117  1.0000
  H   H136      1.0  0.60863  0.62006  0.18208  1.0000
  H   H137      1.0  0.39125  0.62325  0.16032  1.0000
  H   H138      1.0  0.39548  0.57027  0.25109  1.0000
  H   H139      1.0  0.61329  0.56628  0.27022  1.0000
  C   C176      1.0  0.33986  0.52631  0.28644  1.0000
  C   C177      1.0  0.34172  0.50244  0.21221  1.0000
  C   C178      1.0  0.34337  0.46471  0.22876  1.0000
  H   H140      1.0  0.34425  0.44740  0.17517  1.0000
  C   C179      1.0  0.34142  0.51348  0.11681  1.0000
  H   H141      1.0  0.33831  0.54277  0.10583  1.0000
  H   H142      1.0  0.65201  0.50004  0.08284  1.0000
  H   H143      1.0  0.36704  0.50494  0.08554  1.0000
  H   H144      1.0  0.44812  0.66609  0.01933  1.0000
  C   C180      1.0  0.51449  0.66425  0.07640  1.0000
  H   H145      1.0  0.54396  0.66419  0.08688  1.0000
  H   H146      1.0  0.50401  0.63816  0.10122  1.0000
  H   H147      1.0  0.50304  0.35303  0.11655  1.0000
  H   H148      1.0  0.47245  0.65853  0.33953  1.0000
  C   C181      1.0  0.58086  0.37199  0.62581  1.0000
  C   C182      1.0  0.56493  0.67363  0.58848  1.0000
  C   C183      1.0  0.58172  0.63916  0.60132  1.0000
  C   C184      1.0  0.61204  0.63606  0.65799  1.0000
  C   C185      1.0  0.37055  0.63574  0.63348  1.0000
  C   C186      1.0  0.39545  0.63883  0.56286  1.0000
  C   C187      1.0  0.41154  0.33992  0.54379  1.0000
  C   C188      1.0  0.39528  0.37180  0.58007  1.0000
  C   C189      1.0  0.37046  0.36857  0.65087  1.0000
  H   H149      1.0  0.56812  0.39693  0.62036  1.0000
  H   H150      1.0  0.56953  0.61567  0.57872  1.0000
  H   H151      1.0  0.36235  0.60999  0.65167  1.0000
  H   H152      1.0  0.40754  0.61526  0.54024  1.0000
  H   H153      1.0  0.40733  0.39682  0.57019  1.0000
  C   C190      1.0  0.34259  0.44989  0.31547  1.0000
  C   C191      1.0  0.67290  0.47375  0.38941  1.0000
  C   C192      1.0  0.67197  0.51203  0.37351  1.0000
  H   H154      1.0  0.66996  0.52975  0.42597  1.0000
  C   C193      1.0  0.67054  0.46060  0.48246  1.0000
  H   H155      1.0  0.67162  0.43082  0.48783  1.0000
  H   H156      1.0  0.64480  0.46984  0.51198  1.0000
  H   H157      1.0  0.35996  0.47179  0.52086  1.0000
  C   C194      1.0  0.45036  0.33961  0.54663  1.0000
  C   C195      1.0  0.47406  0.34358  0.47271  1.0000
  C   C196      1.0  0.51237  0.34404  0.48822  1.0000
  C   C197      1.0  0.52682  0.67377  0.57471  1.0000
  C   C198      1.0  0.50314  0.66917  0.64863  1.0000
  H   H158      1.0  0.52999  0.34691  0.43581  1.0000
  C   C199      1.0  0.46534  0.66907  0.63265  1.0000
  C   C200      1.0  0.46075  0.34707  0.38006  1.0000
  H   H159      1.0  0.43100  0.34526  0.37492  1.0000
  H   H160      1.0  0.46925  0.37346  0.35285  1.0000
  C   C201      1.0  0.33820  0.89767  0.27189  1.0000
  C   C202      1.0  0.37027  0.91531  0.24154  1.0000
  C   C203      1.0  0.36748  0.94556  0.18449  1.0000
  C   C204      1.0  0.33273  0.95866  0.15685  1.0000
  C   C205      1.0  0.63427  0.94363  0.19660  1.0000
  C   C206      1.0  0.63688  0.91282  0.25192  1.0000
  Si  Si6       1.0  0.32988  0.66335  0.09766  1.0000
  C   C207      1.0  0.33408  0.69348  0.17904  1.0000
  C   C208      1.0  0.63640  0.70428  0.22912  1.0000
  C   C209      1.0  0.64002  0.72956  0.29878  1.0000
  C   C210      1.0  0.34150  0.74438  0.31891  1.0000
  C   C211      1.0  0.37306  0.72705  0.28372  1.0000
  C   C212      1.0  0.36923  0.70267  0.21218  1.0000
  C   C213      1.0  0.36039  0.66696  0.01699  1.0000
  C   C214      1.0  0.62555  0.00041  0.03743  1.0000
  C   C215      1.0  0.61138  0.70208  0.01528  1.0000
  H   H161      1.0  0.62154  0.72547  0.04349  1.0000
  H   H162      1.0  0.62263  0.94375  0.00191  1.0000
  H   H163      1.0  0.36219  0.72542  0.01541  1.0000
  H   H164      1.0  0.39259  0.69403  0.18086  1.0000
  H   H165      1.0  0.39840  0.73841  0.29353  1.0000
  H   H166      1.0  0.61674  0.74216  0.32161  1.0000
  H   H167      1.0  0.61049  0.69650  0.21117  1.0000
  H   H168      1.0  0.60864  0.95340  0.18207  1.0000
  H   H169      1.0  0.39126  0.95658  0.16032  1.0000
  H   H170      1.0  0.39549  0.90360  0.25109  1.0000
  H   H171      1.0  0.61330  0.89962  0.27022  1.0000
  C   C216      1.0  0.33986  0.85964  0.28644  1.0000
  C   C217      1.0  0.34172  0.83577  0.21221  1.0000
  C   C218      1.0  0.34337  0.79805  0.22876  1.0000
  H   H172      1.0  0.34424  0.78073  0.17517  1.0000
  C   C219      1.0  0.34142  0.84681  0.11681  1.0000
  H   H173      1.0  0.33831  0.87610  0.10583  1.0000
  H   H174      1.0  0.65201  0.83337  0.08284  1.0000
  H   H175      1.0  0.36704  0.83827  0.08554  1.0000
  H   H176      1.0  0.44813  0.99943  0.01932  1.0000
  C   C220      1.0  0.51449  0.99758  0.07640  1.0000
  H   H177      1.0  0.54397  0.99753  0.08690  1.0000
  H   H178      1.0  0.50401  0.97149  0.10122  1.0000
  H   H179      1.0  0.50304  0.68637  0.11655  1.0000
  H   H180      1.0  0.47247  0.99186  0.33952  1.0000
  C   C221      1.0  0.58086  0.70532  0.62581  1.0000
  C   C222      1.0  0.56494  0.00696  0.58850  1.0000
  C   C223      1.0  0.58173  0.97249  0.60134  1.0000
  C   C224      1.0  0.61205  0.96939  0.65799  1.0000
  C   C225      1.0  0.37056  0.96908  0.63347  1.0000
  C   C226      1.0  0.39546  0.97216  0.56285  1.0000
  C   C227      1.0  0.41154  0.67326  0.54379  1.0000
  C   C228      1.0  0.39528  0.70514  0.58007  1.0000
  C   C229      1.0  0.37046  0.70190  0.65087  1.0000
  H   H181      1.0  0.56812  0.73026  0.62036  1.0000
  H   H182      1.0  0.56954  0.94900  0.57874  1.0000
  H   H183      1.0  0.36237  0.94332  0.65166  1.0000
  H   H184      1.0  0.40755  0.94859  0.54022  1.0000
  H   H185      1.0  0.40733  0.73015  0.57019  1.0000
  C   C230      1.0  0.34259  0.78322  0.31547  1.0000
  C   C231      1.0  0.67290  0.80709  0.38941  1.0000
  C   C232      1.0  0.67197  0.84537  0.37351  1.0000
  H   H186      1.0  0.66996  0.86308  0.42597  1.0000
  C   C233      1.0  0.67054  0.79393  0.48246  1.0000
  H   H187      1.0  0.67162  0.76415  0.48783  1.0000
  H   H188      1.0  0.64480  0.80317  0.51198  1.0000
  H   H189      1.0  0.35996  0.80512  0.52086  1.0000
  C   C234      1.0  0.45036  0.67295  0.54663  1.0000
  C   C235      1.0  0.47406  0.67691  0.47271  1.0000
  C   C236      1.0  0.51237  0.67738  0.48822  1.0000
  C   C237      1.0  0.52683  0.00710  0.57472  1.0000
  C   C238      1.0  0.50315  0.00250  0.64863  1.0000
  H   H190      1.0  0.52999  0.68024  0.43581  1.0000
  C   C239      1.0  0.46535  0.00240  0.63265  1.0000
  C   C240      1.0  0.46075  0.68040  0.38006  1.0000
  H   H191      1.0  0.43100  0.67859  0.37492  1.0000
  H   H192      1.0  0.46925  0.70679  0.35285  1.0000
  C   C241      1.0  0.67153  0.23100  0.27189  1.0000
  C   C242      1.0  0.70359  0.24864  0.24154  1.0000
  C   C243      1.0  0.70080  0.27889  0.18449  1.0000
  C   C244      1.0  0.66605  0.29199  0.15685  1.0000
  C   C245      1.0  0.96759  0.27696  0.19660  1.0000
  C   C246      1.0  0.97020  0.24615  0.25192  1.0000
  Si  Si7       1.0  0.66323  0.99668  0.09766  1.0000
  C   C247      1.0  0.66743  0.02681  0.17904  1.0000
  C   C248      1.0  0.96974  0.03761  0.22912  1.0000
  C   C249      1.0  0.97336  0.06289  0.29878  1.0000
  C   C250      1.0  0.67484  0.07771  0.31891  1.0000
  C   C251      1.0  0.70640  0.06038  0.28373  1.0000
  C   C252      1.0  0.70258  0.03600  0.21218  1.0000
  C   C253      1.0  0.69374  0.00029  0.01699  1.0000
  C   C254      1.0  0.95887  0.33374  0.03743  1.0000
  C   C255      1.0  0.94472  0.03542  0.01528  1.0000
  H   H193      1.0  0.95489  0.05880  0.04349  1.0000
  H   H194      1.0  0.95595  0.27709  0.00191  1.0000
  H   H195      1.0  0.69554  0.05875  0.01540  1.0000
  H   H196      1.0  0.72594  0.02737  0.18086  1.0000
  H   H197      1.0  0.73174  0.07175  0.29353  1.0000
  H   H198      1.0  0.95007  0.07548  0.32160  1.0000
  H   H199      1.0  0.94383  0.02983  0.21116  1.0000
  H   H200      1.0  0.94197  0.28673  0.18208  1.0000
  H   H201      1.0  0.72458  0.28992  0.16032  1.0000
  H   H202      1.0  0.72882  0.23694  0.25109  1.0000
  H   H203      1.0  0.94662  0.23295  0.27022  1.0000
  C   C256      1.0  0.67319  0.19298  0.28644  1.0000
  C   C257      1.0  0.67506  0.16911  0.21221  1.0000
  C   C258      1.0  0.67671  0.13138  0.22876  1.0000
  H   H204      1.0  0.67758  0.11406  0.17517  1.0000
  C   C259      1.0  0.67475  0.18015  0.11681  1.0000
  H   H205      1.0  0.67164  0.20943  0.10583  1.0000
  H   H206      1.0  0.98534  0.16670  0.08284  1.0000
  H   H207      1.0  0.70037  0.17161  0.08554  1.0000
  H   H208      1.0  0.78146  0.33276  0.01933  1.0000
  C   C260      1.0  0.84782  0.33092  0.07640  1.0000
  H   H209      1.0  0.87730  0.33086  0.08688  1.0000
  H   H210      1.0  0.83734  0.30482  0.10122  1.0000
  H   H211      1.0  0.83637  0.01970  0.11655  1.0000
  H   H212      1.0  0.80579  0.32520  0.33953  1.0000
  C   C261      1.0  0.91420  0.03866  0.62583  1.0000
  C   C262      1.0  0.89827  0.34030  0.58848  1.0000
  C   C263      1.0  0.91505  0.30583  0.60132  1.0000
  C   C264      1.0  0.94537  0.30272  0.65799  1.0000
  C   C265      1.0  0.70388  0.30241  0.63348  1.0000
  C   C266      1.0  0.72878  0.30550  0.56286  1.0000
  C   C267      1.0  0.74489  0.00659  0.54378  1.0000
  C   C268      1.0  0.72862  0.03847  0.58006  1.0000
  C   C269      1.0  0.70381  0.03523  0.65086  1.0000
  H   H213      1.0  0.90147  0.06359  0.62038  1.0000
  H   H214      1.0  0.90286  0.28234  0.57872  1.0000
  H   H215      1.0  0.69569  0.27666  0.65167  1.0000
  H   H216      1.0  0.74087  0.28192  0.54024  1.0000
  H   H217      1.0  0.74068  0.06349  0.57017  1.0000
  C   C270      1.0  0.67593  0.11656  0.31547  1.0000
  C   C271      1.0  0.00624  0.14042  0.38941  1.0000
  C   C272      1.0  0.00530  0.17870  0.37351  1.0000
  H   H218      1.0  0.00329  0.19642  0.42597  1.0000
  C   C273      1.0  0.00388  0.12727  0.48246  1.0000
  H   H219      1.0  0.00495  0.09748  0.48783  1.0000
  H   H220      1.0  0.97813  0.13651  0.51198  1.0000
  H   H221      1.0  0.69329  0.13845  0.52086  1.0000
  C   C274      1.0  0.78370  0.00628  0.54662  1.0000
  C   C275      1.0  0.80741  0.01025  0.47271  1.0000
  C   C276      1.0  0.84571  0.01071  0.48823  1.0000
  C   C277      1.0  0.86016  0.34044  0.57471  1.0000
  C   C278      1.0  0.83648  0.33583  0.64863  1.0000
  H   H222      1.0  0.86334  0.01358  0.43582  1.0000
  C   C279      1.0  0.79867  0.33574  0.63265  1.0000
  C   C280      1.0  0.79409  0.01374  0.38006  1.0000
  H   H223      1.0  0.76435  0.01193  0.37490  1.0000
  H   H224      1.0  0.80261  0.04013  0.35285  1.0000
  C   C281      1.0  0.67153  0.56434  0.27189  1.0000
  C   C282      1.0  0.70359  0.58198  0.24154  1.0000
  C   C283      1.0  0.70080  0.61223  0.18449  1.0000
  C   C284      1.0  0.66605  0.62532  0.15685  1.0000
  C   C285      1.0  0.96759  0.61030  0.19660  1.0000
  C   C286      1.0  0.97020  0.57948  0.25192  1.0000
  Si  Si8       1.0  0.66321  0.33002  0.09766  1.0000
  C   C287      1.0  0.66742  0.36014  0.17904  1.0000
  C   C288      1.0  0.96973  0.37095  0.22912  1.0000
  C   C289      1.0  0.97335  0.39623  0.29878  1.0000
  C   C290      1.0  0.67483  0.41105  0.31891  1.0000
  C   C291      1.0  0.70639  0.39371  0.28372  1.0000
  C   C292      1.0  0.70257  0.36933  0.21218  1.0000
  C   C293      1.0  0.69373  0.33363  0.01699  1.0000
  C   C294      1.0  0.95888  0.66708  0.03743  1.0000
  C   C295      1.0  0.94471  0.36875  0.01528  1.0000
  H   H225      1.0  0.95487  0.39214  0.04349  1.0000
  H   H226      1.0  0.95595  0.61042  0.00191  1.0000
  H   H227      1.0  0.69552  0.39208  0.01541  1.0000
  H   H228      1.0  0.72592  0.36070  0.18086  1.0000
  H   H229      1.0  0.73174  0.40508  0.29353  1.0000
  H   H230      1.0  0.95007  0.40882  0.32160  1.0000
  H   H231      1.0  0.94382  0.36317  0.21117  1.0000
  H   H232      1.0  0.94197  0.62006  0.18208  1.0000
  H   H233      1.0  0.72458  0.62325  0.16032  1.0000
  H   H234      1.0  0.72881  0.57027  0.25109  1.0000
  H   H235      1.0  0.94662  0.56628  0.27022  1.0000
  C   C296      1.0  0.67319  0.52631  0.28644  1.0000
  C   C297      1.0  0.67506  0.50244  0.21221  1.0000
  C   C298      1.0  0.67671  0.46471  0.22876  1.0000
  H   H236      1.0  0.67758  0.44740  0.17517  1.0000
  C   C299      1.0  0.67475  0.51348  0.11681  1.0000
  H   H237      1.0  0.67164  0.54277  0.10583  1.0000
  H   H238      1.0  0.98534  0.50004  0.08284  1.0000
  H   H239      1.0  0.70037  0.50494  0.08554  1.0000
  H   H240      1.0  0.78146  0.66609  0.01933  1.0000
  C   C300      1.0  0.84782  0.66425  0.07640  1.0000
  H   H241      1.0  0.87730  0.66419  0.08688  1.0000
  H   H242      1.0  0.83735  0.63816  0.10122  1.0000
  H   H243      1.0  0.83637  0.35303  0.11655  1.0000
  H   H244      1.0  0.80579  0.65853  0.33953  1.0000
  C   C301      1.0  0.91419  0.37199  0.62581  1.0000
  C   C302      1.0  0.89827  0.67363  0.58848  1.0000
  C   C303      1.0  0.91505  0.63916  0.60132  1.0000
  C   C304      1.0  0.94537  0.63606  0.65799  1.0000
  C   C305      1.0  0.70388  0.63574  0.63348  1.0000
  C   C306      1.0  0.72878  0.63883  0.56286  1.0000
  C   C307      1.0  0.74488  0.33992  0.54379  1.0000
  C   C308      1.0  0.72861  0.37180  0.58007  1.0000
  C   C309      1.0  0.70379  0.36857  0.65087  1.0000
  H   H245      1.0  0.90146  0.39693  0.62036  1.0000
  H   H246      1.0  0.90286  0.61567  0.57872  1.0000
  H   H247      1.0  0.69569  0.60999  0.65167  1.0000
  H   H248      1.0  0.74087  0.61526  0.54024  1.0000
  H   H249      1.0  0.74067  0.39682  0.57019  1.0000
  C   C310      1.0  0.67593  0.44989  0.31547  1.0000
  C   C311      1.0  0.00624  0.47375  0.38941  1.0000
  C   C312      1.0  0.00530  0.51203  0.37351  1.0000
  H   H250      1.0  0.00329  0.52975  0.42597  1.0000
  C   C313      1.0  0.00388  0.46060  0.48246  1.0000
  H   H251      1.0  0.00495  0.43082  0.48783  1.0000
  H   H252      1.0  0.97813  0.46984  0.51198  1.0000
  H   H253      1.0  0.69329  0.47179  0.52086  1.0000
  C   C314      1.0  0.78369  0.33961  0.54663  1.0000
  C   C315      1.0  0.80740  0.34358  0.47271  1.0000
  C   C316      1.0  0.84570  0.34404  0.48822  1.0000
  C   C317      1.0  0.86016  0.67377  0.57471  1.0000
  C   C318      1.0  0.83648  0.66917  0.64863  1.0000
  H   H254      1.0  0.86332  0.34691  0.43581  1.0000
  C   C319      1.0  0.79867  0.66907  0.63265  1.0000
  C   C320      1.0  0.79408  0.34707  0.38006  1.0000
  H   H255      1.0  0.76434  0.34526  0.37492  1.0000
  H   H256      1.0  0.80259  0.37346  0.35285  1.0000
  C   C321      1.0  0.67154  0.89767  0.27189  1.0000
  C   C322      1.0  0.70360  0.91531  0.24154  1.0000
  C   C323      1.0  0.70082  0.94556  0.18449  1.0000
  C   C324      1.0  0.66607  0.95866  0.15685  1.0000
  C   C325      1.0  0.96760  0.94363  0.19660  1.0000
  C   C326      1.0  0.97021  0.91282  0.25192  1.0000
  Si  Si9       1.0  0.66321  0.66335  0.09766  1.0000
  C   C327      1.0  0.66742  0.69348  0.17904  1.0000
  C   C328      1.0  0.96973  0.70428  0.22912  1.0000
  C   C329      1.0  0.97335  0.72956  0.29878  1.0000
  C   C330      1.0  0.67483  0.74438  0.31891  1.0000
  C   C331      1.0  0.70639  0.72705  0.28372  1.0000
  C   C332      1.0  0.70257  0.70267  0.21218  1.0000
  C   C333      1.0  0.69373  0.66696  0.01699  1.0000
  C   C334      1.0  0.95889  0.00041  0.03743  1.0000
  C   C335      1.0  0.94471  0.70208  0.01528  1.0000
  H   H257      1.0  0.95487  0.72547  0.04349  1.0000
  H   H258      1.0  0.95596  0.94375  0.00191  1.0000
  H   H259      1.0  0.69552  0.72542  0.01541  1.0000
  H   H260      1.0  0.72592  0.69403  0.18086  1.0000
  H   H261      1.0  0.73173  0.73841  0.29353  1.0000
  H   H262      1.0  0.95007  0.74216  0.32161  1.0000
  H   H263      1.0  0.94382  0.69650  0.21117  1.0000
  H   H264      1.0  0.94198  0.95340  0.18207  1.0000
  H   H265      1.0  0.72460  0.95658  0.16032  1.0000
  H   H266      1.0  0.72882  0.90360  0.25109  1.0000
  H   H267      1.0  0.94663  0.89962  0.27022  1.0000
  C   C336      1.0  0.67319  0.85964  0.28644  1.0000
  C   C337      1.0  0.67506  0.83577  0.21221  1.0000
  C   C338      1.0  0.67670  0.79805  0.22876  1.0000
  H   H268      1.0  0.67758  0.78073  0.17517  1.0000
  C   C339      1.0  0.67475  0.84681  0.11681  1.0000
  H   H269      1.0  0.67164  0.87610  0.10583  1.0000
  H   H270      1.0  0.98534  0.83337  0.08284  1.0000
  H   H271      1.0  0.70037  0.83827  0.08554  1.0000
  H   H272      1.0  0.78146  0.99943  0.01932  1.0000
  C   C340      1.0  0.84782  0.99758  0.07640  1.0000
  H   H273      1.0  0.87730  0.99753  0.08690  1.0000
  H   H274      1.0  0.83735  0.97149  0.10122  1.0000
  H   H275      1.0  0.83637  0.68637  0.11655  1.0000
  H   H276      1.0  0.80580  0.99186  0.33952  1.0000
  C   C341      1.0  0.91419  0.70532  0.62581  1.0000
  C   C342      1.0  0.89828  0.00696  0.58850  1.0000
  C   C343      1.0  0.91506  0.97249  0.60134  1.0000
  C   C344      1.0  0.94538  0.96939  0.65799  1.0000
  C   C345      1.0  0.70389  0.96908  0.63347  1.0000
  C   C346      1.0  0.72879  0.97216  0.56285  1.0000
  C   C347      1.0  0.74488  0.67326  0.54379  1.0000
  C   C348      1.0  0.72861  0.70514  0.58007  1.0000
  C   C349      1.0  0.70379  0.70190  0.65087  1.0000
  H   H277      1.0  0.90146  0.73026  0.62036  1.0000
  H   H278      1.0  0.90287  0.94900  0.57874  1.0000
  H   H279      1.0  0.69570  0.94332  0.65166  1.0000
  H   H280      1.0  0.74088  0.94859  0.54022  1.0000
  H   H281      1.0  0.74067  0.73015  0.57019  1.0000
  C   C350      1.0  0.67593  0.78322  0.31547  1.0000
  C   C351      1.0  0.00624  0.80709  0.38941  1.0000
  C   C352      1.0  0.00530  0.84537  0.37351  1.0000
  H   H282      1.0  0.00329  0.86308  0.42597  1.0000
  C   C353      1.0  0.00388  0.79393  0.48246  1.0000
  H   H283      1.0  0.00495  0.76415  0.48783  1.0000
  H   H284      1.0  0.97813  0.80317  0.51198  1.0000
  H   H285      1.0  0.69329  0.80512  0.52086  1.0000
  C   C354      1.0  0.78369  0.67295  0.54663  1.0000
  C   C355      1.0  0.80740  0.67691  0.47271  1.0000
  C   C356      1.0  0.84570  0.67738  0.48822  1.0000
  C   C357      1.0  0.86016  0.00710  0.57472  1.0000
  C   C358      1.0  0.83648  0.00250  0.64863  1.0000
  H   H286      1.0  0.86332  0.68024  0.43581  1.0000
  C   C359      1.0  0.79868  0.00240  0.63265  1.0000
  C   C360      1.0  0.79408  0.68040  0.38006  1.0000
  H   H287      1.0  0.76434  0.67859  0.37492  1.0000
  H   H288      1.0  0.80259  0.70679  0.35285  1.0000
