data_image0
_chemical_formula_structural       C6O2H2NHNHC6O2H2NHNHC6O2H2NHNHC2H2C4H2CH2C2H2C4H2CH2C2H2C4H2CH2C2H2C4H2CH2C2H2C4H2CH2C2H2C4H2CH2C3H2C3H2NHNHC3H2C3H2NHNHC3H2C3H2NHNHC6H3NO2CH2C6H3NO2CH2C6H3NO2CH2C6H3NO2CH2C6H3NO2CH2C6H3NO2CH2
_chemical_formula_sum              "C120 O18 H96 N18"
_cell_length_a       38.49
_cell_length_b       38.49
_cell_length_c       14.9707
_cell_angle_alpha    90
_cell_angle_beta     90
_cell_angle_gamma    120

_space_group_name_H-M_alt    "P 1"
_space_group_IT_number       1

loop_
  _space_group_symop_operation_xyz
  'x, y, z'

loop_
  _atom_site_type_symbol
  _atom_site_label
  _atom_site_symmetry_multiplicity
  _atom_site_fract_x
  _atom_site_fract_y
  _atom_site_fract_z
  _atom_site_occupancy
  C   C1        1.0  0.98115  0.49702  0.31017  1.0000
  C   C2        1.0  0.90808  0.45073  0.29646  1.0000
  C   C3        1.0  0.94815  0.45944  0.28331  1.0000
  C   C4        1.0  0.02184  0.50498  0.31017  1.0000
  C   C5        1.0  0.05485  0.54258  0.28350  1.0000
  C   C6        1.0  0.09491  0.55129  0.29679  1.0000
  O   O1        1.0  0.95487  0.43167  0.24223  1.0000
  O   O2        1.0  0.04816  0.57038  0.24245  1.0000
  H   H1        1.0  0.94630  0.40899  0.28363  1.0000
  H   H2        1.0  0.05671  0.59304  0.28390  1.0000
  N   N1        1.0  0.12733  0.59072  0.28112  1.0000
  H   H3        1.0  0.14933  0.58926  0.24530  1.0000
  N   N2        1.0  0.87567  0.41130  0.28068  1.0000
  H   H4        1.0  0.85370  0.41278  0.24482  1.0000
  C   C7        1.0  0.50543  0.48458  0.31018  1.0000
  C   C8        1.0  0.55172  0.45781  0.29659  1.0000
  C   C9        1.0  0.54301  0.48916  0.28336  1.0000
  C   C10       1.0  0.49746  0.51731  0.31026  1.0000
  C   C11       1.0  0.45987  0.51271  0.28347  1.0000
  C   C12       1.0  0.45116  0.54407  0.29664  1.0000
  O   O3        1.0  0.57078  0.52365  0.24225  1.0000
  O   O4        1.0  0.43208  0.47821  0.24245  1.0000
  H   H5        1.0  0.59347  0.53776  0.28363  1.0000
  H   H6        1.0  0.40942  0.46411  0.28391  1.0000
  N   N3        1.0  0.41172  0.53703  0.28096  1.0000
  H   H7        1.0  0.41317  0.56048  0.24511  1.0000
  N   N4        1.0  0.59115  0.46483  0.28080  1.0000
  H   H8        1.0  0.58966  0.44136  0.24497  1.0000
  C   C13       1.0  0.51782  0.02133  0.31017  1.0000
  C   C14       1.0  0.54459  0.09440  0.29656  1.0000
  C   C15       1.0  0.51323  0.05434  0.28341  1.0000
  C   C16       1.0  0.48509  0.98064  0.31017  1.0000
  C   C17       1.0  0.48967  0.94763  0.28339  1.0000
  C   C18       1.0  0.45832  0.90757  0.29668  1.0000
  O   O5        1.0  0.47872  0.04763  0.24241  1.0000
  O   O6        1.0  0.52414  0.95434  0.24225  1.0000
  H   H9        1.0  0.46463  0.05619  0.28388  1.0000
  H   H10       1.0  0.53827  0.94577  0.28363  1.0000
  N   N5        1.0  0.46532  0.87515  0.28090  1.0000
  H   H11       1.0  0.44184  0.85316  0.24511  1.0000
  N   N6        1.0  0.53756  0.12681  0.28090  1.0000
  H   H12       1.0  0.56100  0.14879  0.24500  1.0000
  C   C19       1.0  0.27959  0.48073  0.28966  1.0000
  C   C20       1.0  0.32011  0.49126  0.29718  1.0000
  H   H13       1.0  0.26063  0.45579  0.25342  1.0000
  H   H14       1.0  0.32948  0.47380  0.26558  1.0000
  C   C21       1.0  0.22278  0.48853  0.33900  1.0000
  C   C22       1.0  0.13779  0.45542  0.34553  1.0000
  C   C23       1.0  0.15847  0.46575  0.26301  1.0000
  C   C24       1.0  0.20032  0.48173  0.25969  1.0000
  H   H15       1.0  0.14304  0.46055  0.20432  1.0000
  H   H16       1.0  0.21426  0.48809  0.19880  1.0000
  C   C25       1.0  0.09309  0.43444  0.34977  1.0000
  H   H17       1.0  0.08293  0.40525  0.38096  1.0000
  H   H18       1.0  0.07998  0.42812  0.28279  1.0000
  C   C26       1.0  0.52162  0.79930  0.28930  1.0000
  C   C27       1.0  0.51107  0.82928  0.29681  1.0000
  H   H19       1.0  0.54654  0.80528  0.25300  1.0000
  H   H20       1.0  0.52854  0.85612  0.26523  1.0000
  C   C28       1.0  0.51390  0.73473  0.33870  1.0000
  C   C29       1.0  0.54702  0.68287  0.34518  1.0000
  C   C30       1.0  0.53658  0.69313  0.26268  1.0000
  C   C31       1.0  0.52062  0.71902  0.25939  1.0000
  H   H21       1.0  0.54178  0.68290  0.20399  1.0000
  H   H22       1.0  0.51419  0.72655  0.19852  1.0000
  C   C32       1.0  0.56799  0.65915  0.34936  1.0000
  H   H23       1.0  0.59720  0.67818  0.38042  1.0000
  H   H24       1.0  0.57425  0.65231  0.28237  1.0000
  C   C33       1.0  0.20313  0.72286  0.28983  1.0000
  C   C34       1.0  0.17314  0.68234  0.29734  1.0000
  H   H25       1.0  0.19714  0.74182  0.25360  1.0000
  H   H26       1.0  0.14630  0.67296  0.26575  1.0000
  C   C35       1.0  0.26774  0.77968  0.33917  1.0000
  C   C36       1.0  0.31959  0.86467  0.34572  1.0000
  C   C37       1.0  0.30923  0.84400  0.26319  1.0000
  C   C38       1.0  0.28336  0.80215  0.25986  1.0000
  H   H27       1.0  0.31944  0.85944  0.20451  1.0000
  H   H28       1.0  0.27578  0.78822  0.19897  1.0000
  C   C39       1.0  0.34330  0.90936  0.34999  1.0000
  H   H29       1.0  0.32428  0.91952  0.38125  1.0000
  H   H30       1.0  0.35008  0.92249  0.28302  1.0000
  C   C40       1.0  0.72330  0.52115  0.28929  1.0000
  C   C41       1.0  0.68276  0.51058  0.29677  1.0000
  H   H31       1.0  0.74225  0.54609  0.25306  1.0000
  H   H32       1.0  0.67340  0.52806  0.26525  1.0000
  C   C42       1.0  0.78015  0.51342  0.33868  1.0000
  C   C43       1.0  0.86513  0.54655  0.34526  1.0000
  C   C44       1.0  0.84445  0.53614  0.26273  1.0000
  C   C45       1.0  0.80260  0.52018  0.25939  1.0000
  H   H33       1.0  0.85990  0.54137  0.20405  1.0000
  H   H34       1.0  0.78866  0.51378  0.19850  1.0000
  C   C46       1.0  0.90982  0.56752  0.34951  1.0000
  H   H35       1.0  0.92000  0.59672  0.38064  1.0000
  H   H36       1.0  0.92294  0.57380  0.28253  1.0000
  C   C47       1.0  0.48121  0.20260  0.28971  1.0000
  C   C48       1.0  0.49176  0.17261  0.29721  1.0000
  H   H37       1.0  0.45625  0.19661  0.25355  1.0000
  H   H38       1.0  0.47428  0.14577  0.26567  1.0000
  C   C49       1.0  0.48902  0.26723  0.33903  1.0000
  C   C50       1.0  0.45589  0.31907  0.34567  1.0000
  C   C51       1.0  0.46617  0.30870  0.26311  1.0000
  C   C52       1.0  0.48216  0.28284  0.25974  1.0000
  H   H39       1.0  0.46092  0.31891  0.20444  1.0000
  H   H40       1.0  0.48849  0.27525  0.19883  1.0000
  C   C53       1.0  0.43491  0.34279  0.34999  1.0000
  H   H41       1.0  0.40574  0.32377  0.38129  1.0000
  H   H42       1.0  0.42854  0.34956  0.28303  1.0000
  C   C54       1.0  0.79982  0.27915  0.28918  1.0000
  C   C55       1.0  0.82980  0.31969  0.29667  1.0000
  H   H43       1.0  0.80581  0.26020  0.25293  1.0000
  H   H44       1.0  0.85664  0.32905  0.26514  1.0000
  C   C56       1.0  0.73525  0.22231  0.33856  1.0000
  C   C57       1.0  0.68339  0.13734  0.34510  1.0000
  C   C58       1.0  0.69365  0.15802  0.26258  1.0000
  C   C59       1.0  0.71954  0.19987  0.25926  1.0000
  H   H45       1.0  0.68342  0.14258  0.20389  1.0000
  H   H46       1.0  0.72707  0.21381  0.19837  1.0000
  C   C60       1.0  0.65965  0.09263  0.34932  1.0000
  H   H47       1.0  0.67868  0.08246  0.38038  1.0000
  H   H48       1.0  0.65281  0.07953  0.28233  1.0000
  C   C61       1.0  0.97257  0.52541  0.34940  1.0000
  C   C62       1.0  0.93305  0.51785  0.35950  1.0000
  C   C63       1.0  0.90096  0.48032  0.33362  1.0000
  H   H49       1.0  0.99532  0.55170  0.37461  1.0000
  H   H50       1.0  0.87217  0.47388  0.34520  1.0000
  C   C64       1.0  0.10200  0.52169  0.33399  1.0000
  C   C65       1.0  0.06990  0.48413  0.35962  1.0000
  C   C66       1.0  0.03038  0.47656  0.34936  1.0000
  H   H51       1.0  0.13079  0.52810  0.34556  1.0000
  H   H52       1.0  0.00762  0.45028  0.37459  1.0000
  N   N7        1.0  0.07571  0.45479  0.40269  1.0000
  H   H53       1.0  0.09002  0.46545  0.46266  1.0000
  N   N8        1.0  0.92719  0.54718  0.40251  1.0000
  H   H54       1.0  0.91285  0.53650  0.46244  1.0000
  C   C67       1.0  0.47703  0.44763  0.34946  1.0000
  C   C68       1.0  0.48460  0.41567  0.35966  1.0000
  C   C69       1.0  0.52214  0.42112  0.33385  1.0000
  H   H55       1.0  0.45078  0.44412  0.37480  1.0000
  H   H56       1.0  0.52856  0.39876  0.34544  1.0000
  C   C70       1.0  0.48077  0.58079  0.33375  1.0000
  C   C71       1.0  0.51833  0.58626  0.35943  1.0000
  C   C72       1.0  0.52589  0.55430  0.34934  1.0000
  H   H57       1.0  0.47434  0.60316  0.34528  1.0000
  H   H58       1.0  0.55219  0.55784  0.37449  1.0000
  N   N9        1.0  0.54768  0.62144  0.40239  1.0000
  H   H59       1.0  0.53703  0.62512  0.46236  1.0000
  N   N10       1.0  0.45530  0.38054  0.40283  1.0000
  H   H60       1.0  0.46600  0.37691  0.46277  1.0000
  C   C73       1.0  0.55480  0.02990  0.34931  1.0000
  C   C74       1.0  0.58677  0.06942  0.35942  1.0000
  C   C75       1.0  0.58131  0.10151  0.33363  1.0000
  H   H61       1.0  0.55834  0.00715  0.37447  1.0000
  H   H62       1.0  0.60367  0.13030  0.34521  1.0000
  C   C76       1.0  0.42164  0.90047  0.33399  1.0000
  C   C77       1.0  0.41619  0.93256  0.35970  1.0000
  C   C78       1.0  0.44814  0.97209  0.34944  1.0000
  H   H63       1.0  0.39927  0.87168  0.34554  1.0000
  H   H64       1.0  0.44463  0.99484  0.37473  1.0000
  N   N11       1.0  0.38105  0.92675  0.40285  1.0000
  H   H65       1.0  0.37742  0.91243  0.46281  1.0000
  N   N12       1.0  0.62195  0.07526  0.40236  1.0000
  H   H66       1.0  0.62564  0.08959  0.46231  1.0000
  C   C79       1.0  0.34711  0.52391  0.35095  1.0000
  C   C80       1.0  0.33272  0.54681  0.39595  1.0000
  C   C81       1.0  0.29171  0.53552  0.38865  1.0000
  C   C82       1.0  0.26462  0.50224  0.33684  1.0000
  C   C83       1.0  0.20221  0.47899  0.42161  1.0000
  C   C84       1.0  0.16035  0.46229  0.42468  1.0000
  H   H67       1.0  0.21729  0.48230  0.48019  1.0000
  H   H68       1.0  0.14630  0.45402  0.48533  1.0000
  H   H69       1.0  0.28141  0.55149  0.42337  1.0000
  N   N13       1.0  0.35885  0.57979  0.45019  1.0000
  O   O7        1.0  0.36146  0.61191  0.42310  1.0000
  O   O8        1.0  0.34780  0.57442  0.53046  1.0000
  C   C85       1.0  0.38840  0.53047  0.36493  1.0000
  H   H70       1.0  0.38516  0.50366  0.39799  1.0000
  H   H71       1.0  0.40547  0.55548  0.41054  1.0000
  C   C86       1.0  0.47845  0.82363  0.35069  1.0000
  C   C87       1.0  0.45561  0.78637  0.39583  1.0000
  C   C88       1.0  0.46690  0.75665  0.38848  1.0000
  C   C89       1.0  0.50014  0.76283  0.33655  1.0000
  C   C90       1.0  0.52354  0.72379  0.42128  1.0000
  C   C91       1.0  0.54019  0.69858  0.42434  1.0000
  H   H72       1.0  0.52021  0.73554  0.47987  1.0000
  H   H73       1.0  0.54853  0.69285  0.48496  1.0000
  H   H74       1.0  0.45098  0.73040  0.42331  1.0000
  N   N14       1.0  0.42269  0.77955  0.45025  1.0000
  O   O9        1.0  0.39054  0.75002  0.42333  1.0000
  O   O10       1.0  0.42814  0.77391  0.53050  1.0000
  C   C92       1.0  0.47195  0.85839  0.36480  1.0000
  H   H75       1.0  0.49880  0.88195  0.39776  1.0000
  H   H76       1.0  0.44699  0.85047  0.41054  1.0000
  C   C93       1.0  0.17880  0.65534  0.35109  1.0000
  C   C94       1.0  0.21610  0.66973  0.39607  1.0000
  C   C95       1.0  0.24582  0.71075  0.38879  1.0000
  C   C96       1.0  0.23961  0.73783  0.33699  1.0000
  C   C97       1.0  0.27878  0.80024  0.42178  1.0000
  C   C98       1.0  0.30393  0.84210  0.42487  1.0000
  H   H77       1.0  0.26702  0.78515  0.48036  1.0000
  H   H78       1.0  0.30972  0.85615  0.48553  1.0000
  H   H79       1.0  0.27209  0.72105  0.42349  1.0000
  N   N15       1.0  0.22295  0.64360  0.45030  1.0000
  O   O11       1.0  0.25247  0.64101  0.42318  1.0000
  O   O12       1.0  0.22865  0.65465  0.53058  1.0000
  C   C99       1.0  0.14408  0.61405  0.36509  1.0000
  H   H80       1.0  0.12050  0.61729  0.39813  1.0000
  H   H81       1.0  0.15202  0.59699  0.41072  1.0000
  C   C100      1.0  0.65579  0.47794  0.35059  1.0000
  C   C101      1.0  0.67021  0.45508  0.39565  1.0000
  C   C102      1.0  0.71122  0.46638  0.38832  1.0000
  C   C103      1.0  0.73829  0.49965  0.33648  1.0000
  C   C104      1.0  0.80071  0.52303  0.42129  1.0000
  C   C105      1.0  0.84257  0.53969  0.42440  1.0000
  H   H82       1.0  0.78561  0.51967  0.47987  1.0000
  H   H83       1.0  0.85662  0.54800  0.48504  1.0000
  H   H84       1.0  0.72154  0.45044  0.42310  1.0000
  N   N16       1.0  0.64410  0.42213  0.44998  1.0000
  O   O13       1.0  0.64150  0.39000  0.42297  1.0000
  O   O14       1.0  0.65517  0.42754  0.53024  1.0000
  C   C106      1.0  0.61452  0.47142  0.36470  1.0000
  H   H85       1.0  0.61780  0.49826  0.39770  1.0000
  H   H86       1.0  0.59747  0.44644  0.41039  1.0000
  C   C107      1.0  0.52445  0.17830  0.35088  1.0000
  C   C108      1.0  0.54737  0.21561  0.39579  1.0000
  C   C109      1.0  0.53607  0.24532  0.38853  1.0000
  C   C110      1.0  0.50275  0.23910  0.33682  1.0000
  C   C111      1.0  0.47953  0.27827  0.42167  1.0000
  C   C112      1.0  0.46283  0.30343  0.42480  1.0000
  H   H87       1.0  0.48289  0.26652  0.48024  1.0000
  H   H88       1.0  0.45459  0.30922  0.48548  1.0000
  H   H89       1.0  0.55205  0.27161  0.42319  1.0000
  N   N17       1.0  0.58039  0.22249  0.44994  1.0000
  O   O15       1.0  0.61249  0.25200  0.42273  1.0000
  O   O16       1.0  0.57507  0.22820  0.53022  1.0000
  C   C113      1.0  0.53102  0.14358  0.36487  1.0000
  H   H90       1.0  0.50423  0.12002  0.39799  1.0000
  H   H91       1.0  0.55605  0.15154  0.41043  1.0000
  C   C114      1.0  0.82413  0.34667  0.35049  1.0000
  C   C115      1.0  0.78687  0.33225  0.39556  1.0000
  C   C116      1.0  0.75714  0.29124  0.38823  1.0000
  C   C117      1.0  0.76334  0.26417  0.33636  1.0000
  C   C118      1.0  0.72430  0.20174  0.42115  1.0000
  C   C119      1.0  0.69910  0.15988  0.42424  1.0000
  H   H92       1.0  0.73605  0.21683  0.47973  1.0000
  H   H93       1.0  0.69337  0.14583  0.48487  1.0000
  H   H94       1.0  0.73089  0.28092  0.42301  1.0000
  N   N18       1.0  0.78002  0.35836  0.44991  1.0000
  O   O17       1.0  0.75049  0.36096  0.42291  1.0000
  O   O18       1.0  0.77436  0.34728  0.53016  1.0000
  C   C120      1.0  0.85889  0.38793  0.36459  1.0000
  H   H95       1.0  0.88244  0.38465  0.39762  1.0000
  H   H96       1.0  0.85096  0.40499  0.41026  1.0000
