data_image0
_chemical_formula_structural       CNHC3H2C5HOHNC10H8C5HCNCHNHCNCHNCNH3NC18H12C4HC6HOHOHC4HC6HOHOHC4HCOH
_chemical_formula_sum              "C72 N8 H42 O6"
_cell_length_a       32.2431
_cell_length_b       32.2431
_cell_length_c       14.6153
_cell_angle_alpha    90
_cell_angle_beta     90
_cell_angle_gamma    120

_space_group_name_H-M_alt    "P 1"
_space_group_IT_number       1

loop_
  _space_group_symop_operation_xyz
  'x, y, z'

loop_
  _atom_site_type_symbol
  _atom_site_label
  _atom_site_symmetry_multiplicity
  _atom_site_fract_x
  _atom_site_fract_y
  _atom_site_fract_z
  _atom_site_occupancy
  C   C1        1.0  0.11715  0.57556  0.28964  1.0000
  N   N1        1.0  0.06858  0.55121  0.29388  1.0000
  H   H1        1.0  0.13229  0.59275  0.22979  1.0000
  C   C2        1.0  0.22309  0.61088  0.27941  1.0000
  C   C3        1.0  0.19752  0.60365  0.36264  1.0000
  C   C4        1.0  0.22582  0.62292  0.44273  1.0000
  H   H2        1.0  0.20535  0.59714  0.21931  1.0000
  H   H3        1.0  0.21024  0.62049  0.50477  1.0000
  C   C5        1.0  0.04340  0.52815  0.36996  1.0000
  C   C6        1.0  0.14561  0.57808  0.36584  1.0000
  C   C7        1.0  0.11968  0.55397  0.44582  1.0000
  C   C8        1.0  0.06901  0.52975  0.45012  1.0000
  C   C9        1.0  0.04335  0.50753  0.53115  1.0000
  H   H4        1.0  0.13786  0.55312  0.50228  1.0000
  O   O1        1.0  0.06668  0.50901  0.60990  1.0000
  H   H5        1.0  0.07290  0.53842  0.64196  1.0000
  N   N2        1.0  0.35187  0.68021  0.35305  1.0000
  C   C10       1.0  0.37778  0.65508  0.35575  1.0000
  C   C11       1.0  0.37696  0.73125  0.35409  1.0000
  C   C12       1.0  0.30089  0.65450  0.35674  1.0000
  C   C13       1.0  0.27355  0.63644  0.27622  1.0000
  C   C14       1.0  0.27623  0.64688  0.44026  1.0000
  C   C15       1.0  0.39940  0.59889  0.28743  1.0000
  C   C16       1.0  0.37403  0.62396  0.28428  1.0000
  C   C17       1.0  0.40320  0.75768  0.27699  1.0000
  C   C18       1.0  0.40224  0.80719  0.43372  1.0000
  C   C19       1.0  0.37716  0.75680  0.43266  1.0000
  H   H6        1.0  0.35233  0.61889  0.22959  1.0000
  H   H7        1.0  0.39385  0.57554  0.23537  1.0000
  H   H8        1.0  0.29034  0.64156  0.21453  1.0000
  H   H9        1.0  0.40413  0.74011  0.21950  1.0000
  H   H10       1.0  0.40025  0.82387  0.49166  1.0000
  H   H11       1.0  0.35926  0.73894  0.49020  1.0000
  H   H12       1.0  0.29487  0.65911  0.49998  1.0000
  H   H13       1.0  0.44198  0.89858  0.22259  1.0000
  C   C20       1.0  0.40851  0.66107  0.42953  1.0000
  C   C21       1.0  0.43484  0.63693  0.43129  1.0000
  C   C22       1.0  0.43077  0.60474  0.36077  1.0000
  C   C23       1.0  0.42873  0.80822  0.27844  1.0000
  C   C24       1.0  0.42893  0.83426  0.35693  1.0000
  H   H14       1.0  0.41245  0.68376  0.48192  1.0000
  C   C25       1.0  0.56754  0.46334  0.28166  1.0000
  N   N3        1.0  0.54350  0.48788  0.28615  1.0000
  C   C26       1.0  0.47136  0.56523  0.28285  1.0000
  H   H15       1.0  0.57209  0.45264  0.21856  1.0000
  N   N4        1.0  0.49541  0.54072  0.28674  1.0000
  H   H16       1.0  0.46485  0.57404  0.21952  1.0000
  C   C27       1.0  0.55644  0.11230  0.28591  1.0000
  N   N5        1.0  0.53247  0.06371  0.28946  1.0000
  C   C28       1.0  0.45864  0.91408  0.28276  1.0000
  H   H17       1.0  0.55404  0.12766  0.22662  1.0000
  N   N6        1.0  0.48299  0.96266  0.28755  1.0000
  C   C29       1.0  0.91904  0.47595  0.28898  1.0000
  N   N7        1.0  0.96761  0.50011  0.29327  1.0000
  H   H18       1.0  0.90347  0.47648  0.22847  1.0000
  H   H19       1.0  0.45781  0.64402  0.48480  1.0000
  H   H20       1.0  0.44813  0.82584  0.22177  1.0000
  N   N8        1.0  0.68547  0.34675  0.35362  1.0000
  C   C30       1.0  0.65985  0.37219  0.35534  1.0000
  C   C31       1.0  0.66050  0.29576  0.35572  1.0000
  C   C32       1.0  0.73642  0.37243  0.35726  1.0000
  C   C33       1.0  0.76078  0.39890  0.43572  1.0000
  C   C34       1.0  0.81124  0.42501  0.43848  1.0000
  C   C35       1.0  0.83934  0.42552  0.36322  1.0000
  C   C36       1.0  0.81435  0.39879  0.28478  1.0000
  C   C37       1.0  0.76391  0.37294  0.28167  1.0000
  C   C38       1.0  0.63099  0.36903  0.43060  1.0000
  C   C39       1.0  0.60584  0.39428  0.43162  1.0000
  C   C40       1.0  0.60949  0.42513  0.35890  1.0000
  C   C41       1.0  0.63905  0.42837  0.28399  1.0000
  C   C42       1.0  0.66338  0.40218  0.28184  1.0000
  C   C43       1.0  0.64369  0.27063  0.43883  1.0000
  C   C44       1.0  0.61752  0.22022  0.44040  1.0000
  C   C45       1.0  0.60872  0.19240  0.35971  1.0000
  C   C46       1.0  0.62705  0.21841  0.27692  1.0000
  C   C47       1.0  0.65173  0.26891  0.27466  1.0000
  H   H21       1.0  0.58423  0.38917  0.48657  1.0000
  H   H22       1.0  0.62783  0.34816  0.48550  1.0000
  H   H23       1.0  0.68442  0.40565  0.22675  1.0000
  H   H24       1.0  0.64411  0.45072  0.23033  1.0000
  H   H25       1.0  0.74176  0.39952  0.49114  1.0000
  H   H26       1.0  0.82726  0.44450  0.49605  1.0000
  H   H27       1.0  0.65003  0.28893  0.49899  1.0000
  H   H28       1.0  0.60441  0.20427  0.50221  1.0000
  H   H29       1.0  0.62322  0.20097  0.21650  1.0000
  H   H30       1.0  0.66355  0.28608  0.21336  1.0000
  H   H31       1.0  0.74733  0.35451  0.22357  1.0000
  H   H32       1.0  0.83265  0.39715  0.22908  1.0000
  C   C48       1.0  0.58440  0.45177  0.36181  1.0000
  C   C49       1.0  0.53331  0.50270  0.36578  1.0000
  C   C50       1.0  0.54835  0.49200  0.44940  1.0000
  C   C51       1.0  0.57452  0.46750  0.44552  1.0000
  H   H33       1.0  0.58698  0.46141  0.50537  1.0000
  C   C52       1.0  0.50800  0.52808  0.36619  1.0000
  C   C53       1.0  0.45696  0.57913  0.36347  1.0000
  C   C54       1.0  0.46982  0.56612  0.44713  1.0000
  C   C55       1.0  0.49584  0.54142  0.45023  1.0000
  C   C56       1.0  0.50996  0.52971  0.53362  1.0000
  C   C57       1.0  0.53662  0.50578  0.53317  1.0000
  H   H34       1.0  0.45936  0.57402  0.50752  1.0000
  O   O2        1.0  0.50019  0.54316  0.61550  1.0000
  H   H35       1.0  0.46940  0.51624  0.63599  1.0000
  O   O3        1.0  0.55103  0.49673  0.61472  1.0000
  H   H36       1.0  0.52536  0.46503  0.63451  1.0000
  C   C58       1.0  0.58267  0.14051  0.36210  1.0000
  C   C59       1.0  0.53092  0.03831  0.36482  1.0000
  C   C60       1.0  0.55526  0.06369  0.44495  1.0000
  C   C61       1.0  0.58143  0.11437  0.44133  1.0000
  H   H37       1.0  0.60073  0.13242  0.49768  1.0000
  C   C62       1.0  0.50565  0.98761  0.36421  1.0000
  C   C63       1.0  0.45524  0.88581  0.35964  1.0000
  C   C64       1.0  0.47875  0.91117  0.44027  1.0000
  C   C65       1.0  0.50386  0.96183  0.44433  1.0000
  C   C66       1.0  0.52672  0.98726  0.52515  1.0000
  C   C67       1.0  0.55245  0.03784  0.52533  1.0000
  H   H38       1.0  0.47834  0.89236  0.49695  1.0000
  O   O4        1.0  0.52525  0.96373  0.60361  1.0000
  H   H39       1.0  0.49643  0.95841  0.63678  1.0000
  O   O5        1.0  0.57461  0.06096  0.60404  1.0000
  H   H40       1.0  0.55145  0.06685  0.63708  1.0000
  C   C68       1.0  0.89088  0.45170  0.36643  1.0000
  C   C69       1.0  0.99270  0.50299  0.37006  1.0000
  C   C70       1.0  0.96707  0.47985  0.45088  1.0000
  C   C71       1.0  0.91636  0.45444  0.44741  1.0000
  H   H41       1.0  0.89762  0.43658  0.50454  1.0000
  C   C72       1.0  0.99276  0.48298  0.53166  1.0000
  O   O6        1.0  0.96944  0.46168  0.61073  1.0000
  H   H42       1.0  0.96435  0.48555  0.64303  1.0000
