data_image0
_chemical_formula_structural       N2CNC2OCH3N2CNC2OCH3OCHOCHC2OCH3NCN2C2OCH3NCN2H2COCH3C2NCOCH3COCH3C2NCOCH5CNCOCH3CNCOCH3NCNC2OCH3NC2OCH3CNC2NCNCNCNCNCN2C2OCH2NC2OCH3CNCOCH3CNCOCH3NC2NCOCH3CNCOCH3NCNC2OCH3NC2OCH3CNC2NCNCNCNCNCN2C2OCH2NC2OCH3CNCOCH3CNCOCH3NC2NCOCH3CNCOCH3CNCOCH3NC2OCH3NC2OCH3NC2OCH3CNCNCNCNCNCNCNCNCNCNCNCN2C2OCH3NC2HNC2OCH3CNCOCH3CNCOCH3CNCOCH3CNCOCH3CNCOCH3CNCOCH3NC2OCH3NC2OCH3NC2OCH3CNCNCNCNCNCNCNCNCNCNCNCN2C2OCH3NC2HNC2OCH3CNCOCH3CNCOCH3CNCOCH3
_chemical_formula_sum              "N96 C192 O48 H144"
_cell_length_a       44.7532
_cell_length_b       44.7579
_cell_length_c       14.8187
_cell_angle_alpha    90
_cell_angle_beta     90
_cell_angle_gamma    120.01

_space_group_name_H-M_alt    "P 1"
_space_group_IT_number       1

loop_
  _space_group_symop_operation_xyz
  'x, y, z'

loop_
  _atom_site_type_symbol
  _atom_site_label
  _atom_site_symmetry_multiplicity
  _atom_site_fract_x
  _atom_site_fract_y
  _atom_site_fract_z
  _atom_site_occupancy
  N   N1        1.0  0.09657  0.07366  0.32096  1.0000
  N   N2        1.0  0.02472  0.03948  0.34598  1.0000
  C   C1        1.0  0.04224  0.02184  0.34621  1.0000
  N   N3        1.0  0.02310  0.48670  0.34598  1.0000
  C   C2        1.0  0.09963  0.02519  0.37045  1.0000
  C   C3        1.0  0.07908  0.03986  0.34605  1.0000
  O   O1        1.0  0.08587  0.99173  0.39838  1.0000
  C   C4        1.0  0.08288  0.98811  0.49494  1.0000
  H   H1        1.0  0.07151  0.96082  0.51117  1.0000
  H   H2        1.0  0.06605  0.49711  0.52209  1.0000
  H   H3        1.0  0.10814  0.00204  0.52765  1.0000
  N   N4        1.0  0.09657  0.57366  0.32096  1.0000
  N   N5        1.0  0.02472  0.53948  0.34598  1.0000
  C   C5        1.0  0.04224  0.52184  0.34621  1.0000
  N   N6        1.0  0.02310  0.98671  0.34598  1.0000
  C   C6        1.0  0.09963  0.52519  0.37045  1.0000
  C   C7        1.0  0.07908  0.53986  0.34605  1.0000
  O   O2        1.0  0.08587  0.49173  0.39838  1.0000
  C   C8        1.0  0.08288  0.48811  0.49493  1.0000
  H   H4        1.0  0.07151  0.46082  0.51117  1.0000
  H   H5        1.0  0.06605  0.99711  0.52209  1.0000
  H   H6        1.0  0.10814  0.50204  0.52765  1.0000
  O   O3        1.0  0.01969  0.09720  0.39856  1.0000
  C   C9        1.0  0.02327  0.09778  0.49512  1.0000
  H   H7        1.0  0.05056  0.11371  0.51144  1.0000
  O   O4        1.0  0.01969  0.59721  0.39856  1.0000
  C   C10       1.0  0.02327  0.59779  0.49512  1.0000
  H   H8        1.0  0.05056  0.61371  0.51144  1.0000
  C   C11       1.0  0.15216  0.07896  0.34170  1.0000
  C   C12       1.0  0.13158  0.09358  0.31699  1.0000
  O   O5        1.0  0.14524  0.12698  0.28873  1.0000
  C   C13       1.0  0.14831  0.13045  0.19215  1.0000
  H   H9        1.0  0.15955  0.15770  0.17555  1.0000
  H   H10       1.0  0.12308  0.11635  0.15929  1.0000
  H   H11       1.0  0.16526  0.12154  0.16544  1.0000
  N   N7        1.0  0.20766  0.13254  0.34372  1.0000
  C   C14       1.0  0.18902  0.09722  0.34276  1.0000
  N   N8        1.0  0.20680  0.07966  0.34436  1.0000
  N   N9        1.0  0.13466  0.04514  0.36670  1.0000
  C   C15       1.0  0.15216  0.57896  0.34170  1.0000
  C   C16       1.0  0.13158  0.59358  0.31699  1.0000
  O   O6        1.0  0.14524  0.62698  0.28874  1.0000
  C   C17       1.0  0.14831  0.63045  0.19215  1.0000
  H   H12       1.0  0.15955  0.65769  0.17556  1.0000
  H   H13       1.0  0.12308  0.61635  0.15930  1.0000
  H   H14       1.0  0.16527  0.62154  0.16544  1.0000
  N   N10       1.0  0.20766  0.63253  0.34372  1.0000
  C   C18       1.0  0.18902  0.59722  0.34276  1.0000
  N   N11       1.0  0.20680  0.57966  0.34436  1.0000
  N   N12       1.0  0.13466  0.54514  0.36670  1.0000
  H   H15       1.0  0.01426  0.07195  0.52219  1.0000
  H   H16       1.0  0.01426  0.57195  0.52219  1.0000
  C   C19       1.0  0.26264  0.08113  0.34573  1.0000
  O   O7        1.0  0.26751  0.08383  0.18228  1.0000
  C   C20       1.0  0.24580  0.05184  0.13649  1.0000
  H   H17       1.0  0.23835  0.05774  0.07179  1.0000
  H   H18       1.0  0.22230  0.03553  0.17490  1.0000
  H   H19       1.0  0.25944  0.03771  0.12337  1.0000
  C   C21       1.0  0.24276  0.14994  0.34577  1.0000
  C   C22       1.0  0.24194  0.09664  0.34655  1.0000
  N   N13       1.0  0.25921  0.13154  0.34707  1.0000
  C   C23       1.0  0.26403  0.18608  0.34797  1.0000
  O   O8        1.0  0.27071  0.18649  0.51102  1.0000
  C   C24       1.0  0.24863  0.19553  0.55986  1.0000
  H   H20       1.0  0.24194  0.18167  0.62388  1.0000
  H   H21       1.0  0.22472  0.18795  0.52300  1.0000
  H   H22       1.0  0.26166  0.22317  0.57447  1.0000
  C   C25       1.0  0.26264  0.58113  0.34573  1.0000
  O   O9        1.0  0.26751  0.58383  0.18228  1.0000
  C   C26       1.0  0.24580  0.55184  0.13649  1.0000
  H   H23       1.0  0.23835  0.55774  0.07179  1.0000
  H   H24       1.0  0.22230  0.53553  0.17490  1.0000
  H   H25       1.0  0.25944  0.53771  0.12337  1.0000
  C   C27       1.0  0.24276  0.64994  0.34577  1.0000
  C   C28       1.0  0.24194  0.59664  0.34655  1.0000
  N   N14       1.0  0.25921  0.63153  0.34707  1.0000
  C   C29       1.0  0.26403  0.68608  0.34797  1.0000
  O   O10       1.0  0.27071  0.68649  0.51102  1.0000
  C   C30       1.0  0.24863  0.69552  0.55986  1.0000
  H   H26       1.0  0.24193  0.68167  0.62388  1.0000
  H   H27       1.0  0.22472  0.68795  0.52300  1.0000
  H   H28       1.0  0.26166  0.72317  0.57447  1.0000
  H   H29       1.0  0.00934  0.60910  0.52784  1.0000
  H   H30       1.0  0.00933  0.10910  0.52784  1.0000
  C   C31       1.0  0.43248  0.07628  0.34170  1.0000
  N   N15       1.0  0.43777  0.02600  0.32087  1.0000
  C   C32       1.0  0.41786  0.04109  0.31690  1.0000
  O   O11       1.0  0.38447  0.02136  0.28854  1.0000
  C   C33       1.0  0.38104  0.02101  0.19195  1.0000
  H   H31       1.0  0.35379  0.00501  0.17527  1.0000
  H   H32       1.0  0.39515  0.00990  0.15908  1.0000
  H   H33       1.0  0.38996  0.04689  0.16533  1.0000
  C   C34       1.0  0.43512  0.35927  0.34170  1.0000
  N   N16       1.0  0.48540  0.41486  0.32094  1.0000
  C   C35       1.0  0.47031  0.37985  0.31697  1.0000
  O   O12       1.0  0.49006  0.36621  0.28867  1.0000
  C   C36       1.0  0.49044  0.36314  0.19208  1.0000
  H   H34       1.0  0.50645  0.35190  0.17546  1.0000
  H   H35       1.0  0.50157  0.38837  0.15923  1.0000
  H   H36       1.0  0.46457  0.34618  0.16540  1.0000
  N   N17       1.0  0.30962  0.08117  0.26970  1.0000
  C   C37       1.0  0.27829  0.07915  0.26467  1.0000
  N   N18       1.0  0.43019  0.23148  0.26965  1.0000
  C   C38       1.0  0.43221  0.20218  0.26477  1.0000
  C   C39       1.0  0.43029  0.18457  0.34586  1.0000
  O   O13       1.0  0.42750  0.18668  0.18241  1.0000
  C   C40       1.0  0.45948  0.19698  0.13652  1.0000
  H   H37       1.0  0.45355  0.18359  0.07186  1.0000
  H   H38       1.0  0.47582  0.18982  0.17490  1.0000
  H   H39       1.0  0.47358  0.22473  0.12331  1.0000
  N   N19       1.0  0.27995  0.20173  0.26958  1.0000
  C   C41       1.0  0.30926  0.23306  0.26455  1.0000
  C   C42       1.0  0.32678  0.24874  0.34570  1.0000
  O   O14       1.0  0.32478  0.24380  0.18220  1.0000
  C   C43       1.0  0.31451  0.26548  0.13615  1.0000
  H   H40       1.0  0.32792  0.27290  0.07151  1.0000
  H   H41       1.0  0.32167  0.28899  0.17444  1.0000
  H   H42       1.0  0.28676  0.25182  0.12290  1.0000
  C   C44       1.0  0.48792  0.46918  0.34621  1.0000
  N   N20       1.0  0.47193  0.48831  0.34598  1.0000
  C   C45       1.0  0.48958  0.02349  0.34621  1.0000
  C   C46       1.0  0.36151  0.09588  0.34590  1.0000
  N   N21       1.0  0.37891  0.07820  0.34375  1.0000
  C   C47       1.0  0.41422  0.09488  0.34279  1.0000
  N   N22       1.0  0.43179  0.13023  0.34443  1.0000
  C   C48       1.0  0.41481  0.14838  0.34663  1.0000
  N   N23       1.0  0.37992  0.13074  0.34719  1.0000
  C   C49       1.0  0.41552  0.26870  0.34575  1.0000
  N   N24       1.0  0.43320  0.30379  0.34370  1.0000
  C   C50       1.0  0.41651  0.32241  0.34274  1.0000
  N   N25       1.0  0.38116  0.30461  0.34432  1.0000
  C   C51       1.0  0.36301  0.26948  0.34640  1.0000
  N   N26       1.0  0.38065  0.25223  0.34697  1.0000
  N   N27       1.0  0.46629  0.09259  0.36679  1.0000
  C   C52       1.0  0.48624  0.07752  0.37053  1.0000
  C   C53       1.0  0.47157  0.04231  0.34604  1.0000
  O   O15       1.0  0.51969  0.09720  0.39856  1.0000
  C   C54       1.0  0.52327  0.09778  0.49512  1.0000
  H   H43       1.0  0.55056  0.11371  0.51144  1.0000
  H   H44       1.0  0.50933  0.60910  0.52784  1.0000
  N   N28       1.0  0.41879  0.37676  0.36673  1.0000
  C   C55       1.0  0.43387  0.41179  0.37048  1.0000
  C   C56       1.0  0.46909  0.43234  0.34605  1.0000
  O   O16       1.0  0.41418  0.42554  0.39843  1.0000
  C   C57       1.0  0.41356  0.42854  0.49499  1.0000
  H   H45       1.0  0.39763  0.43990  0.51124  1.0000
  H   H46       1.0  0.43939  0.44537  0.52211  1.0000
  H   H47       1.0  0.90223  0.40328  0.52771  1.0000
  C   C58       1.0  0.32537  0.08102  0.34800  1.0000
  N   N29       1.0  0.27952  0.08318  0.42388  1.0000
  C   C59       1.0  0.30878  0.08114  0.42922  1.0000
  O   O17       1.0  0.32502  0.08753  0.51099  1.0000
  C   C60       1.0  0.31598  0.05647  0.56015  1.0000
  H   H48       1.0  0.32985  0.06372  0.62413  1.0000
  H   H49       1.0  0.32352  0.04009  0.52348  1.0000
  H   H50       1.0  0.28834  0.04189  0.57482  1.0000
  C   C61       1.0  0.43040  0.24745  0.34789  1.0000
  N   N30       1.0  0.42832  0.19952  0.42389  1.0000
  C   C62       1.0  0.43037  0.23083  0.42916  1.0000
  O   O18       1.0  0.42404  0.24072  0.51092  1.0000
  C   C63       1.0  0.45513  0.26278  0.55989  1.0000
  H   H51       1.0  0.44794  0.26946  0.62388  1.0000
  H   H52       1.0  0.47149  0.28669  0.52309  1.0000
  H   H53       1.0  0.46973  0.24974  0.57455  1.0000
  N   N31       1.0  0.31194  0.23197  0.42394  1.0000
  C   C64       1.0  0.28063  0.20270  0.42923  1.0000
  C   C65       1.0  0.43248  0.57628  0.34170  1.0000
  N   N32       1.0  0.43777  0.52600  0.32087  1.0000
  C   C66       1.0  0.41786  0.54109  0.31690  1.0000
  O   O19       1.0  0.38447  0.52136  0.28854  1.0000
  C   C67       1.0  0.38104  0.52101  0.19195  1.0000
  H   H54       1.0  0.35379  0.50501  0.17527  1.0000
  H   H55       1.0  0.39515  0.50990  0.15908  1.0000
  H   H56       1.0  0.38996  0.54689  0.16533  1.0000
  C   C68       1.0  0.43512  0.85927  0.34170  1.0000
  N   N33       1.0  0.48540  0.91486  0.32094  1.0000
  C   C69       1.0  0.47032  0.87985  0.31697  1.0000
  O   O20       1.0  0.49006  0.86621  0.28867  1.0000
  C   C70       1.0  0.49045  0.86314  0.19208  1.0000
  H   H57       1.0  0.50645  0.85190  0.17546  1.0000
  H   H58       1.0  0.50157  0.88836  0.15923  1.0000
  H   H59       1.0  0.46457  0.84618  0.16539  1.0000
  N   N34       1.0  0.30961  0.58117  0.26970  1.0000
  C   C71       1.0  0.27829  0.57915  0.26467  1.0000
  N   N35       1.0  0.43019  0.73148  0.26965  1.0000
  C   C72       1.0  0.43221  0.70218  0.26477  1.0000
  C   C73       1.0  0.43029  0.68457  0.34586  1.0000
  O   O21       1.0  0.42750  0.68668  0.18240  1.0000
  C   C74       1.0  0.45948  0.69697  0.13652  1.0000
  H   H60       1.0  0.45355  0.68359  0.07186  1.0000
  H   H61       1.0  0.47581  0.68981  0.17490  1.0000
  H   H62       1.0  0.47359  0.72473  0.12331  1.0000
  N   N36       1.0  0.27995  0.70173  0.26957  1.0000
  C   C75       1.0  0.30926  0.73306  0.26455  1.0000
  C   C76       1.0  0.32678  0.74874  0.34570  1.0000
  O   O22       1.0  0.32478  0.74380  0.18220  1.0000
  C   C77       1.0  0.31451  0.76548  0.13616  1.0000
  H   H63       1.0  0.32792  0.77290  0.07151  1.0000
  H   H64       1.0  0.32168  0.78900  0.17444  1.0000
  H   H65       1.0  0.28676  0.75182  0.12290  1.0000
  C   C78       1.0  0.48792  0.96918  0.34621  1.0000
  N   N37       1.0  0.47193  0.98831  0.34598  1.0000
  C   C79       1.0  0.48958  0.52348  0.34621  1.0000
  C   C80       1.0  0.36151  0.59588  0.34590  1.0000
  N   N38       1.0  0.37891  0.57819  0.34375  1.0000
  C   C81       1.0  0.41422  0.59488  0.34279  1.0000
  N   N39       1.0  0.43179  0.63023  0.34443  1.0000
  C   C82       1.0  0.41482  0.64838  0.34663  1.0000
  N   N40       1.0  0.37992  0.63074  0.34719  1.0000
  C   C83       1.0  0.41552  0.76870  0.34575  1.0000
  N   N41       1.0  0.43320  0.80379  0.34370  1.0000
  C   C84       1.0  0.41651  0.82241  0.34274  1.0000
  N   N42       1.0  0.38116  0.80461  0.34432  1.0000
  C   C85       1.0  0.36301  0.76948  0.34640  1.0000
  N   N43       1.0  0.38065  0.75223  0.34697  1.0000
  N   N44       1.0  0.46629  0.59259  0.36678  1.0000
  C   C86       1.0  0.48624  0.57752  0.37053  1.0000
  C   C87       1.0  0.47156  0.54231  0.34604  1.0000
  O   O23       1.0  0.51969  0.59721  0.39856  1.0000
  C   C88       1.0  0.52327  0.59779  0.49512  1.0000
  H   H66       1.0  0.55056  0.61371  0.51144  1.0000
  H   H67       1.0  0.50933  0.10910  0.52784  1.0000
  N   N45       1.0  0.41880  0.87676  0.36673  1.0000
  C   C89       1.0  0.43387  0.91179  0.37048  1.0000
  C   C90       1.0  0.46909  0.93234  0.34605  1.0000
  O   O24       1.0  0.41417  0.92554  0.39842  1.0000
  C   C91       1.0  0.41356  0.92853  0.49499  1.0000
  H   H68       1.0  0.39763  0.93990  0.51124  1.0000
  H   H69       1.0  0.43939  0.94537  0.52212  1.0000
  H   H70       1.0  0.90223  0.90328  0.52769  1.0000
  C   C92       1.0  0.32537  0.58102  0.34800  1.0000
  N   N46       1.0  0.27952  0.58318  0.42388  1.0000
  C   C93       1.0  0.30879  0.58114  0.42922  1.0000
  O   O25       1.0  0.32502  0.58753  0.51099  1.0000
  C   C94       1.0  0.31598  0.55648  0.56014  1.0000
  H   H71       1.0  0.32985  0.56372  0.62413  1.0000
  H   H72       1.0  0.32352  0.54009  0.52348  1.0000
  H   H73       1.0  0.28834  0.54189  0.57482  1.0000
  C   C95       1.0  0.43040  0.74745  0.34789  1.0000
  N   N47       1.0  0.42832  0.69952  0.42389  1.0000
  C   C96       1.0  0.43037  0.73083  0.42916  1.0000
  O   O26       1.0  0.42404  0.74072  0.51092  1.0000
  C   C97       1.0  0.45513  0.76278  0.55989  1.0000
  H   H74       1.0  0.44794  0.76946  0.62388  1.0000
  H   H75       1.0  0.47149  0.78669  0.52309  1.0000
  H   H76       1.0  0.46973  0.74974  0.57455  1.0000
  N   N48       1.0  0.31194  0.73197  0.42394  1.0000
  C   C98       1.0  0.28063  0.70270  0.42923  1.0000
  C   C99       1.0  0.65216  0.07896  0.34170  1.0000
  N   N49       1.0  0.59657  0.07366  0.32096  1.0000
  C   C100      1.0  0.63158  0.09358  0.31699  1.0000
  O   O27       1.0  0.64524  0.12698  0.28873  1.0000
  C   C101      1.0  0.64831  0.13045  0.19215  1.0000
  H   H77       1.0  0.65955  0.15770  0.17555  1.0000
  H   H78       1.0  0.62308  0.11635  0.15929  1.0000
  H   H79       1.0  0.66526  0.12154  0.16544  1.0000
  C   C102      1.0  0.93248  0.07628  0.34170  1.0000
  N   N50       1.0  0.93777  0.02600  0.32087  1.0000
  C   C103      1.0  0.91786  0.04109  0.31690  1.0000
  O   O28       1.0  0.88447  0.02136  0.28854  1.0000
  C   C104      1.0  0.88104  0.02101  0.19195  1.0000
  H   H80       1.0  0.85379  0.00501  0.17527  1.0000
  H   H81       1.0  0.89514  0.00990  0.15908  1.0000
  H   H82       1.0  0.88996  0.04689  0.16533  1.0000
  C   C105      1.0  0.93512  0.35927  0.34170  1.0000
  N   N51       1.0  0.98540  0.41486  0.32094  1.0000
  C   C106      1.0  0.97031  0.37985  0.31697  1.0000
  O   O29       1.0  0.99006  0.36621  0.28867  1.0000
  C   C107      1.0  0.99044  0.36314  0.19208  1.0000
  H   H83       1.0  0.00645  0.35190  0.17546  1.0000
  H   H84       1.0  0.00157  0.38837  0.15923  1.0000
  H   H85       1.0  0.96457  0.34618  0.16540  1.0000
  N   N52       1.0  0.80961  0.08117  0.26970  1.0000
  C   C108      1.0  0.77829  0.07915  0.26467  1.0000
  C   C109      1.0  0.76264  0.08113  0.34573  1.0000
  O   O30       1.0  0.76751  0.08383  0.18228  1.0000
  C   C110      1.0  0.74580  0.05184  0.13649  1.0000
  H   H86       1.0  0.73835  0.05774  0.07179  1.0000
  H   H87       1.0  0.72230  0.03553  0.17490  1.0000
  H   H88       1.0  0.75943  0.03771  0.12337  1.0000
  N   N53       1.0  0.93019  0.23148  0.26965  1.0000
  C   C111      1.0  0.93221  0.20218  0.26477  1.0000
  C   C112      1.0  0.93029  0.18457  0.34586  1.0000
  O   O31       1.0  0.92750  0.18668  0.18241  1.0000
  C   C113      1.0  0.95948  0.19698  0.13652  1.0000
  H   H89       1.0  0.95355  0.18359  0.07186  1.0000
  H   H90       1.0  0.97581  0.18982  0.17490  1.0000
  H   H91       1.0  0.97359  0.22473  0.12331  1.0000
  N   N54       1.0  0.77995  0.20173  0.26958  1.0000
  C   C114      1.0  0.80926  0.23306  0.26455  1.0000
  C   C115      1.0  0.82678  0.24874  0.34570  1.0000
  O   O32       1.0  0.82478  0.24380  0.18220  1.0000
  C   C116      1.0  0.81451  0.26548  0.13615  1.0000
  H   H92       1.0  0.82791  0.27290  0.07151  1.0000
  H   H93       1.0  0.82167  0.28899  0.17444  1.0000
  H   H94       1.0  0.78676  0.25182  0.12290  1.0000
  C   C117      1.0  0.98792  0.46918  0.34621  1.0000
  N   N55       1.0  0.97193  0.48831  0.34598  1.0000
  C   C118      1.0  0.98958  0.02349  0.34621  1.0000
  N   N56       1.0  0.52471  0.03948  0.34598  1.0000
  C   C119      1.0  0.54224  0.02184  0.34621  1.0000
  N   N57       1.0  0.52310  0.48670  0.34598  1.0000
  C   C120      1.0  0.74276  0.14994  0.34577  1.0000
  N   N58       1.0  0.70766  0.13254  0.34372  1.0000
  C   C121      1.0  0.68902  0.09722  0.34276  1.0000
  N   N59       1.0  0.70680  0.07966  0.34436  1.0000
  C   C122      1.0  0.74194  0.09664  0.34655  1.0000
  N   N60       1.0  0.75921  0.13154  0.34707  1.0000
  C   C123      1.0  0.86151  0.09588  0.34590  1.0000
  N   N61       1.0  0.87891  0.07820  0.34375  1.0000
  C   C124      1.0  0.91422  0.09488  0.34279  1.0000
  N   N62       1.0  0.93179  0.13023  0.34443  1.0000
  C   C125      1.0  0.91482  0.14838  0.34663  1.0000
  N   N63       1.0  0.87992  0.13074  0.34719  1.0000
  C   C126      1.0  0.91551  0.26870  0.34575  1.0000
  N   N64       1.0  0.93320  0.30379  0.34370  1.0000
  C   C127      1.0  0.91651  0.32241  0.34274  1.0000
  N   N65       1.0  0.88116  0.30461  0.34432  1.0000
  C   C128      1.0  0.86301  0.26948  0.34640  1.0000
  N   N66       1.0  0.88065  0.25223  0.34697  1.0000
  N   N67       1.0  0.63466  0.04514  0.36670  1.0000
  C   C129      1.0  0.59963  0.02519  0.37045  1.0000
  C   C130      1.0  0.57908  0.03986  0.34605  1.0000
  O   O33       1.0  0.58587  0.99173  0.39838  1.0000
  C   C131      1.0  0.58288  0.98811  0.49494  1.0000
  H   H95       1.0  0.57151  0.96082  0.51117  1.0000
  H   H96       1.0  0.56605  0.49711  0.52209  1.0000
  H   H97       1.0  0.60814  0.00204  0.52765  1.0000
  N   N68       1.0  0.96629  0.09259  0.36679  1.0000
  C   C132      1.0  0.98624  0.07752  0.37053  1.0000
  C   C133      1.0  0.97156  0.04231  0.34604  1.0000
  H   H98       1.0  0.51426  0.07195  0.52219  1.0000
  N   N69       1.0  0.91879  0.37676  0.36673  1.0000
  C   C134      1.0  0.93387  0.41179  0.37048  1.0000
  C   C135      1.0  0.96909  0.43234  0.34605  1.0000
  O   O34       1.0  0.91417  0.42554  0.39843  1.0000
  C   C136      1.0  0.91356  0.42854  0.49499  1.0000
  H   H99       1.0  0.89763  0.43990  0.51124  1.0000
  H   H100      1.0  0.93939  0.44537  0.52211  1.0000
  H   H101      1.0  0.40223  0.40328  0.52771  1.0000
  C   C137      1.0  0.82537  0.08102  0.34800  1.0000
  N   N70       1.0  0.77952  0.08318  0.42388  1.0000
  C   C138      1.0  0.80878  0.08114  0.42922  1.0000
  O   O35       1.0  0.82502  0.08753  0.51099  1.0000
  C   C139      1.0  0.81598  0.05647  0.56015  1.0000
  H   H102      1.0  0.82985  0.06372  0.62413  1.0000
  H   H103      1.0  0.82352  0.04009  0.52348  1.0000
  H   H104      1.0  0.78834  0.04189  0.57482  1.0000
  C   C140      1.0  0.93040  0.24745  0.34789  1.0000
  N   N71       1.0  0.92832  0.19952  0.42389  1.0000
  C   C141      1.0  0.93037  0.23083  0.42916  1.0000
  O   O36       1.0  0.92404  0.24072  0.51092  1.0000
  C   C142      1.0  0.95513  0.26278  0.55989  1.0000
  H   H105      1.0  0.94793  0.26946  0.62388  1.0000
  H   H106      1.0  0.97149  0.28669  0.52309  1.0000
  H   H107      1.0  0.96973  0.24974  0.57455  1.0000
  C   C143      1.0  0.76402  0.18608  0.34797  1.0000
  N   N72       1.0  0.81194  0.23197  0.42394  1.0000
  C   C144      1.0  0.78063  0.20270  0.42923  1.0000
  O   O37       1.0  0.77071  0.18649  0.51102  1.0000
  C   C145      1.0  0.74863  0.19553  0.55986  1.0000
  H   H108      1.0  0.74193  0.18167  0.62388  1.0000
  H   H109      1.0  0.72472  0.18795  0.52300  1.0000
  H   H110      1.0  0.76166  0.22317  0.57447  1.0000
  C   C146      1.0  0.65216  0.57896  0.34170  1.0000
  N   N73       1.0  0.59657  0.57366  0.32096  1.0000
  C   C147      1.0  0.63158  0.59358  0.31699  1.0000
  O   O38       1.0  0.64524  0.62698  0.28874  1.0000
  C   C148      1.0  0.64831  0.63045  0.19215  1.0000
  H   H111      1.0  0.65955  0.65769  0.17556  1.0000
  H   H112      1.0  0.62308  0.61635  0.15930  1.0000
  H   H113      1.0  0.66526  0.62154  0.16544  1.0000
  C   C149      1.0  0.93248  0.57628  0.34170  1.0000
  N   N74       1.0  0.93777  0.52600  0.32087  1.0000
  C   C150      1.0  0.91786  0.54109  0.31690  1.0000
  O   O39       1.0  0.88447  0.52136  0.28854  1.0000
  C   C151      1.0  0.88104  0.52101  0.19195  1.0000
  H   H114      1.0  0.85379  0.50501  0.17527  1.0000
  H   H115      1.0  0.89515  0.50990  0.15908  1.0000
  H   H116      1.0  0.88996  0.54689  0.16533  1.0000
  C   C152      1.0  0.93512  0.85927  0.34170  1.0000
  N   N75       1.0  0.98540  0.91486  0.32094  1.0000
  C   C153      1.0  0.97031  0.87985  0.31697  1.0000
  O   O40       1.0  0.99006  0.86621  0.28867  1.0000
  C   C154      1.0  0.99045  0.86314  0.19208  1.0000
  H   H117      1.0  0.00645  0.85190  0.17546  1.0000
  H   H118      1.0  0.00157  0.88836  0.15923  1.0000
  H   H119      1.0  0.96457  0.84618  0.16539  1.0000
  N   N76       1.0  0.80961  0.58117  0.26970  1.0000
  C   C155      1.0  0.77828  0.57915  0.26467  1.0000
  C   C156      1.0  0.76264  0.58113  0.34573  1.0000
  O   O41       1.0  0.76751  0.58383  0.18228  1.0000
  C   C157      1.0  0.74580  0.55184  0.13649  1.0000
  H   H120      1.0  0.73835  0.55774  0.07179  1.0000
  H   H121      1.0  0.72230  0.53553  0.17490  1.0000
  H   H122      1.0  0.75943  0.53771  0.12337  1.0000
  N   N77       1.0  0.93018  0.73148  0.26965  1.0000
  C   C158      1.0  0.93221  0.70218  0.26477  1.0000
  C   C159      1.0  0.93029  0.68457  0.34586  1.0000
  O   O42       1.0  0.92750  0.68668  0.18240  1.0000
  C   C160      1.0  0.95948  0.69697  0.13652  1.0000
  H   H123      1.0  0.95355  0.68359  0.07186  1.0000
  H   H124      1.0  0.97581  0.68981  0.17490  1.0000
  H   H125      1.0  0.97359  0.72473  0.12331  1.0000
  N   N78       1.0  0.77995  0.70173  0.26957  1.0000
  C   C161      1.0  0.80926  0.73306  0.26455  1.0000
  C   C162      1.0  0.82678  0.74874  0.34570  1.0000
  O   O43       1.0  0.82478  0.74380  0.18220  1.0000
  C   C163      1.0  0.81451  0.76548  0.13616  1.0000
  H   H126      1.0  0.82791  0.77290  0.07151  1.0000
  H   H127      1.0  0.82167  0.78900  0.17444  1.0000
  H   H128      1.0  0.78676  0.75182  0.12290  1.0000
  C   C164      1.0  0.98792  0.96918  0.34621  1.0000
  N   N79       1.0  0.97192  0.98831  0.34598  1.0000
  C   C165      1.0  0.98958  0.52348  0.34621  1.0000
  N   N80       1.0  0.52471  0.53948  0.34598  1.0000
  C   C166      1.0  0.54224  0.52184  0.34621  1.0000
  N   N81       1.0  0.52310  0.98671  0.34598  1.0000
  C   C167      1.0  0.74276  0.64994  0.34577  1.0000
  N   N82       1.0  0.70766  0.63253  0.34372  1.0000
  C   C168      1.0  0.68902  0.59722  0.34276  1.0000
  N   N83       1.0  0.70680  0.57966  0.34436  1.0000
  C   C169      1.0  0.74194  0.59664  0.34655  1.0000
  N   N84       1.0  0.75921  0.63153  0.34707  1.0000
  C   C170      1.0  0.86151  0.59588  0.34590  1.0000
  N   N85       1.0  0.87891  0.57819  0.34375  1.0000
  C   C171      1.0  0.91422  0.59488  0.34279  1.0000
  N   N86       1.0  0.93179  0.63023  0.34443  1.0000
  C   C172      1.0  0.91481  0.64838  0.34663  1.0000
  N   N87       1.0  0.87992  0.63074  0.34719  1.0000
  C   C173      1.0  0.91552  0.76870  0.34575  1.0000
  N   N88       1.0  0.93320  0.80379  0.34370  1.0000
  C   C174      1.0  0.91651  0.82241  0.34274  1.0000
  N   N89       1.0  0.88116  0.80461  0.34432  1.0000
  C   C175      1.0  0.86301  0.76948  0.34640  1.0000
  N   N90       1.0  0.88065  0.75223  0.34697  1.0000
  N   N91       1.0  0.63466  0.54514  0.36670  1.0000
  C   C176      1.0  0.59963  0.52519  0.37045  1.0000
  C   C177      1.0  0.57908  0.53986  0.34605  1.0000
  O   O44       1.0  0.58587  0.49173  0.39838  1.0000
  C   C178      1.0  0.58288  0.48811  0.49493  1.0000
  H   H129      1.0  0.57151  0.46082  0.51117  1.0000
  H   H130      1.0  0.56605  0.99711  0.52209  1.0000
  H   H131      1.0  0.60814  0.50204  0.52765  1.0000
  N   N92       1.0  0.96629  0.59259  0.36678  1.0000
  C   C179      1.0  0.98624  0.57752  0.37053  1.0000
  C   C180      1.0  0.97156  0.54231  0.34604  1.0000
  H   H132      1.0  0.51426  0.57195  0.52219  1.0000
  N   N93       1.0  0.91880  0.87676  0.36673  1.0000
  C   C181      1.0  0.93387  0.91179  0.37048  1.0000
  C   C182      1.0  0.96909  0.93234  0.34605  1.0000
  O   O45       1.0  0.91417  0.92554  0.39842  1.0000
  C   C183      1.0  0.91356  0.92853  0.49499  1.0000
  H   H133      1.0  0.89763  0.93990  0.51124  1.0000
  H   H134      1.0  0.93939  0.94537  0.52212  1.0000
  H   H135      1.0  0.40223  0.90328  0.52769  1.0000
  C   C184      1.0  0.82537  0.58102  0.34800  1.0000
  N   N94       1.0  0.77952  0.58318  0.42388  1.0000
  C   C185      1.0  0.80878  0.58114  0.42922  1.0000
  O   O46       1.0  0.82502  0.58753  0.51099  1.0000
  C   C186      1.0  0.81598  0.55648  0.56014  1.0000
  H   H136      1.0  0.82985  0.56372  0.62413  1.0000
  H   H137      1.0  0.82352  0.54009  0.52348  1.0000
  H   H138      1.0  0.78834  0.54189  0.57482  1.0000
  C   C187      1.0  0.93040  0.74745  0.34789  1.0000
  N   N95       1.0  0.92832  0.69952  0.42389  1.0000
  C   C188      1.0  0.93037  0.73083  0.42916  1.0000
  O   O47       1.0  0.92404  0.74072  0.51092  1.0000
  C   C189      1.0  0.95513  0.76278  0.55989  1.0000
  H   H139      1.0  0.94794  0.76946  0.62388  1.0000
  H   H140      1.0  0.97149  0.78669  0.52309  1.0000
  H   H141      1.0  0.96973  0.74974  0.57455  1.0000
  C   C190      1.0  0.76402  0.68608  0.34797  1.0000
  N   N96       1.0  0.81194  0.73197  0.42394  1.0000
  C   C191      1.0  0.78063  0.70270  0.42923  1.0000
  O   O48       1.0  0.77071  0.68649  0.51102  1.0000
  C   C192      1.0  0.74863  0.69552  0.55986  1.0000
  H   H142      1.0  0.74193  0.68167  0.62388  1.0000
  H   H143      1.0  0.72472  0.68795  0.52300  1.0000
  H   H144      1.0  0.76166  0.72317  0.57447  1.0000
