data_image0
_chemical_formula_structural       HC8HC7HCH4C3H3C8HC7HCH4C4H4C2H2C3HNH2NC2H2C3HNH2NC2H2C3HNH2NC2H2C3HNH2NC2H2C3HNH2NC2H2C3HNH2NC8HC7HCH4C4H3CHC7H3NH2NC7H3NH2NC7H3NH2NC7H3NH2NC7H3NH2NC7H3NH2N
_chemical_formula_sum              "H90 C132 N24"
_cell_length_a       38.3682
_cell_length_b       38.3683
_cell_length_c       14.9896
_cell_angle_alpha    90.0002
_cell_angle_beta     89.9998
_cell_angle_gamma    120

_space_group_name_H-M_alt    "P 1"
_space_group_IT_number       1

loop_
  _space_group_symop_operation_xyz
  'x, y, z'

loop_
  _atom_site_type_symbol
  _atom_site_label
  _atom_site_symmetry_multiplicity
  _atom_site_fract_x
  _atom_site_fract_y
  _atom_site_fract_z
  _atom_site_occupancy
  H   H1        1.0  0.12192  0.52855  0.25713  1.0000
  C   C1        1.0  0.50919  0.54160  0.34089  1.0000
  C   C2        1.0  0.51304  0.50652  0.33736  1.0000
  C   C3        1.0  0.47810  0.46771  0.33256  1.0000
  C   C4        1.0  0.43980  0.46412  0.33972  1.0000
  C   C5        1.0  0.43527  0.49826  0.34784  1.0000
  C   C6        1.0  0.47007  0.53737  0.34495  1.0000
  C   C7        1.0  0.55206  0.51141  0.34077  1.0000
  C   C8        1.0  0.46737  0.57281  0.34740  1.0000
  H   H2        1.0  0.41462  0.43599  0.33808  1.0000
  C   C9        1.0  0.54447  0.58076  0.34086  1.0000
  C   C10       1.0  0.58360  0.58499  0.34490  1.0000
  C   C11       1.0  0.61840  0.62410  0.34771  1.0000
  C   C12       1.0  0.61386  0.65824  0.33959  1.0000
  C   C13       1.0  0.57557  0.65465  0.33237  1.0000
  C   C14       1.0  0.54062  0.61584  0.33727  1.0000
  C   C15       1.0  0.58630  0.54956  0.34739  1.0000
  H   H3        1.0  0.63904  0.68637  0.33793  1.0000
  C   C16       1.0  0.50161  0.61095  0.34067  1.0000
  H   H4        1.0  0.61340  0.55072  0.35202  1.0000
  H   H5        1.0  0.55617  0.48705  0.34198  1.0000
  H   H6        1.0  0.49749  0.63532  0.34190  1.0000
  H   H7        1.0  0.44027  0.57165  0.35206  1.0000
  C   C17       1.0  0.57359  0.68891  0.31282  1.0000
  C   C18       1.0  0.65696  0.63110  0.36361  1.0000
  C   C19       1.0  0.48007  0.43345  0.31296  1.0000
  H   H8        1.0  0.55946  0.68891  0.25713  1.0000
  H   H9        1.0  0.67017  0.64436  0.42072  1.0000
  H   H10       1.0  0.49412  0.43343  0.25715  1.0000
  C   C20       1.0  0.54641  0.06312  0.34090  1.0000
  C   C21       1.0  0.58150  0.10205  0.33731  1.0000
  C   C22       1.0  0.62030  0.10590  0.33240  1.0000
  C   C23       1.0  0.62388  0.07119  0.33969  1.0000
  C   C24       1.0  0.58975  0.03253  0.34787  1.0000
  C   C25       1.0  0.55063  0.02821  0.34498  1.0000
  C   C26       1.0  0.57661  0.13617  0.34071  1.0000
  C   C27       1.0  0.51519  0.99009  0.34748  1.0000
  H   H11       1.0  0.65201  0.07414  0.33803  1.0000
  C   C28       1.0  0.50725  0.05924  0.34089  1.0000
  C   C29       1.0  0.50304  0.09415  0.34495  1.0000
  C   C30       1.0  0.46392  0.08983  0.34783  1.0000
  C   C31       1.0  0.42978  0.05117  0.33966  1.0000
  C   C32       1.0  0.43336  0.01646  0.33241  1.0000
  C   C33       1.0  0.47217  0.02031  0.33731  1.0000
  C   C34       1.0  0.53847  0.13227  0.34744  1.0000
  H   H12       1.0  0.40165  0.04822  0.33800  1.0000
  C   C35       1.0  0.47705  0.98619  0.34072  1.0000
  H   H13       1.0  0.53732  0.15822  0.35203  1.0000
  H   H14       1.0  0.60098  0.16465  0.34189  1.0000
  H   H15       1.0  0.45268  0.95771  0.34196  1.0000
  H   H16       1.0  0.51635  0.96415  0.35211  1.0000
  C   C36       1.0  0.59673  0.00095  0.36375  1.0000
  C   C37       1.0  0.39910  0.98022  0.31282  1.0000
  C   C38       1.0  0.45694  0.12141  0.36368  1.0000
  C   C39       1.0  0.65457  0.14214  0.31282  1.0000
  H   H17       1.0  0.61002  0.00102  0.42082  1.0000
  H   H18       1.0  0.39910  0.96612  0.25710  1.0000
  H   H19       1.0  0.44368  0.12137  0.42079  1.0000
  H   H20       1.0  0.65455  0.15626  0.25713  1.0000
  C   C40       1.0  0.20983  0.49602  0.26884  1.0000
  C   C41       1.0  0.17287  0.49511  0.27440  1.0000
  H   H21       1.0  0.21935  0.49214  0.20771  1.0000
  H   H22       1.0  0.15636  0.49035  0.21750  1.0000
  C   C42       1.0  0.34372  0.50160  0.31636  1.0000
  C   C43       1.0  0.34084  0.53474  0.28522  1.0000
  C   C44       1.0  0.30504  0.53657  0.29456  1.0000
  H   H23       1.0  0.36579  0.55862  0.25757  1.0000
  N   N1        1.0  0.30501  0.57028  0.26625  1.0000
  H   H24       1.0  0.28171  0.57364  0.27360  1.0000
  H   H25       1.0  0.32884  0.59270  0.23973  1.0000
  N   N2        1.0  0.37924  0.50363  0.30949  1.0000
  C   C45       1.0  0.59206  0.80936  0.26883  1.0000
  C   C46       1.0  0.59297  0.77331  0.27438  1.0000
  H   H26       1.0  0.59594  0.82276  0.20770  1.0000
  H   H27       1.0  0.59772  0.76156  0.21748  1.0000
  C   C47       1.0  0.58639  0.93763  0.31649  1.0000
  C   C48       1.0  0.55327  0.90160  0.28534  1.0000
  C   C49       1.0  0.55146  0.86398  0.29463  1.0000
  H   H28       1.0  0.52938  0.90265  0.25768  1.0000
  N   N3        1.0  0.51778  0.83024  0.26628  1.0000
  H   H29       1.0  0.51444  0.80358  0.27358  1.0000
  H   H30       1.0  0.49534  0.83162  0.23979  1.0000
  N   N4        1.0  0.58433  0.97109  0.30963  1.0000
  C   C50       1.0  0.27867  0.87822  0.26883  1.0000
  C   C51       1.0  0.31472  0.91518  0.27438  1.0000
  H   H31       1.0  0.26527  0.86870  0.20770  1.0000
  H   H32       1.0  0.32646  0.93169  0.21749  1.0000
  C   C52       1.0  0.15038  0.74430  0.31637  1.0000
  C   C53       1.0  0.18640  0.74718  0.28527  1.0000
  C   C54       1.0  0.22403  0.78299  0.29459  1.0000
  H   H33       1.0  0.18534  0.72225  0.25758  1.0000
  N   N5        1.0  0.25777  0.78304  0.26625  1.0000
  H   H34       1.0  0.28442  0.80634  0.27356  1.0000
  H   H35       1.0  0.25637  0.75920  0.23975  1.0000
  N   N6        1.0  0.11689  0.70879  0.30948  1.0000
  C   C55       1.0  0.84389  0.62641  0.26886  1.0000
  C   C56       1.0  0.88085  0.62732  0.27443  1.0000
  H   H36       1.0  0.83438  0.63030  0.20772  1.0000
  H   H37       1.0  0.89737  0.63208  0.21756  1.0000
  C   C57       1.0  0.70996  0.62077  0.31635  1.0000
  C   C58       1.0  0.71286  0.58765  0.28517  1.0000
  C   C59       1.0  0.74867  0.58583  0.29454  1.0000
  H   H38       1.0  0.68792  0.56375  0.25756  1.0000
  N   N7        1.0  0.74872  0.55214  0.26621  1.0000
  H   H39       1.0  0.77201  0.54877  0.27365  1.0000
  H   H40       1.0  0.72488  0.52969  0.23977  1.0000
  N   N8        1.0  0.67443  0.61871  0.30950  1.0000
  C   C60       1.0  0.46160  0.31301  0.26887  1.0000
  C   C61       1.0  0.46070  0.34905  0.27446  1.0000
  H   H41       1.0  0.45771  0.29960  0.20774  1.0000
  H   H42       1.0  0.45593  0.36081  0.21758  1.0000
  C   C62       1.0  0.46725  0.18472  0.31635  1.0000
  C   C63       1.0  0.50038  0.22074  0.28522  1.0000
  C   C64       1.0  0.50219  0.25837  0.29456  1.0000
  H   H43       1.0  0.52428  0.21970  0.25759  1.0000
  N   N9        1.0  0.53589  0.29211  0.26626  1.0000
  H   H44       1.0  0.53924  0.31877  0.27359  1.0000
  H   H45       1.0  0.55833  0.29072  0.23975  1.0000
  N   N10       1.0  0.46931  0.15125  0.30952  1.0000
  C   C65       1.0  0.77500  0.24415  0.26884  1.0000
  C   C66       1.0  0.73895  0.20719  0.27438  1.0000
  H   H46       1.0  0.78840  0.25367  0.20771  1.0000
  H   H47       1.0  0.72720  0.19068  0.21748  1.0000
  C   C67       1.0  0.90328  0.37807  0.31646  1.0000
  C   C68       1.0  0.86726  0.37517  0.28530  1.0000
  C   C69       1.0  0.82964  0.33936  0.29461  1.0000
  H   H48       1.0  0.86831  0.40010  0.25761  1.0000
  N   N11       1.0  0.79589  0.33930  0.26626  1.0000
  H   H49       1.0  0.76924  0.31600  0.27357  1.0000
  H   H50       1.0  0.79729  0.36314  0.23974  1.0000
  N   N12       1.0  0.93676  0.41359  0.30955  1.0000
  C   C70       1.0  0.02490  0.57883  0.34096  1.0000
  C   C71       1.0  0.98597  0.57498  0.33741  1.0000
  C   C72       1.0  0.98211  0.60993  0.33251  1.0000
  C   C73       1.0  0.01681  0.64822  0.33971  1.0000
  C   C74       1.0  0.05549  0.65276  0.34784  1.0000
  C   C75       1.0  0.05980  0.61796  0.34500  1.0000
  C   C76       1.0  0.95185  0.53597  0.34086  1.0000
  C   C77       1.0  0.09793  0.62065  0.34745  1.0000
  H   H51       1.0  0.01387  0.67341  0.33799  1.0000
  C   C78       1.0  0.02878  0.54355  0.34094  1.0000
  C   C79       1.0  0.99388  0.50442  0.34496  1.0000
  C   C80       1.0  0.99819  0.46962  0.34771  1.0000
  C   C81       1.0  0.03687  0.47416  0.33964  1.0000
  C   C82       1.0  0.07157  0.51245  0.33245  1.0000
  C   C83       1.0  0.06771  0.54740  0.33737  1.0000
  C   C84       1.0  0.95576  0.50173  0.34747  1.0000
  H   H52       1.0  0.03981  0.44898  0.33792  1.0000
  C   C85       1.0  0.10184  0.58641  0.34082  1.0000
  H   H53       1.0  0.92981  0.47463  0.35195  1.0000
  H   H54       1.0  0.92337  0.53186  0.34190  1.0000
  H   H55       1.0  0.13031  0.59053  0.34193  1.0000
  H   H56       1.0  0.12387  0.64775  0.35206  1.0000
  C   C86       1.0  0.08706  0.69133  0.36366  1.0000
  C   C87       1.0  0.10781  0.51443  0.31285  1.0000
  C   C88       1.0  0.96662  0.43106  0.36364  1.0000
  C   C89       1.0  0.94587  0.60796  0.31292  1.0000
  H   H57       1.0  0.08707  0.70450  0.42087  1.0000
  H   H58       1.0  0.96668  0.41786  0.42076  1.0000
  H   H59       1.0  0.93179  0.59388  0.25714  1.0000
  C   C90       1.0  0.39670  0.49126  0.36366  1.0000
  H   H60       1.0  0.38352  0.47809  0.42086  1.0000
  C   C91       1.0  0.15864  0.50052  0.35717  1.0000
  C   C92       1.0  0.18174  0.50568  0.43434  1.0000
  C   C93       1.0  0.21938  0.50716  0.43032  1.0000
  C   C94       1.0  0.23357  0.50240  0.34582  1.0000
  C   C95       1.0  0.27092  0.50345  0.33498  1.0000
  C   C96       1.0  0.27349  0.46972  0.36394  1.0000
  C   C97       1.0  0.30949  0.46887  0.35517  1.0000
  H   H61       1.0  0.24915  0.44552  0.39243  1.0000
  H   H62       1.0  0.31056  0.44421  0.37736  1.0000
  H   H63       1.0  0.17135  0.50943  0.49449  1.0000
  N   N13       1.0  0.24077  0.51377  0.50707  1.0000
  H   H64       1.0  0.23062  0.51727  0.56392  1.0000
  H   H65       1.0  0.26717  0.51612  0.50766  1.0000
  N   N14       1.0  0.12405  0.50038  0.36613  1.0000
  C   C98       1.0  0.58756  0.75367  0.35714  1.0000
  C   C99       1.0  0.58240  0.77160  0.43432  1.0000
  C   C100      1.0  0.58092  0.80777  0.43031  1.0000
  C   C101      1.0  0.58568  0.82671  0.34582  1.0000
  C   C102      1.0  0.58461  0.86301  0.33500  1.0000
  C   C103      1.0  0.61833  0.89931  0.36395  1.0000
  C   C104      1.0  0.61916  0.93615  0.35521  1.0000
  H   H66       1.0  0.64255  0.89919  0.39240  1.0000
  H   H67       1.0  0.64381  0.96189  0.37739  1.0000
  H   H68       1.0  0.57865  0.75745  0.49447  1.0000
  N   N15       1.0  0.57432  0.82254  0.50708  1.0000
  H   H69       1.0  0.57072  0.80884  0.56388  1.0000
  H   H70       1.0  0.57187  0.84653  0.50764  1.0000
  N   N16       1.0  0.58769  0.71921  0.36609  1.0000
  C   C105      1.0  0.33435  0.92941  0.35715  1.0000
  C   C106      1.0  0.31642  0.90631  0.43433  1.0000
  C   C107      1.0  0.28027  0.86866  0.43030  1.0000
  C   C108      1.0  0.26132  0.85447  0.34581  1.0000
  C   C109      1.0  0.22502  0.81712  0.33497  1.0000
  C   C110      1.0  0.18873  0.81454  0.36395  1.0000
  C   C111      1.0  0.15187  0.77854  0.35517  1.0000
  H   H71       1.0  0.18885  0.83888  0.39240  1.0000
  H   H72       1.0  0.12614  0.77747  0.37733  1.0000
  H   H73       1.0  0.33058  0.91669  0.49447  1.0000
  N   N17       1.0  0.26550  0.84727  0.50705  1.0000
  H   H74       1.0  0.27915  0.85741  0.56390  1.0000
  H   H75       1.0  0.24146  0.82086  0.50764  1.0000
  N   N18       1.0  0.36881  0.96400  0.36611  1.0000
  C   C112      1.0  0.89506  0.62190  0.35721  1.0000
  C   C113      1.0  0.87195  0.61672  0.43437  1.0000
  C   C114      1.0  0.83431  0.61525  0.43032  1.0000
  C   C115      1.0  0.82013  0.62002  0.34581  1.0000
  C   C116      1.0  0.78279  0.61897  0.33495  1.0000
  C   C117      1.0  0.78020  0.65268  0.36396  1.0000
  C   C118      1.0  0.74418  0.65352  0.35517  1.0000
  H   H76       1.0  0.80453  0.67689  0.39243  1.0000
  H   H77       1.0  0.74310  0.67816  0.37738  1.0000
  H   H78       1.0  0.88233  0.61296  0.49452  1.0000
  N   N19       1.0  0.81291  0.60863  0.50706  1.0000
  H   H79       1.0  0.82304  0.60511  0.56391  1.0000
  H   H80       1.0  0.78651  0.60627  0.50764  1.0000
  N   N20       1.0  0.92964  0.62201  0.36620  1.0000
  C   C119      1.0  0.46613  0.36869  0.35723  1.0000
  C   C120      1.0  0.47130  0.35075  0.43439  1.0000
  C   C121      1.0  0.47277  0.31459  0.43033  1.0000
  C   C122      1.0  0.46800  0.29564  0.34583  1.0000
  C   C123      1.0  0.46905  0.25935  0.33496  1.0000
  C   C124      1.0  0.43533  0.22305  0.36390  1.0000
  C   C125      1.0  0.43450  0.18620  0.35513  1.0000
  H   H81       1.0  0.41113  0.22317  0.39239  1.0000
  H   H82       1.0  0.40985  0.16047  0.37733  1.0000
  H   H83       1.0  0.47507  0.36490  0.49454  1.0000
  N   N21       1.0  0.47940  0.29981  0.50706  1.0000
  H   H84       1.0  0.48292  0.31345  0.56392  1.0000
  H   H85       1.0  0.48175  0.27576  0.50764  1.0000
  N   N22       1.0  0.46601  0.40315  0.36624  1.0000
  C   C126      1.0  0.71932  0.19295  0.35715  1.0000
  C   C127      1.0  0.73725  0.21604  0.43433  1.0000
  C   C128      1.0  0.77341  0.25368  0.43032  1.0000
  C   C129      1.0  0.79236  0.26788  0.34583  1.0000
  C   C130      1.0  0.82866  0.30524  0.33501  1.0000
  C   C131      1.0  0.86495  0.30782  0.36398  1.0000
  C   C132      1.0  0.90181  0.34384  0.35521  1.0000
  H   H86       1.0  0.86484  0.28349  0.39244  1.0000
  H   H87       1.0  0.92753  0.34491  0.37739  1.0000
  H   H88       1.0  0.72311  0.20564  0.49448  1.0000
  N   N23       1.0  0.78819  0.27506  0.50709  1.0000
  H   H89       1.0  0.77449  0.26495  0.56390  1.0000
  H   H90       1.0  0.81218  0.30150  0.50765  1.0000
  N   N24       1.0  0.68486  0.15836  0.36609  1.0000
