data_image0
_chemical_formula_structural       C3NC3NC5NC5NC36H26N4C3NC3NC5NC5NC36H26N4C3NC3NC5NC5NC36H26N4C3H2CH2CHC3H2CH3CHC3H2CH3CHC3H2CH2CHC3H2CH3CHC3H2CH2CHC16H16C16H16C16H16C3NC2NHNH2CHC3NC2NHNHCHC3NC2NHNHCHC3NC2NHNH2CHC3NC2NHNHCHC3NC2NHNH2CH
_chemical_formula_sum              "C270 N42 H180"
_cell_length_a       67.7597
_cell_length_b       67.7598
_cell_length_c       14.9151
_cell_angle_alpha    89.8356
_cell_angle_beta     90.1644
_cell_angle_gamma    120

_space_group_name_H-M_alt    "P 1"
_space_group_IT_number       1

loop_
  _space_group_symop_operation_xyz
  'x, y, z'

loop_
  _atom_site_type_symbol
  _atom_site_label
  _atom_site_symmetry_multiplicity
  _atom_site_fract_x
  _atom_site_fract_y
  _atom_site_fract_z
  _atom_site_occupancy
  C   C1        1.0  0.04574  0.50606  0.32234  1.0000
  C   C2        1.0  0.02218  0.49429  0.32276  1.0000
  C   C3        1.0  0.01470  0.51012  0.32050  1.0000
  N   N1        1.0  0.03396  0.53083  0.31877  1.0000
  C   C4        1.0  0.05322  0.52938  0.31990  1.0000
  C   C5        1.0  0.07644  0.54707  0.31898  1.0000
  C   C6        1.0  0.08385  0.57076  0.31825  1.0000
  N   N2        1.0  0.07097  0.58087  0.31937  1.0000
  C   C7        1.0  0.08384  0.60387  0.31874  1.0000
  C   C8        1.0  0.10648  0.60882  0.31704  1.0000
  C   C9        1.0  0.10648  0.58846  0.31661  1.0000
  C   C10       1.0  0.07642  0.62013  0.31996  1.0000
  C   C11       1.0  0.05320  0.61462  0.32039  1.0000
  N   N3        1.0  0.03394  0.59391  0.31863  1.0000
  C   C12       1.0  0.01469  0.59537  0.31972  1.0000
  C   C13       1.0  0.02217  0.61868  0.32218  1.0000
  C   C14       1.0  0.04573  0.63045  0.32266  1.0000
  C   C15       1.0  0.99146  0.57767  0.31874  1.0000
  C   C16       1.0  0.98405  0.55399  0.31809  1.0000
  N   N4        1.0  0.99694  0.54388  0.31923  1.0000
  C   C17       1.0  0.98406  0.52088  0.31874  1.0000
  C   C18       1.0  0.96142  0.51594  0.31721  1.0000
  C   C19       1.0  0.96142  0.53629  0.31666  1.0000
  C   C20       1.0  0.99148  0.50461  0.32004  1.0000
  C   C21       1.0  0.97417  0.48114  0.32230  1.0000
  C   C22       1.0  0.93539  0.43610  0.32667  1.0000
  C   C23       1.0  0.94553  0.44688  0.24436  1.0000
  C   C24       1.0  0.96453  0.46908  0.24206  1.0000
  C   C25       1.0  0.91515  0.41411  0.32871  1.0000
  C   C26       1.0  0.91241  0.39626  0.27138  1.0000
  C   C27       1.0  0.89237  0.37477  0.27278  1.0000
  C   C28       1.0  0.87423  0.37038  0.33137  1.0000
  C   C29       1.0  0.97418  0.58387  0.31882  1.0000
  C   C30       1.0  0.93584  0.59089  0.31746  1.0000
  C   C31       1.0  0.94677  0.59069  0.23681  1.0000
  C   C32       1.0  0.96558  0.58717  0.23730  1.0000
  C   C33       1.0  0.91593  0.59326  0.31663  1.0000
  C   C34       1.0  0.87554  0.59707  0.31733  1.0000
  C   C35       1.0  0.87871  0.58389  0.25205  1.0000
  C   C36       1.0  0.89846  0.58193  0.25193  1.0000
  C   C37       1.0  0.09372  0.64360  0.32221  1.0000
  C   C38       1.0  0.10305  0.65583  0.24196  1.0000
  C   C39       1.0  0.12193  0.67811  0.24419  1.0000
  C   C40       1.0  0.13224  0.68880  0.32642  1.0000
  C   C41       1.0  0.15232  0.71091  0.32834  1.0000
  C   C42       1.0  0.19286  0.75493  0.33103  1.0000
  C   C43       1.0  0.17450  0.75042  0.27315  1.0000
  C   C44       1.0  0.15464  0.72878  0.27172  1.0000
  C   C45       1.0  0.09375  0.54089  0.31919  1.0000
  C   C46       1.0  0.10224  0.53756  0.23774  1.0000
  C   C47       1.0  0.13231  0.53422  0.31790  1.0000
  C   C48       1.0  0.12115  0.53421  0.23730  1.0000
  C   C49       1.0  0.15237  0.53212  0.31707  1.0000
  C   C50       1.0  0.16967  0.54351  0.25192  1.0000
  C   C51       1.0  0.18958  0.54185  0.25206  1.0000
  C   C52       1.0  0.19311  0.52893  0.31783  1.0000
  H   H1        1.0  0.20173  0.55051  0.20425  1.0000
  H   H2        1.0  0.16820  0.55365  0.20452  1.0000
  H   H3        1.0  0.12681  0.53194  0.17685  1.0000
  H   H4        1.0  0.09508  0.53816  0.17799  1.0000
  H   H5        1.0  0.05560  0.49856  0.32389  1.0000
  H   H6        1.0  0.01231  0.47693  0.32448  1.0000
  H   H7        1.0  0.03396  0.54498  0.31619  1.0000
  H   H8        1.0  0.03395  0.57976  0.31599  1.0000
  H   H9        1.0  0.12084  0.58712  0.31534  1.0000
  H   H10       1.0  0.12083  0.62453  0.31607  1.0000
  H   H11       1.0  0.09664  0.64832  0.18123  1.0000
  H   H12       1.0  0.12874  0.68606  0.18452  1.0000
  H   H13       1.0  0.05559  0.64781  0.32441  1.0000
  H   H14       1.0  0.01231  0.62618  0.32369  1.0000
  H   H15       1.0  0.94706  0.50023  0.31644  1.0000
  H   H16       1.0  0.94706  0.53764  0.31554  1.0000
  H   H17       1.0  0.97260  0.58648  0.17754  1.0000
  H   H18       1.0  0.94104  0.59298  0.17632  1.0000
  H   H19       1.0  0.89966  0.57163  0.20490  1.0000
  H   H20       1.0  0.86642  0.57528  0.20456  1.0000
  H   H21       1.0  0.97078  0.47670  0.18130  1.0000
  H   H22       1.0  0.93848  0.43909  0.18472  1.0000
  H   H23       1.0  0.89123  0.36239  0.23060  1.0000
  H   H24       1.0  0.92522  0.39862  0.22875  1.0000
  H   H25       1.0  0.14165  0.72634  0.22972  1.0000
  H   H26       1.0  0.17533  0.76282  0.23160  1.0000
  N   N5        1.0  0.85474  0.35056  0.33760  1.0000
  N   N6        1.0  0.21244  0.52820  0.31369  1.0000
  N   N7        1.0  0.21219  0.77489  0.33734  1.0000
  N   N8        1.0  0.85637  0.59810  0.31316  1.0000
  C   C53       1.0  0.59155  0.63306  0.32411  1.0000
  C   C54       1.0  0.60333  0.62127  0.32444  1.0000
  C   C55       1.0  0.58749  0.59796  0.32227  1.0000
  N   N9        1.0  0.56679  0.59652  0.32063  1.0000
  C   C56       1.0  0.56824  0.61724  0.32178  1.0000
  C   C57       1.0  0.55054  0.62276  0.32094  1.0000
  C   C58       1.0  0.52686  0.60649  0.32018  1.0000
  N   N10       1.0  0.51674  0.58349  0.32127  1.0000
  C   C59       1.0  0.49375  0.57337  0.32059  1.0000
  C   C60       1.0  0.48880  0.59107  0.31892  1.0000
  C   C61       1.0  0.50915  0.61142  0.31854  1.0000
  C   C62       1.0  0.47748  0.54969  0.32177  1.0000
  C   C63       1.0  0.48299  0.53198  0.32223  1.0000
  N   N11       1.0  0.50370  0.53343  0.32049  1.0000
  C   C64       1.0  0.50224  0.51271  0.32162  1.0000
  C   C65       1.0  0.47893  0.49688  0.32405  1.0000
  C   C66       1.0  0.46715  0.50867  0.32449  1.0000
  C   C67       1.0  0.51993  0.50718  0.32070  1.0000
  C   C68       1.0  0.54361  0.52346  0.32003  1.0000
  N   N12       1.0  0.55373  0.54645  0.32111  1.0000
  C   C69       1.0  0.57673  0.55657  0.32059  1.0000
  C   C70       1.0  0.58167  0.53887  0.31906  1.0000
  C   C71       1.0  0.56131  0.51852  0.31859  1.0000
  C   C72       1.0  0.59300  0.58026  0.32179  1.0000
  C   C73       1.0  0.61647  0.58641  0.32389  1.0000
  C   C74       1.0  0.66151  0.59267  0.32792  1.0000
  C   C75       1.0  0.65069  0.59211  0.24570  1.0000
  C   C76       1.0  0.62849  0.58893  0.24355  1.0000
  C   C77       1.0  0.68351  0.59442  0.32977  1.0000
  C   C78       1.0  0.70132  0.60959  0.27229  1.0000
  C   C79       1.0  0.72281  0.61104  0.27350  1.0000
  C   C80       1.0  0.72723  0.59723  0.33204  1.0000
  C   C81       1.0  0.51373  0.48370  0.32082  1.0000
  C   C82       1.0  0.50670  0.43833  0.31952  1.0000
  C   C83       1.0  0.50690  0.44956  0.23886  1.0000
  C   C84       1.0  0.51041  0.47188  0.23931  1.0000
  C   C85       1.0  0.50434  0.41606  0.31872  1.0000
  C   C86       1.0  0.50053  0.37186  0.31942  1.0000
  C   C87       1.0  0.51370  0.38829  0.25412  1.0000
  C   C88       1.0  0.51567  0.41000  0.25404  1.0000
  C   C89       1.0  0.45401  0.54351  0.32389  1.0000
  C   C90       1.0  0.44180  0.54068  0.24356  1.0000
  C   C91       1.0  0.41953  0.53731  0.24564  1.0000
  C   C92       1.0  0.40881  0.53684  0.32777  1.0000
  C   C93       1.0  0.38669  0.53479  0.32950  1.0000
  C   C94       1.0  0.34268  0.53132  0.33172  1.0000
  C   C95       1.0  0.34721  0.51752  0.27406  1.0000
  C   C96       1.0  0.36884  0.51929  0.27288  1.0000
  C   C97       1.0  0.55673  0.64625  0.32116  1.0000
  C   C98       1.0  0.56007  0.65818  0.23972  1.0000
  C   C99       1.0  0.56339  0.69148  0.31989  1.0000
  C   C100      1.0  0.56341  0.68044  0.23929  1.0000
  C   C101      1.0  0.56548  0.71364  0.31907  1.0000
  C   C102      1.0  0.55408  0.71962  0.25391  1.0000
  C   C103      1.0  0.55574  0.74119  0.25404  1.0000
  C   C104      1.0  0.56865  0.75756  0.31983  1.0000
  H   H27       1.0  0.54708  0.74475  0.20623  1.0000
  H   H28       1.0  0.54396  0.70808  0.20648  1.0000
  H   H29       1.0  0.56569  0.68846  0.17884  1.0000
  H   H30       1.0  0.55948  0.65051  0.17997  1.0000
  H   H31       1.0  0.59906  0.65042  0.32560  1.0000
  H   H32       1.0  0.62069  0.62876  0.32606  1.0000
  H   H33       1.0  0.55263  0.58237  0.31827  1.0000
  H   H34       1.0  0.51785  0.54758  0.31787  1.0000
  H   H35       1.0  0.51050  0.62713  0.31727  1.0000
  H   H36       1.0  0.47309  0.58971  0.31790  1.0000
  H   H37       1.0  0.44933  0.54185  0.18289  1.0000
  H   H38       1.0  0.41158  0.53620  0.18589  1.0000
  H   H39       1.0  0.44980  0.50118  0.32625  1.0000
  H   H40       1.0  0.47143  0.47952  0.32562  1.0000
  H   H41       1.0  0.59738  0.54022  0.31827  1.0000
  H   H42       1.0  0.55996  0.50281  0.31746  1.0000
  H   H43       1.0  0.51111  0.47967  0.17955  1.0000
  H   H44       1.0  0.50461  0.44161  0.17837  1.0000
  H   H45       1.0  0.52596  0.42156  0.20696  1.0000
  H   H46       1.0  0.52231  0.38467  0.20663  1.0000
  H   H47       1.0  0.62085  0.58764  0.18285  1.0000
  H   H48       1.0  0.65847  0.59295  0.18598  1.0000
  H   H49       1.0  0.73517  0.62233  0.23124  1.0000
  H   H50       1.0  0.69894  0.62009  0.22974  1.0000
  H   H51       1.0  0.37130  0.50879  0.23097  1.0000
  H   H52       1.0  0.33483  0.50599  0.23247  1.0000
  N   N13       1.0  0.74705  0.59754  0.33806  1.0000
  N   N14       1.0  0.56937  0.77762  0.31569  1.0000
  N   N15       1.0  0.32271  0.53068  0.33779  1.0000
  N   N16       1.0  0.49948  0.35166  0.31522  1.0000
  C   C105      1.0  0.46455  0.05189  0.32496  1.0000
  C   C106      1.0  0.47634  0.07545  0.32543  1.0000
  C   C107      1.0  0.49965  0.08292  0.32334  1.0000
  N   N17       1.0  0.50109  0.06366  0.32165  1.0000
  C   C108      1.0  0.48037  0.04440  0.32265  1.0000
  C   C109      1.0  0.47485  0.02118  0.32172  1.0000
  C   C110      1.0  0.49112  0.01377  0.32109  1.0000
  N   N18       1.0  0.51412  0.02665  0.32226  1.0000
  C   C111      1.0  0.52424  0.01378  0.32170  1.0000
  C   C112      1.0  0.50655  0.99114  0.32004  1.0000
  C   C113      1.0  0.48619  0.99114  0.31950  1.0000
  C   C114      1.0  0.54793  0.02119  0.32294  1.0000
  C   C115      1.0  0.56563  0.04441  0.32329  1.0000
  N   N19       1.0  0.56418  0.06367  0.32151  1.0000
  C   C116      1.0  0.58490  0.08293  0.32248  1.0000
  C   C117      1.0  0.60073  0.07545  0.32486  1.0000
  C   C118      1.0  0.58894  0.05189  0.32545  1.0000
  C   C119      1.0  0.59043  0.10615  0.32148  1.0000
  C   C120      1.0  0.57415  0.11356  0.32094  1.0000
  N   N20       1.0  0.55116  0.10068  0.32211  1.0000
  C   C121      1.0  0.54104  0.11356  0.32168  1.0000
  C   C122      1.0  0.55873  0.13620  0.32012  1.0000
  C   C123      1.0  0.57909  0.13620  0.31952  1.0000
  C   C124      1.0  0.51735  0.10614  0.32295  1.0000
  C   C125      1.0  0.51119  0.12345  0.32514  1.0000
  C   C126      1.0  0.50493  0.16223  0.32942  1.0000
  C   C127      1.0  0.50548  0.15208  0.24714  1.0000
  C   C128      1.0  0.50865  0.13306  0.24486  1.0000
  C   C129      1.0  0.50318  0.18247  0.33139  1.0000
  C   C130      1.0  0.48800  0.18519  0.27403  1.0000
  C   C131      1.0  0.48654  0.20523  0.27534  1.0000
  C   C132      1.0  0.50038  0.22339  0.33384  1.0000
  C   C133      1.0  0.61391  0.12344  0.32134  1.0000
  C   C134      1.0  0.65928  0.16177  0.31947  1.0000
  C   C135      1.0  0.64798  0.15080  0.23895  1.0000
  C   C136      1.0  0.62566  0.13200  0.23968  1.0000
  C   C137      1.0  0.68155  0.18168  0.31837  1.0000
  C   C138      1.0  0.72575  0.22206  0.31848  1.0000
  C   C139      1.0  0.70927  0.21886  0.25341  1.0000
  C   C140      1.0  0.68756  0.19912  0.25359  1.0000
  C   C141      1.0  0.55411  0.00390  0.32521  1.0000
  C   C142      1.0  0.55694  0.99460  0.24494  1.0000
  C   C143      1.0  0.56031  0.97570  0.24712  1.0000
  C   C144      1.0  0.56077  0.96537  0.32931  1.0000
  C   C145      1.0  0.56282  0.94529  0.33115  1.0000
  C   C146      1.0  0.56629  0.90474  0.33359  1.0000
  C   C147      1.0  0.58008  0.92313  0.27583  1.0000
  C   C148      1.0  0.57830  0.94299  0.27453  1.0000
  C   C149      1.0  0.45136  0.00388  0.32173  1.0000
  C   C150      1.0  0.43950  0.99541  0.24014  1.0000
  C   C151      1.0  0.40613  0.96530  0.31992  1.0000
  C   C152      1.0  0.41725  0.97649  0.23945  1.0000
  C   C153      1.0  0.38397  0.94523  0.31883  1.0000
  C   C154      1.0  0.37805  0.92796  0.25365  1.0000
  C   C155      1.0  0.35647  0.90804  0.25355  1.0000
  C   C156      1.0  0.34004  0.90450  0.31904  1.0000
  H   H53       1.0  0.35296  0.89591  0.20570  1.0000
  H   H54       1.0  0.38963  0.92944  0.20643  1.0000
  H   H55       1.0  0.40928  0.97083  0.17890  1.0000
  H   H56       1.0  0.44723  0.00257  0.18047  1.0000
  H   H57       1.0  0.44719  0.04203  0.32637  1.0000
  H   H58       1.0  0.46884  0.08531  0.32707  1.0000
  H   H59       1.0  0.51524  0.06366  0.31927  1.0000
  H   H60       1.0  0.55003  0.06367  0.31895  1.0000
  H   H61       1.0  0.47049  0.97677  0.31821  1.0000
  H   H62       1.0  0.50790  0.97678  0.31906  1.0000
  H   H63       1.0  0.55574  0.00100  0.18421  1.0000
  H   H64       1.0  0.56138  0.96890  0.18741  1.0000
  H   H65       1.0  0.59644  0.04202  0.32720  1.0000
  H   H66       1.0  0.61809  0.08530  0.32633  1.0000
  H   H67       1.0  0.55738  0.15056  0.31937  1.0000
  H   H68       1.0  0.59480  0.15056  0.31835  1.0000
  H   H69       1.0  0.61782  0.12495  0.18002  1.0000
  H   H70       1.0  0.65588  0.15651  0.17837  1.0000
  H   H71       1.0  0.67595  0.19789  0.20670  1.0000
  H   H72       1.0  0.71285  0.23113  0.20588  1.0000
  H   H73       1.0  0.50993  0.12680  0.18413  1.0000
  H   H74       1.0  0.50461  0.15910  0.18747  1.0000
  H   H75       1.0  0.47524  0.20635  0.23316  1.0000
  H   H76       1.0  0.47748  0.17236  0.23150  1.0000
  H   H77       1.0  0.58880  0.95599  0.23257  1.0000
  H   H78       1.0  0.59160  0.92231  0.23424  1.0000
  N   N21       1.0  0.50007  0.24289  0.33992  1.0000
  N   N22       1.0  0.31999  0.88517  0.31465  1.0000
  N   N23       1.0  0.56692  0.88540  0.33974  1.0000
  N   N24       1.0  0.74595  0.24122  0.31403  1.0000
  C   C157      1.0  0.28441  0.52170  0.31896  1.0000
  C   C158      1.0  0.26672  0.51449  0.25459  1.0000
  C   C159      1.0  0.24679  0.51545  0.27154  1.0000
  H   H79       1.0  0.23429  0.50943  0.22356  1.0000
  H   H80       1.0  0.26799  0.50804  0.19422  1.0000
  C   C160      1.0  0.25270  0.53779  0.03477  1.0000
  H   H81       1.0  0.25447  0.52292  0.04870  1.0000
  H   H82       1.0  0.25228  0.54538  0.09865  1.0000
  C   C161      1.0  0.30320  0.51913  0.29911  1.0000
  H   H83       1.0  0.30137  0.50782  0.25276  1.0000
  C   C162      1.0  0.57590  0.85611  0.32094  1.0000
  C   C163      1.0  0.58305  0.84567  0.25647  1.0000
  C   C164      1.0  0.58209  0.82476  0.27345  1.0000
  H   H84       1.0  0.58809  0.81833  0.22543  1.0000
  H   H85       1.0  0.58947  0.85345  0.19605  1.0000
  C   C165      1.0  0.55999  0.80829  0.03679  1.0000
  H   H86       1.0  0.57489  0.82490  0.05065  1.0000
  H   H87       1.0  0.56544  0.79767  0.00185  1.0000
  H   H88       1.0  0.55241  0.80019  0.10069  1.0000
  C   C166      1.0  0.57847  0.87748  0.30105  1.0000
  H   H89       1.0  0.58977  0.88701  0.25464  1.0000
  C   C167      1.0  0.24150  0.81321  0.31887  1.0000
  C   C168      1.0  0.25197  0.83092  0.25461  1.0000
  C   C169      1.0  0.27286  0.85084  0.27183  1.0000
  H   H90       1.0  0.27932  0.86336  0.22393  1.0000
  H   H91       1.0  0.24421  0.82968  0.19415  1.0000
  C   C170      1.0  0.28903  0.84476  0.03528  1.0000
  H   H92       1.0  0.27239  0.84298  0.04895  1.0000
  H   H93       1.0  0.29966  0.86092  0.00064  1.0000
  H   H94       1.0  0.29706  0.84515  0.09929  1.0000
  C   C171      1.0  0.22014  0.79442  0.29872  1.0000
  H   H95       1.0  0.21064  0.79626  0.25219  1.0000
  C   C172      1.0  0.78514  0.60591  0.31871  1.0000
  C   C173      1.0  0.80265  0.61278  0.25398  1.0000
  C   C174      1.0  0.82243  0.61150  0.27083  1.0000
  H   H96       1.0  0.83483  0.61732  0.22266  1.0000
  H   H97       1.0  0.80138  0.61925  0.19346  1.0000
  C   C175      1.0  0.81694  0.58969  0.03435  1.0000
  H   H98       1.0  0.81559  0.60479  0.04811  1.0000
  H   H99       1.0  0.81737  0.58205  0.09831  1.0000
  C   C176      1.0  0.76651  0.60879  0.29888  1.0000
  H   H100      1.0  0.76841  0.62009  0.25210  1.0000
  C   C177      1.0  0.49167  0.27261  0.32073  1.0000
  C   C178      1.0  0.48478  0.28333  0.25605  1.0000
  C   C179      1.0  0.48607  0.30437  0.27290  1.0000
  H   H101      1.0  0.48023  0.31100  0.22477  1.0000
  H   H102      1.0  0.47828  0.27565  0.19557  1.0000
  C   C180      1.0  0.50801  0.32060  0.03632  1.0000
  H   H103      1.0  0.49291  0.30413  0.05009  1.0000
  H   H104      1.0  0.50285  0.33148  0.00108  1.0000
  H   H105      1.0  0.51566  0.32859  0.10029  1.0000
  C   C181      1.0  0.48879  0.25113  0.30089  1.0000
  H   H106      1.0  0.47747  0.24178  0.25420  1.0000
  C   C182      1.0  0.82501  0.31246  0.31871  1.0000
  C   C183      1.0  0.81429  0.29487  0.25426  1.0000
  C   C184      1.0  0.79325  0.27511  0.27130  1.0000
  H   H107      1.0  0.78662  0.26265  0.22334  1.0000
  H   H108      1.0  0.82196  0.29608  0.19380  1.0000
  C   C185      1.0  0.77708  0.28103  0.03453  1.0000
  H   H109      1.0  0.79355  0.28239  0.04834  1.0000
  H   H110      1.0  0.76911  0.28066  0.09847  1.0000
  C   C186      1.0  0.84649  0.33107  0.29869  1.0000
  H   H111      1.0  0.85582  0.32914  0.25200  1.0000
  C   C187      1.0  0.96454  0.47039  0.40478  1.0000
  C   C188      1.0  0.94551  0.44823  0.40678  1.0000
  C   C189      1.0  0.87685  0.38808  0.38855  1.0000
  C   C190      1.0  0.89690  0.40952  0.38729  1.0000
  C   C191      1.0  0.96370  0.58442  0.39976  1.0000
  C   C192      1.0  0.94489  0.58793  0.39894  1.0000
  C   C193      1.0  0.91277  0.60674  0.38121  1.0000
  C   C194      1.0  0.89301  0.60867  0.38151  1.0000
  C   C195      1.0  0.12244  0.67648  0.40655  1.0000
  C   C196      1.0  0.10353  0.65424  0.40463  1.0000
  C   C197      1.0  0.17079  0.71561  0.38616  1.0000
  C   C198      1.0  0.19066  0.73720  0.38745  1.0000
  C   C199      1.0  0.10443  0.54052  0.40010  1.0000
  C   C200      1.0  0.12334  0.53717  0.39933  1.0000
  C   C201      1.0  0.17582  0.51726  0.38248  1.0000
  C   C202      1.0  0.15589  0.51890  0.38216  1.0000
  H   H112      1.0  0.17747  0.50729  0.43001  1.0000
  H   H113      1.0  0.14373  0.50995  0.42950  1.0000
  H   H114      1.0  0.13114  0.53795  0.45910  1.0000
  H   H115      1.0  0.09901  0.54349  0.45992  1.0000
  H   H116      1.0  0.09736  0.64562  0.46374  1.0000
  H   H117      1.0  0.12914  0.68353  0.46759  1.0000
  H   H118      1.0  0.96920  0.58147  0.45964  1.0000
  H   H119      1.0  0.93724  0.58730  0.45875  1.0000
  H   H120      1.0  0.89163  0.61883  0.42865  1.0000
  H   H121      1.0  0.92507  0.61565  0.42822  1.0000
  H   H122      1.0  0.89781  0.42197  0.42865  1.0000
  H   H123      1.0  0.86404  0.38551  0.43168  1.0000
  H   H124      1.0  0.93894  0.44110  0.46787  1.0000
  H   H125      1.0  0.97092  0.47890  0.46391  1.0000
  H   H126      1.0  0.17018  0.70316  0.42701  1.0000
  H   H127      1.0  0.20364  0.73985  0.43008  1.0000
  C   C203      1.0  0.62725  0.58744  0.40630  1.0000
  C   C204      1.0  0.64942  0.59056  0.40812  1.0000
  C   C205      1.0  0.70956  0.58208  0.38935  1.0000
  C   C206      1.0  0.68812  0.58069  0.38826  1.0000
  C   C207      1.0  0.51321  0.47259  0.40176  1.0000
  C   C208      1.0  0.50968  0.45026  0.40099  1.0000
  C   C209      1.0  0.49087  0.39935  0.38332  1.0000
  C   C210      1.0  0.48893  0.37765  0.38361  1.0000
  C   C211      1.0  0.42111  0.53928  0.40798  1.0000
  C   C212      1.0  0.44335  0.54261  0.40623  1.0000
  C   C213      1.0  0.38197  0.54850  0.38715  1.0000
  C   C214      1.0  0.36038  0.54679  0.38820  1.0000
  C   C215      1.0  0.55709  0.65720  0.40208  1.0000
  C   C216      1.0  0.56043  0.67945  0.40132  1.0000
  C   C217      1.0  0.58032  0.75186  0.38449  1.0000
  C   C218      1.0  0.57869  0.73030  0.38417  1.0000
  H   H128      1.0  0.59029  0.76342  0.43205  1.0000
  H   H129      1.0  0.58764  0.72703  0.43152  1.0000
  H   H130      1.0  0.55963  0.68639  0.46107  1.0000
  H   H131      1.0  0.55410  0.64872  0.46188  1.0000
  H   H132      1.0  0.45196  0.54501  0.46538  1.0000
  H   H133      1.0  0.41404  0.53887  0.46896  1.0000
  H   H134      1.0  0.51613  0.48096  0.46164  1.0000
  H   H135      1.0  0.51030  0.44316  0.46081  1.0000
  H   H136      1.0  0.47877  0.36605  0.43076  1.0000
  H   H137      1.0  0.48196  0.40268  0.43032  1.0000
  H   H138      1.0  0.67570  0.56911  0.42975  1.0000
  H   H139      1.0  0.71215  0.57179  0.43244  1.0000
  H   H140      1.0  0.65657  0.59106  0.46916  1.0000
  H   H141      1.0  0.61877  0.58523  0.46548  1.0000
  H   H142      1.0  0.39441  0.56031  0.42796  1.0000
  H   H143      1.0  0.35772  0.55708  0.43066  1.0000
  C   C219      1.0  0.51018  0.13309  0.40760  1.0000
  C   C220      1.0  0.50707  0.15213  0.40954  1.0000
  C   C221      1.0  0.51554  0.22079  0.39103  1.0000
  C   C222      1.0  0.51693  0.20073  0.38987  1.0000
  C   C223      1.0  0.62510  0.13394  0.40216  1.0000
  C   C224      1.0  0.64742  0.15274  0.40110  1.0000
  C   C225      1.0  0.69832  0.18486  0.38275  1.0000
  C   C226      1.0  0.72002  0.20462  0.38275  1.0000
  C   C227      1.0  0.55833  0.97514  0.40946  1.0000
  C   C228      1.0  0.55500  0.99406  0.40759  1.0000
  C   C229      1.0  0.54911  0.92680  0.38890  1.0000
  C   C230      1.0  0.55083  0.90693  0.39005  1.0000
  C   C231      1.0  0.44035  0.99316  0.40251  1.0000
  C   C232      1.0  0.41809  0.97426  0.40150  1.0000
  C   C233      1.0  0.34569  0.92176  0.38372  1.0000
  C   C234      1.0  0.36725  0.94170  0.38366  1.0000
  H   H144      1.0  0.33408  0.92010  0.43109  1.0000
  H   H145      1.0  0.37048  0.95384  0.43104  1.0000
  H   H146      1.0  0.41109  0.96643  0.46118  1.0000
  H   H147      1.0  0.44876  0.99857  0.46242  1.0000
  H   H148      1.0  0.55261  0.00021  0.46671  1.0000
  H   H149      1.0  0.55876  0.96843  0.47048  1.0000
  H   H150      1.0  0.61677  0.12846  0.46214  1.0000
  H   H151      1.0  0.65456  0.16041  0.46081  1.0000
  H   H152      1.0  0.73165  0.20601  0.42975  1.0000
  H   H153      1.0  0.69502  0.17257  0.42979  1.0000
  H   H154      1.0  0.52853  0.19984  0.43124  1.0000
  H   H155      1.0  0.52584  0.23361  0.43409  1.0000
  H   H156      1.0  0.50661  0.15872  0.47062  1.0000
  H   H157      1.0  0.51243  0.12675  0.46673  1.0000
  H   H158      1.0  0.53731  0.92740  0.42972  1.0000
  H   H159      1.0  0.54055  0.89393  0.43258  1.0000
  C   C235      1.0  0.24360  0.52374  0.35388  1.0000
  C   C236      1.0  0.26119  0.53113  0.41895  1.0000
  C   C237      1.0  0.28137  0.53012  0.40194  1.0000
  N   N25       1.0  0.29723  0.53712  0.46865  1.0000
  C   C238      1.0  0.29505  0.54512  0.54900  1.0000
  C   C239      1.0  0.27526  0.54626  0.56578  1.0000
  N   N26       1.0  0.25926  0.53925  0.49996  1.0000
  H   H160      1.0  0.30765  0.55014  0.59600  1.0000
  N   N27       1.0  0.27242  0.55463  0.64822  1.0000
  H   H161      1.0  0.27038  0.56840  0.63561  1.0000
  H   H162      1.0  0.23669  0.53214  0.66665  1.0000
  C   C240      1.0  0.22317  0.52316  0.37253  1.0000
  H   H163      1.0  0.21707  0.51930  0.43458  1.0000
  C   C241      1.0  0.57385  0.81320  0.35585  1.0000
  C   C242      1.0  0.56651  0.82335  0.42099  1.0000
  C   C243      1.0  0.56753  0.84456  0.40399  1.0000
  N   N28       1.0  0.56059  0.85337  0.47080  1.0000
  C   C244      1.0  0.55264  0.84312  0.55121  1.0000
  C   C245      1.0  0.55148  0.82216  0.56797  1.0000
  N   N29       1.0  0.55843  0.81323  0.50206  1.0000
  H   H164      1.0  0.54765  0.85066  0.59828  1.0000
  N   N30       1.0  0.54314  0.81086  0.65046  1.0000
  H   H165      1.0  0.52933  0.79508  0.63794  1.0000
  C   C246      1.0  0.57443  0.79332  0.37450  1.0000
  H   H166      1.0  0.57831  0.79103  0.43653  1.0000
  C   C247      1.0  0.28437  0.85400  0.35432  1.0000
  C   C248      1.0  0.27419  0.83638  0.41926  1.0000
  C   C249      1.0  0.25300  0.81621  0.40199  1.0000
  N   N31       1.0  0.24417  0.80033  0.46859  1.0000
  C   C250      1.0  0.25438  0.80247  0.54907  1.0000
  C   C251      1.0  0.27531  0.82226  0.56611  1.0000
  N   N32       1.0  0.28427  0.83828  0.50041  1.0000
  H   H167      1.0  0.24682  0.78986  0.59597  1.0000
  N   N33       1.0  0.28655  0.82506  0.64871  1.0000
  H   H168      1.0  0.30236  0.82711  0.63634  1.0000
  C   C252      1.0  0.30423  0.87443  0.37323  1.0000
  H   H169      1.0  0.30647  0.88050  0.43530  1.0000
  C   C253      1.0  0.82562  0.60316  0.35333  1.0000
  C   C254      1.0  0.80820  0.59608  0.41872  1.0000
  C   C255      1.0  0.78819  0.59745  0.40189  1.0000
  N   N34       1.0  0.77251  0.59076  0.46895  1.0000
  C   C256      1.0  0.77471  0.58274  0.54948  1.0000
  C   C257      1.0  0.79432  0.58123  0.56605  1.0000
  N   N35       1.0  0.81014  0.58793  0.49988  1.0000
  H   H170      1.0  0.76225  0.57796  0.59674  1.0000
  N   N36       1.0  0.79717  0.57278  0.64859  1.0000
  H   H171      1.0  0.79882  0.55879  0.63618  1.0000
  H   H172      1.0  0.83305  0.59470  0.66571  1.0000
  C   C258      1.0  0.84593  0.60343  0.37186  1.0000
  H   H173      1.0  0.85217  0.60731  0.43377  1.0000
  C   C259      1.0  0.49443  0.31581  0.35538  1.0000
  C   C260      1.0  0.50153  0.30538  0.42071  1.0000
  C   C261      1.0  0.50016  0.28403  0.40386  1.0000
  N   N37       1.0  0.50688  0.27496  0.47087  1.0000
  C   C262      1.0  0.51492  0.28509  0.55137  1.0000
  C   C263      1.0  0.51644  0.30620  0.56795  1.0000
  N   N38       1.0  0.50971  0.31538  0.50184  1.0000
  H   H174      1.0  0.51973  0.27736  0.59859  1.0000
  N   N39       1.0  0.52490  0.31739  0.65048  1.0000
  H   H175      1.0  0.53890  0.33305  0.63803  1.0000
  C   C264      1.0  0.49416  0.33582  0.37394  1.0000
  H   H176      1.0  0.49031  0.33811  0.43588  1.0000
  C   C265      1.0  0.78183  0.27200  0.35376  1.0000
  C   C266      1.0  0.79225  0.28949  0.41888  1.0000
  C   C267      1.0  0.81360  0.30949  0.40183  1.0000
  N   N40       1.0  0.82267  0.32524  0.46865  1.0000
  C   C268      1.0  0.81256  0.32312  0.54913  1.0000
  C   C269      1.0  0.79146  0.30351  0.56591  1.0000
  N   N41       1.0  0.78227  0.28762  0.49998  1.0000
  H   H177      1.0  0.82029  0.33563  0.59621  1.0000
  N   N42       1.0  0.78028  0.30074  0.64842  1.0000
  H   H178      1.0  0.76461  0.29907  0.63592  1.0000
  H   H179      1.0  0.76634  0.26487  0.66614  1.0000
  C   C270      1.0  0.76183  0.25169  0.37256  1.0000
  H   H180      1.0  0.75959  0.24550  0.43454  1.0000
