data_image0
_chemical_formula_structural       C4NC4NH4N2C4NC4NH4N2C4NC4NH4N2CNC4H2CH3CHCNC4H2CH3CHCNC4H2CH3CHCNC4H2CH3CHCNC4H2CH3CHCNC4H2CH3CHC2HC2H3N2C2HC2H3N2C2HC2H3N2C4HCNHCH3CHC4HCNHCH3CHC4HCNHCH3CHC4HCNHCH3CHC4HCNHCH3CHC4HCNHCH3CH
_chemical_formula_sum              "C120 N30 H96"
_cell_length_a       38.7971
_cell_length_b       38.7972
_cell_length_c       14.935
_cell_angle_alpha    90
_cell_angle_beta     90
_cell_angle_gamma    120

_space_group_name_H-M_alt    "P 1"
_space_group_IT_number       1

loop_
  _space_group_symop_operation_xyz
  'x, y, z'

loop_
  _atom_site_type_symbol
  _atom_site_label
  _atom_site_symmetry_multiplicity
  _atom_site_fract_x
  _atom_site_fract_y
  _atom_site_fract_z
  _atom_site_occupancy
  C   C1        1.0  0.98141  0.49111  0.35903  1.0000
  C   C2        1.0  0.89490  0.44728  0.36571  1.0000
  C   C3        1.0  0.91683  0.42702  0.36920  1.0000
  C   C4        1.0  0.95894  0.44886  0.36794  1.0000
  N   N1        1.0  0.85420  0.42689  0.37047  1.0000
  C   C5        1.0  0.02510  0.51333  0.35899  1.0000
  C   C6        1.0  0.04755  0.55556  0.36822  1.0000
  C   C7        1.0  0.08966  0.57742  0.36940  1.0000
  C   C8        1.0  0.11161  0.55719  0.36548  1.0000
  N   N2        1.0  0.15232  0.57761  0.37007  1.0000
  H   H1        1.0  0.16751  0.60627  0.37788  1.0000
  H   H2        1.0  0.83899  0.39822  0.37819  1.0000
  H   H3        1.0  0.97292  0.43279  0.37554  1.0000
  H   H4        1.0  0.03356  0.57160  0.37616  1.0000
  N   N3        1.0  0.11034  0.61699  0.37182  1.0000
  N   N4        1.0  0.89611  0.38745  0.37127  1.0000
  C   C9        1.0  0.51433  0.49143  0.35924  1.0000
  C   C10       1.0  0.55836  0.44895  0.36579  1.0000
  C   C11       1.0  0.57851  0.49114  0.36941  1.0000
  C   C12       1.0  0.55657  0.51131  0.36817  1.0000
  N   N5        1.0  0.57887  0.42876  0.37038  1.0000
  C   C13       1.0  0.49203  0.51283  0.35926  1.0000
  C   C14       1.0  0.44979  0.49296  0.36817  1.0000
  C   C15       1.0  0.42785  0.51312  0.36948  1.0000
  C   C16       1.0  0.44801  0.55531  0.36595  1.0000
  N   N6        1.0  0.42751  0.57551  0.37070  1.0000
  H   H5        1.0  0.39883  0.56197  0.37833  1.0000
  H   H6        1.0  0.60755  0.44231  0.37804  1.0000
  H   H7        1.0  0.57257  0.54136  0.37589  1.0000
  H   H8        1.0  0.43379  0.46291  0.37591  1.0000
  N   N7        1.0  0.38829  0.49415  0.37190  1.0000
  N   N8        1.0  0.61807  0.51012  0.37149  1.0000
  C   C17       1.0  0.51423  0.02437  0.35831  1.0000
  C   C18       1.0  0.55671  0.11085  0.36554  1.0000
  C   C19       1.0  0.51453  0.08879  0.36998  1.0000
  C   C20       1.0  0.49438  0.04669  0.36860  1.0000
  N   N9        1.0  0.57687  0.15155  0.37030  1.0000
  C   C21       1.0  0.49284  0.98070  0.35834  1.0000
  C   C22       1.0  0.51272  0.95836  0.36777  1.0000
  C   C23       1.0  0.49255  0.91626  0.36916  1.0000
  C   C24       1.0  0.45036  0.89422  0.36537  1.0000
  N   N10       1.0  0.43016  0.85352  0.37024  1.0000
  H   H9        1.0  0.44370  0.83840  0.37809  1.0000
  H   H10       1.0  0.56333  0.16665  0.37861  1.0000
  H   H11       1.0  0.46436  0.03258  0.37721  1.0000
  H   H12       1.0  0.54277  0.97246  0.37579  1.0000
  N   N11       1.0  0.51150  0.89565  0.37158  1.0000
  N   N12       1.0  0.49553  0.10934  0.37301  1.0000
  C   C25       1.0  0.29551  0.43847  0.28418  1.0000
  N   N13       1.0  0.26194  0.44084  0.27661  1.0000
  C   C26       1.0  0.21576  0.46160  0.31644  1.0000
  C   C27       1.0  0.21395  0.48221  0.23924  1.0000
  C   C28       1.0  0.18012  0.48668  0.22848  1.0000
  C   C29       1.0  0.14887  0.47161  0.29188  1.0000
  H   H13       1.0  0.17900  0.50271  0.17513  1.0000
  H   H14       1.0  0.30322  0.42641  0.23241  1.0000
  C   C30       1.0  0.24717  0.50115  0.17352  1.0000
  H   H15       1.0  0.27484  0.52134  0.20807  1.0000
  H   H16       1.0  0.24211  0.51834  0.12261  1.0000
  H   H17       1.0  0.25072  0.47833  0.13904  1.0000
  C   C31       1.0  0.11893  0.48116  0.28435  1.0000
  H   H18       1.0  0.11040  0.48465  0.22371  1.0000
  C   C32       1.0  0.56781  0.85868  0.28655  1.0000
  N   N14       1.0  0.56532  0.82268  0.27887  1.0000
  C   C33       1.0  0.54385  0.75548  0.31775  1.0000
  C   C34       1.0  0.52355  0.73338  0.23999  1.0000
  C   C35       1.0  0.51878  0.69497  0.22910  1.0000
  C   C36       1.0  0.53328  0.67837  0.29286  1.0000
  H   H19       1.0  0.50287  0.67801  0.17541  1.0000
  H   H20       1.0  0.58025  0.87857  0.23512  1.0000
  C   C37       1.0  0.50513  0.74807  0.17387  1.0000
  H   H21       1.0  0.48488  0.75560  0.20793  1.0000
  H   H22       1.0  0.48813  0.72603  0.12242  1.0000
  H   H23       1.0  0.52825  0.77448  0.14009  1.0000
  C   C38       1.0  0.52326  0.63872  0.28521  1.0000
  H   H24       1.0  0.51931  0.62675  0.22438  1.0000
  C   C39       1.0  0.14749  0.71003  0.28524  1.0000
  N   N15       1.0  0.18343  0.74361  0.27772  1.0000
  C   C40       1.0  0.25045  0.78970  0.31731  1.0000
  C   C41       1.0  0.27274  0.79169  0.23973  1.0000
  C   C42       1.0  0.31100  0.82558  0.22887  1.0000
  C   C43       1.0  0.32727  0.85671  0.29255  1.0000
  H   H25       1.0  0.32805  0.82683  0.17520  1.0000
  H   H26       1.0  0.12766  0.70246  0.23366  1.0000
  C   C44       1.0  0.25838  0.75860  0.17366  1.0000
  H   H27       1.0  0.25099  0.73087  0.20783  1.0000
  H   H28       1.0  0.28055  0.76378  0.12244  1.0000
  H   H29       1.0  0.23195  0.75509  0.13958  1.0000
  C   C45       1.0  0.36671  0.88676  0.28472  1.0000
  H   H30       1.0  0.37857  0.89545  0.22399  1.0000
  C   C46       1.0  0.71122  0.56653  0.28559  1.0000
  N   N16       1.0  0.74480  0.56418  0.27789  1.0000
  C   C47       1.0  0.79078  0.54307  0.31690  1.0000
  C   C48       1.0  0.79263  0.52273  0.23927  1.0000
  C   C49       1.0  0.82637  0.51809  0.22844  1.0000
  C   C50       1.0  0.85749  0.53275  0.29216  1.0000
  H   H31       1.0  0.82745  0.50214  0.17488  1.0000
  H   H32       1.0  0.70362  0.57881  0.23408  1.0000
  C   C51       1.0  0.75952  0.50414  0.17322  1.0000
  H   H33       1.0  0.73178  0.48385  0.20739  1.0000
  H   H34       1.0  0.76460  0.48713  0.12189  1.0000
  H   H35       1.0  0.75611  0.52716  0.13930  1.0000
  C   C52       1.0  0.88716  0.52280  0.28472  1.0000
  H   H36       1.0  0.89533  0.51897  0.22395  1.0000
  C   C53       1.0  0.43963  0.14625  0.28588  1.0000
  N   N17       1.0  0.44198  0.18217  0.27828  1.0000
  C   C54       1.0  0.46273  0.24913  0.31798  1.0000
  C   C55       1.0  0.48318  0.27149  0.24061  1.0000
  C   C56       1.0  0.48754  0.30974  0.22977  1.0000
  C   C57       1.0  0.47250  0.32591  0.29328  1.0000
  H   H37       1.0  0.50346  0.32687  0.17628  1.0000
  H   H38       1.0  0.42754  0.12646  0.23417  1.0000
  C   C58       1.0  0.50209  0.25723  0.17478  1.0000
  H   H39       1.0  0.52238  0.24984  0.20920  1.0000
  H   H40       1.0  0.51918  0.27946  0.12374  1.0000
  H   H41       1.0  0.47926  0.23081  0.14047  1.0000
  C   C59       1.0  0.48187  0.36534  0.28560  1.0000
  H   H42       1.0  0.48482  0.37717  0.22492  1.0000
  C   C60       1.0  0.85880  0.29438  0.28464  1.0000
  N   N18       1.0  0.82290  0.26073  0.27753  1.0000
  C   C61       1.0  0.75619  0.21424  0.31833  1.0000
  C   C62       1.0  0.73348  0.21172  0.24110  1.0000
  C   C63       1.0  0.69556  0.17730  0.23058  1.0000
  C   C64       1.0  0.68010  0.14620  0.29433  1.0000
  H   H43       1.0  0.67817  0.17554  0.17716  1.0000
  H   H44       1.0  0.87845  0.30204  0.23265  1.0000
  C   C65       1.0  0.74706  0.24474  0.17508  1.0000
  H   H45       1.0  0.75397  0.27231  0.20937  1.0000
  H   H46       1.0  0.72461  0.23910  0.12422  1.0000
  H   H47       1.0  0.77363  0.24883  0.14057  1.0000
  C   C66       1.0  0.64110  0.11533  0.28694  1.0000
  H   H48       1.0  0.63014  0.10404  0.22688  1.0000
  C   C67       1.0  0.95820  0.51014  0.35107  1.0000
  C   C68       1.0  0.91619  0.48926  0.35554  1.0000
  H   H49       1.0  0.97144  0.54008  0.34150  1.0000
  C   C69       1.0  0.09033  0.51522  0.35510  1.0000
  C   C70       1.0  0.04831  0.49433  0.35070  1.0000
  H   H50       1.0  0.03508  0.46439  0.34100  1.0000
  H   H51       1.0  0.16784  0.56424  0.36762  1.0000
  H   H52       1.0  0.83869  0.44028  0.36839  1.0000
  N   N19       1.0  0.11080  0.49610  0.35243  1.0000
  N   N20       1.0  0.89578  0.50844  0.35310  1.0000
  C   C71       1.0  0.49540  0.44921  0.35119  1.0000
  C   C72       1.0  0.51638  0.42816  0.35562  1.0000
  H   H53       1.0  0.46547  0.43244  0.34167  1.0000
  C   C73       1.0  0.48999  0.57610  0.35582  1.0000
  C   C74       1.0  0.51097  0.55507  0.35137  1.0000
  H   H54       1.0  0.54090  0.57184  0.34189  1.0000
  H   H55       1.0  0.44083  0.60441  0.36859  1.0000
  H   H56       1.0  0.56556  0.39987  0.36809  1.0000
  N   N21       1.0  0.50910  0.61570  0.35359  1.0000
  N   N22       1.0  0.49735  0.38858  0.35319  1.0000
  C   C75       1.0  0.55641  0.04769  0.34912  1.0000
  C   C76       1.0  0.57749  0.08972  0.35411  1.0000
  H   H57       1.0  0.57309  0.03448  0.33869  1.0000
  C   C77       1.0  0.42957  0.91539  0.35479  1.0000
  C   C78       1.0  0.45063  0.95741  0.35003  1.0000
  H   H58       1.0  0.43390  0.97060  0.34007  1.0000
  H   H59       1.0  0.40127  0.83793  0.36772  1.0000
  H   H60       1.0  0.60574  0.16719  0.36700  1.0000
  N   N23       1.0  0.38998  0.89482  0.35239  1.0000
  N   N24       1.0  0.61706  0.11047  0.35117  1.0000
  C   C79       1.0  0.32079  0.45555  0.35866  1.0000
  C   C80       1.0  0.24943  0.45787  0.33860  1.0000
  C   C81       1.0  0.27270  0.47420  0.41737  1.0000
  C   C82       1.0  0.30836  0.47278  0.42563  1.0000
  H   H61       1.0  0.32642  0.48579  0.47993  1.0000
  C   C83       1.0  0.15229  0.45101  0.36614  1.0000
  N   N25       1.0  0.18498  0.44715  0.37559  1.0000
  H   H62       1.0  0.13108  0.43999  0.41520  1.0000
  C   C84       1.0  0.26223  0.49475  0.48727  1.0000
  H   H63       1.0  0.25930  0.51878  0.45708  1.0000
  H   H64       1.0  0.28464  0.50768  0.54003  1.0000
  H   H65       1.0  0.23410  0.47362  0.51875  1.0000
  C   C85       1.0  0.35824  0.45922  0.36015  1.0000
  H   H66       1.0  0.36211  0.43719  0.33838  1.0000
  C   C86       1.0  0.55014  0.86664  0.36022  1.0000
  C   C87       1.0  0.54769  0.79290  0.34016  1.0000
  C   C88       1.0  0.53074  0.79961  0.41818  1.0000
  C   C89       1.0  0.53226  0.83673  0.42646  1.0000
  H   H67       1.0  0.51875  0.84159  0.48008  1.0000
  C   C90       1.0  0.55364  0.70213  0.36764  1.0000
  N   N26       1.0  0.55775  0.73877  0.37729  1.0000
  H   H68       1.0  0.56417  0.69163  0.41712  1.0000
  C   C91       1.0  0.50952  0.76832  0.48719  1.0000
  H   H69       1.0  0.48566  0.74155  0.45601  1.0000
  H   H70       1.0  0.49626  0.77769  0.53944  1.0000
  H   H71       1.0  0.53030  0.76105  0.51950  1.0000
  C   C92       1.0  0.54644  0.90041  0.36113  1.0000
  H   H72       1.0  0.56889  0.92654  0.34181  1.0000
  C   C93       1.0  0.13939  0.68459  0.35936  1.0000
  C   C94       1.0  0.21308  0.75598  0.33945  1.0000
  C   C95       1.0  0.20622  0.73253  0.41788  1.0000
  C   C96       1.0  0.16914  0.69685  0.42604  1.0000
  H   H73       1.0  0.16417  0.67867  0.48007  1.0000
  C   C97       1.0  0.30338  0.85311  0.36722  1.0000
  N   N27       1.0  0.26687  0.82037  0.37674  1.0000
  H   H74       1.0  0.31364  0.87423  0.41648  1.0000
  C   C98       1.0  0.23733  0.74285  0.48748  1.0000
  H   H75       1.0  0.26425  0.74583  0.45693  1.0000
  H   H76       1.0  0.22789  0.72032  0.53998  1.0000
  H   H77       1.0  0.24437  0.77091  0.51936  1.0000
  C   C99       1.0  0.10558  0.64714  0.36064  1.0000
  H   H78       1.0  0.07960  0.64343  0.33997  1.0000
  C   C100      1.0  0.68569  0.54891  0.35944  1.0000
  C   C101      1.0  0.75713  0.54676  0.33931  1.0000
  C   C102      1.0  0.73358  0.52988  0.41749  1.0000
  C   C103      1.0  0.69789  0.53124  0.42582  1.0000
  H   H79       1.0  0.67962  0.51778  0.47958  1.0000
  C   C104      1.0  0.85404  0.55315  0.36681  1.0000
  N   N28       1.0  0.82143  0.55713  0.37639  1.0000
  H   H80       1.0  0.87507  0.56377  0.41626  1.0000
  C   C105      1.0  0.74383  0.50887  0.48667  1.0000
  H   H81       1.0  0.74684  0.48503  0.45567  1.0000
  H   H82       1.0  0.72125  0.49560  0.53902  1.0000
  H   H83       1.0  0.77187  0.52978  0.51881  1.0000
  C   C106      1.0  0.64817  0.54507  0.36050  1.0000
  H   H84       1.0  0.64441  0.56744  0.34086  1.0000
  C   C107      1.0  0.45681  0.13811  0.36027  1.0000
  C   C108      1.0  0.45907  0.21176  0.34016  1.0000
  C   C109      1.0  0.47550  0.20488  0.41885  1.0000
  C   C110      1.0  0.47410  0.16781  0.42712  1.0000
  H   H85       1.0  0.48720  0.16282  0.48134  1.0000
  C   C111      1.0  0.45206  0.30195  0.36773  1.0000
  N   N29       1.0  0.44830  0.26545  0.37724  1.0000
  H   H86       1.0  0.44107  0.31214  0.41685  1.0000
  C   C112      1.0  0.49611  0.23595  0.48861  1.0000
  H   H87       1.0  0.52011  0.26289  0.45826  1.0000
  H   H88       1.0  0.50912  0.22650  0.54129  1.0000
  H   H89       1.0  0.47502  0.24296  0.52021  1.0000
  C   C113      1.0  0.46054  0.10436  0.36165  1.0000
  H   H90       1.0  0.43855  0.07847  0.33976  1.0000
  C   C114      1.0  0.86705  0.31981  0.35885  1.0000
  C   C115      1.0  0.79344  0.24826  0.33974  1.0000
  C   C116      1.0  0.80044  0.27172  0.41822  1.0000
  C   C117      1.0  0.83747  0.30749  0.42597  1.0000
  H   H91       1.0  0.84254  0.32567  0.48004  1.0000
  C   C118      1.0  0.70425  0.15041  0.36886  1.0000
  N   N30       1.0  0.74044  0.18362  0.37796  1.0000
  H   H92       1.0  0.69444  0.12934  0.41820  1.0000
  C   C119      1.0  0.76954  0.26126  0.48838  1.0000
  H   H93       1.0  0.74245  0.25808  0.45836  1.0000
  H   H94       1.0  0.77902  0.28380  0.54086  1.0000
  H   H95       1.0  0.76276  0.23325  0.52018  1.0000
  C   C120      1.0  0.90081  0.35729  0.35974  1.0000
  H   H96       1.0  0.92683  0.36098  0.33950  1.0000
