data_image0
_chemical_formula_structural       C3NC3NC5NC5NC20H18C4H4C3NC3NC5NC5NC20H18C4H4C3NC3NC5NC5NC20H18C4H4C3H2CH2NC3H2CH2NC3H2CH2NC3H2CH2NC3H2CH2NC3H2CH2NC8H8C8H8C8H8C3NC2NH2NC3NC2NH2NC3NC2NH2NC3NC2NH2NC3NC2NH2NC3NC2NH2N
_chemical_formula_sum              "C198 N36 H126"
_cell_length_a       50.6484
_cell_length_b       50.6484
_cell_length_c       14.78
_cell_angle_alpha    90.016
_cell_angle_beta     89.984
_cell_angle_gamma    120

_space_group_name_H-M_alt    "P 1"
_space_group_IT_number       1

loop_
  _space_group_symop_operation_xyz
  'x, y, z'

loop_
  _atom_site_type_symbol
  _atom_site_label
  _atom_site_symmetry_multiplicity
  _atom_site_fract_x
  _atom_site_fract_y
  _atom_site_fract_z
  _atom_site_occupancy
  C   C1        1.0  0.02278  0.63872  0.33618  1.0000
  C   C2        1.0  0.05431  0.65474  0.33710  1.0000
  C   C3        1.0  0.06466  0.63382  0.33917  1.0000
  N   N1        1.0  0.03899  0.60599  0.34081  1.0000
  C   C4        1.0  0.01302  0.60759  0.33804  1.0000
  C   C5        1.0  0.98199  0.58373  0.33627  1.0000
  C   C6        1.0  0.97237  0.55209  0.33746  1.0000
  N   N2        1.0  0.98973  0.53870  0.34135  1.0000
  C   C7        1.0  0.97272  0.50790  0.33861  1.0000
  C   C8        1.0  0.94243  0.50114  0.33301  1.0000
  C   C9        1.0  0.94221  0.52826  0.33255  1.0000
  C   C10       1.0  0.98280  0.48622  0.33859  1.0000
  C   C11       1.0  0.01403  0.49400  0.33925  1.0000
  N   N3        1.0  0.03970  0.52184  0.34092  1.0000
  C   C12       1.0  0.06566  0.52024  0.33809  1.0000
  C   C13       1.0  0.05590  0.48910  0.33634  1.0000
  C   C14       1.0  0.02437  0.47308  0.33727  1.0000
  C   C15       1.0  0.09669  0.54409  0.33616  1.0000
  C   C16       1.0  0.10631  0.57573  0.33752  1.0000
  N   N4        1.0  0.08895  0.58913  0.34143  1.0000
  C   C17       1.0  0.10596  0.61993  0.33878  1.0000
  C   C18       1.0  0.13625  0.62668  0.33317  1.0000
  C   C19       1.0  0.13647  0.59956  0.33258  1.0000
  C   C20       1.0  0.09589  0.64161  0.33857  1.0000
  C   C21       1.0  0.11889  0.67309  0.33066  1.0000
  C   C22       1.0  0.17049  0.73311  0.30714  1.0000
  C   C23       1.0  0.15112  0.71686  0.23368  1.0000
  C   C24       1.0  0.12592  0.68734  0.24499  1.0000
  C   C25       1.0  0.12000  0.53617  0.32606  1.0000
  C   C26       1.0  0.17191  0.52838  0.30157  1.0000
  C   C27       1.0  0.15475  0.52909  0.22677  1.0000
  C   C28       1.0  0.12933  0.53301  0.23863  1.0000
  C   C29       1.0  0.95980  0.45474  0.33057  1.0000
  C   C30       1.0  0.95286  0.44049  0.24487  1.0000
  C   C31       1.0  0.92770  0.41095  0.23350  1.0000
  C   C32       1.0  0.90836  0.39463  0.30695  1.0000
  C   C33       1.0  0.95866  0.59164  0.32627  1.0000
  C   C34       1.0  0.94943  0.59497  0.23890  1.0000
  C   C35       1.0  0.90665  0.59926  0.30191  1.0000
  C   C36       1.0  0.92397  0.59883  0.22711  1.0000
  H   H1        1.0  0.91773  0.60052  0.16242  1.0000
  H   H2        1.0  0.96064  0.59367  0.18292  1.0000
  H   H3        1.0  0.00942  0.64855  0.33395  1.0000
  H   H4        1.0  0.06731  0.67798  0.33557  1.0000
  H   H5        1.0  0.03916  0.58711  0.34201  1.0000
  H   H6        1.0  0.03952  0.54071  0.34168  1.0000
  H   H7        1.0  0.92296  0.52988  0.32725  1.0000
  H   H8        1.0  0.92334  0.48013  0.32798  1.0000
  H   H9        1.0  0.96547  0.45196  0.18933  1.0000
  H   H10       1.0  0.92314  0.40182  0.16972  1.0000
  H   H11       1.0  0.01138  0.44984  0.33571  1.0000
  H   H12       1.0  0.06927  0.47927  0.33397  1.0000
  H   H13       1.0  0.15534  0.64768  0.32784  1.0000
  H   H14       1.0  0.15572  0.59793  0.32707  1.0000
  H   H15       1.0  0.11822  0.53447  0.18266  1.0000
  H   H16       1.0  0.16103  0.52747  0.16204  1.0000
  H   H17       1.0  0.11329  0.67591  0.18943  1.0000
  H   H18       1.0  0.15575  0.72598  0.16990  1.0000
  C   C37       1.0  0.19766  0.52553  0.28635  1.0000
  C   C38       1.0  0.88264  0.36602  0.29154  1.0000
  C   C39       1.0  0.88082  0.60196  0.28674  1.0000
  C   C40       1.0  0.19630  0.76166  0.29177  1.0000
  H   H19       1.0  0.20127  0.52064  0.22397  1.0000
  H   H20       1.0  0.87982  0.35688  0.23019  1.0000
  H   H21       1.0  0.87724  0.60693  0.22445  1.0000
  H   H22       1.0  0.19912  0.77085  0.23050  1.0000
  C   C41       1.0  0.46399  0.47150  0.33646  1.0000
  C   C42       1.0  0.44798  0.48701  0.33740  1.0000
  C   C43       1.0  0.46890  0.51827  0.33919  1.0000
  N   N5        1.0  0.49674  0.52044  0.34085  1.0000
  C   C44       1.0  0.49513  0.49286  0.33814  1.0000
  C   C45       1.0  0.51899  0.48569  0.33618  1.0000
  C   C46       1.0  0.55062  0.50772  0.33729  1.0000
  N   N6        1.0  0.56402  0.53847  0.34116  1.0000
  C   C47       1.0  0.59482  0.55225  0.33832  1.0000
  C   C48       1.0  0.60157  0.52871  0.33265  1.0000
  C   C49       1.0  0.57445  0.50138  0.33216  1.0000
  C   C50       1.0  0.61651  0.58401  0.33827  1.0000
  C   C51       1.0  0.60873  0.60746  0.33909  1.0000
  N   N7        1.0  0.58089  0.60529  0.34078  1.0000
  C   C52       1.0  0.58250  0.63286  0.33805  1.0000
  C   C53       1.0  0.61363  0.65423  0.33628  1.0000
  C   C54       1.0  0.62965  0.63872  0.33724  1.0000
  C   C55       1.0  0.55865  0.64004  0.33620  1.0000
  C   C56       1.0  0.52701  0.61802  0.33725  1.0000
  N   N8        1.0  0.51361  0.58726  0.34112  1.0000
  C   C57       1.0  0.48281  0.57348  0.33835  1.0000
  C   C58       1.0  0.47607  0.59703  0.33270  1.0000
  C   C59       1.0  0.50318  0.62435  0.33223  1.0000
  C   C60       1.0  0.46112  0.54172  0.33832  1.0000
  C   C61       1.0  0.42965  0.53326  0.33042  1.0000
  C   C62       1.0  0.36961  0.52480  0.30703  1.0000
  C   C63       1.0  0.38586  0.52167  0.23354  1.0000
  C   C64       1.0  0.41536  0.52595  0.24480  1.0000
  C   C65       1.0  0.56657  0.67127  0.32604  1.0000
  C   C66       1.0  0.57439  0.73098  0.30148  1.0000
  C   C67       1.0  0.57366  0.71308  0.22669  1.0000
  C   C68       1.0  0.56970  0.68372  0.23859  1.0000
  C   C69       1.0  0.64798  0.59248  0.33030  1.0000
  C   C70       1.0  0.66228  0.59982  0.24467  1.0000
  C   C71       1.0  0.69182  0.60422  0.23338  1.0000
  C   C72       1.0  0.70811  0.60118  0.30685  1.0000
  C   C73       1.0  0.51106  0.45445  0.32618  1.0000
  C   C74       1.0  0.50773  0.44187  0.23881  1.0000
  C   C75       1.0  0.50347  0.39482  0.30180  1.0000
  C   C76       1.0  0.50389  0.41256  0.22701  1.0000
  H   H23       1.0  0.50219  0.40461  0.16230  1.0000
  H   H24       1.0  0.50902  0.45437  0.18283  1.0000
  H   H25       1.0  0.45415  0.44830  0.33408  1.0000
  H   H26       1.0  0.42474  0.47677  0.33562  1.0000
  H   H27       1.0  0.51561  0.53949  0.34145  1.0000
  H   H28       1.0  0.56202  0.58624  0.34169  1.0000
  H   H29       1.0  0.57282  0.48050  0.32695  1.0000
  H   H30       1.0  0.62258  0.53063  0.32756  1.0000
  H   H31       1.0  0.65084  0.60102  0.18913  1.0000
  H   H32       1.0  0.70100  0.60884  0.16966  1.0000
  H   H33       1.0  0.65289  0.64896  0.33547  1.0000
  H   H34       1.0  0.62347  0.67743  0.33395  1.0000
  H   H35       1.0  0.45505  0.59511  0.32778  1.0000
  H   H36       1.0  0.50482  0.64524  0.32721  1.0000
  H   H37       1.0  0.56823  0.67113  0.18263  1.0000
  H   H38       1.0  0.57523  0.72094  0.16196  1.0000
  H   H39       1.0  0.42679  0.52476  0.18922  1.0000
  H   H40       1.0  0.37670  0.51713  0.16979  1.0000
  C   C77       1.0  0.57725  0.75957  0.28625  1.0000
  C   C78       1.0  0.73672  0.60406  0.29152  1.0000
  C   C79       1.0  0.50077  0.36629  0.28661  1.0000
  C   C80       1.0  0.34108  0.52209  0.29169  1.0000
  H   H41       1.0  0.58216  0.76807  0.22388  1.0000
  H   H42       1.0  0.74589  0.61041  0.23021  1.0000
  H   H43       1.0  0.49579  0.35771  0.22432  1.0000
  H   H44       1.0  0.33188  0.51572  0.23043  1.0000
  C   C81       1.0  0.63124  0.07993  0.33611  1.0000
  C   C82       1.0  0.61573  0.04840  0.33706  1.0000
  C   C83       1.0  0.58447  0.03806  0.33899  1.0000
  N   N9        1.0  0.58230  0.06373  0.34070  1.0000
  C   C84       1.0  0.60987  0.08970  0.33800  1.0000
  C   C85       1.0  0.61704  0.12073  0.33627  1.0000
  C   C86       1.0  0.59501  0.13034  0.33744  1.0000
  N   N10       1.0  0.56426  0.11298  0.34127  1.0000
  C   C87       1.0  0.55047  0.12999  0.33859  1.0000
  C   C88       1.0  0.57401  0.16028  0.33296  1.0000
  C   C89       1.0  0.60134  0.16050  0.33243  1.0000
  C   C90       1.0  0.51871  0.11992  0.33846  1.0000
  C   C91       1.0  0.49527  0.08869  0.33903  1.0000
  N   N11       1.0  0.49744  0.06302  0.34070  1.0000
  C   C92       1.0  0.46987  0.03705  0.33784  1.0000
  C   C93       1.0  0.44850  0.04682  0.33589  1.0000
  C   C94       1.0  0.46401  0.07834  0.33687  1.0000
  C   C95       1.0  0.46270  0.00602  0.33603  1.0000
  C   C96       1.0  0.48472  0.99641  0.33713  1.0000
  N   N12       1.0  0.51548  0.01377  0.34094  1.0000
  C   C97       1.0  0.52926  0.99676  0.33825  1.0000
  C   C98       1.0  0.50572  0.96647  0.33271  1.0000
  C   C99       1.0  0.47839  0.96625  0.33227  1.0000
  C   C100      1.0  0.56102  0.00683  0.33825  1.0000
  C   C101      1.0  0.56949  0.98383  0.33031  1.0000
  C   C102      1.0  0.57796  0.93225  0.30689  1.0000
  C   C103      1.0  0.58104  0.95158  0.23339  1.0000
  C   C104      1.0  0.57674  0.97680  0.24466  1.0000
  C   C105      1.0  0.43147  0.98271  0.32587  1.0000
  C   C106      1.0  0.37175  0.93083  0.30144  1.0000
  C   C107      1.0  0.38965  0.94796  0.22661  1.0000
  C   C108      1.0  0.41899  0.97337  0.23844  1.0000
  C   C109      1.0  0.51024  0.14292  0.33039  1.0000
  C   C110      1.0  0.50298  0.14989  0.24468  1.0000
  C   C111      1.0  0.49857  0.17502  0.23333  1.0000
  C   C112      1.0  0.50158  0.19437  0.30677  1.0000
  C   C113      1.0  0.64827  0.14405  0.32622  1.0000
  C   C114      1.0  0.66084  0.15329  0.23884  1.0000
  C   C115      1.0  0.70792  0.19606  0.30185  1.0000
  C   C116      1.0  0.69015  0.17876  0.22705  1.0000
  H   H45       1.0  0.69811  0.18498  0.16235  1.0000
  H   H46       1.0  0.64833  0.14209  0.18286  1.0000
  H   H47       1.0  0.65444  0.09330  0.33384  1.0000
  H   H48       1.0  0.62597  0.03541  0.33530  1.0000
  H   H49       1.0  0.56325  0.06355  0.34173  1.0000
  H   H50       1.0  0.51649  0.06320  0.34201  1.0000
  H   H51       1.0  0.62223  0.17976  0.32727  1.0000
  H   H52       1.0  0.57209  0.17937  0.32794  1.0000
  H   H53       1.0  0.50181  0.13725  0.18915  1.0000
  H   H54       1.0  0.49402  0.17960  0.16954  1.0000
  H   H55       1.0  0.45376  0.09134  0.33517  1.0000
  H   H56       1.0  0.42530  0.03345  0.33347  1.0000
  H   H57       1.0  0.50764  0.94737  0.32802  1.0000
  H   H58       1.0  0.45750  0.94699  0.32737  1.0000
  H   H59       1.0  0.43160  0.98444  0.18246  1.0000
  H   H60       1.0  0.38178  0.94164  0.16188  1.0000
  H   H61       1.0  0.57792  0.98941  0.18907  1.0000
  H   H62       1.0  0.58558  0.94697  0.16963  1.0000
  C   C117      1.0  0.34316  0.90509  0.28626  1.0000
  C   C118      1.0  0.49871  0.22010  0.29138  1.0000
  C   C119      1.0  0.73645  0.22188  0.28668  1.0000
  C   C120      1.0  0.58071  0.90645  0.29158  1.0000
  H   H63       1.0  0.33465  0.90149  0.22390  1.0000
  H   H64       1.0  0.49241  0.22293  0.23001  1.0000
  H   H65       1.0  0.74503  0.22546  0.22440  1.0000
  H   H66       1.0  0.58713  0.90364  0.23037  1.0000
  C   C121      1.0  0.29944  0.52722  0.34775  1.0000
  C   C122      1.0  0.28918  0.53502  0.26856  1.0000
  C   C123      1.0  0.26153  0.53535  0.26744  1.0000
  H   H67       1.0  0.25542  0.54177  0.20915  1.0000
  H   H68       1.0  0.30221  0.54132  0.21123  1.0000
  C   C124      1.0  0.28517  0.49967  0.00041  1.0000
  H   H69       1.0  0.26855  0.47684  0.02376  1.0000
  H   H70       1.0  0.28857  0.51612  0.05321  1.0000
  N   N13       1.0  0.32615  0.52778  0.35187  1.0000
  C   C125      1.0  0.57558  0.85969  0.34760  1.0000
  C   C126      1.0  0.56776  0.84160  0.26843  1.0000
  C   C127      1.0  0.56743  0.81363  0.26732  1.0000
  H   H71       1.0  0.56101  0.80108  0.20902  1.0000
  H   H72       1.0  0.56146  0.84833  0.21111  1.0000
  C   C128      1.0  0.60306  0.87294  0.00032  1.0000
  H   H73       1.0  0.62588  0.87914  0.02371  1.0000
  H   H74       1.0  0.58659  0.85989  0.05308  1.0000
  N   N14       1.0  0.57499  0.88583  0.35174  1.0000
  C   C129      1.0  0.24306  0.80332  0.34773  1.0000
  C   C130      1.0  0.26114  0.81356  0.26854  1.0000
  C   C131      1.0  0.28910  0.84121  0.26739  1.0000
  H   H75       1.0  0.30165  0.84732  0.20909  1.0000
  H   H76       1.0  0.25441  0.80052  0.21123  1.0000
  C   C132      1.0  0.22984  0.81757  0.00045  1.0000
  H   H77       1.0  0.22364  0.83419  0.02384  1.0000
  H   H78       1.0  0.24290  0.81417  0.05321  1.0000
  N   N15       1.0  0.21691  0.77659  0.35191  1.0000
  C   C133      1.0  0.77858  0.59936  0.34775  1.0000
  C   C134      1.0  0.78897  0.59165  0.26862  1.0000
  C   C135      1.0  0.81673  0.59154  0.26761  1.0000
  H   H79       1.0  0.82295  0.58519  0.20936  1.0000
  H   H80       1.0  0.77597  0.58527  0.21125  1.0000
  C   C136      1.0  0.79261  0.62696  0.00038  1.0000
  H   H81       1.0  0.80911  0.64983  0.02371  1.0000
  H   H82       1.0  0.78930  0.61056  0.05322  1.0000
  N   N16       1.0  0.75177  0.59859  0.35179  1.0000
  C   C137      1.0  0.50338  0.26666  0.34761  1.0000
  C   C138      1.0  0.51111  0.28476  0.26850  1.0000
  C   C139      1.0  0.51120  0.31261  0.26748  1.0000
  H   H83       1.0  0.51756  0.32518  0.20924  1.0000
  H   H84       1.0  0.51748  0.27812  0.21113  1.0000
  C   C140      1.0  0.47577  0.25308  0.00024  1.0000
  H   H85       1.0  0.45289  0.24670  0.02356  1.0000
  H   H86       1.0  0.49217  0.26618  0.05308  1.0000
  N   N17       1.0  0.50414  0.24060  0.35166  1.0000
  C   C141      1.0  0.83607  0.32413  0.34774  1.0000
  C   C142      1.0  0.81798  0.31374  0.26861  1.0000
  C   C143      1.0  0.79013  0.28598  0.26758  1.0000
  H   H87       1.0  0.77756  0.27977  0.20934  1.0000
  H   H88       1.0  0.82461  0.32676  0.21127  1.0000
  C   C144      1.0  0.84963  0.31009  0.00038  1.0000
  H   H89       1.0  0.85600  0.29360  0.02372  1.0000
  H   H90       1.0  0.83652  0.31339  0.05321  1.0000
  N   N18       1.0  0.86212  0.35095  0.35181  1.0000
  C   C145      1.0  0.13767  0.68934  0.40481  1.0000
  C   C146      1.0  0.16300  0.71884  0.39323  1.0000
  C   C147      1.0  0.13671  0.53517  0.40127  1.0000
  C   C148      1.0  0.16218  0.53123  0.38919  1.0000
  C   C149      1.0  0.91578  0.40890  0.39306  1.0000
  C   C150      1.0  0.94104  0.43845  0.40468  1.0000
  C   C151      1.0  0.94183  0.59243  0.40150  1.0000
  C   C152      1.0  0.91632  0.59629  0.38949  1.0000
  H   H91       1.0  0.90447  0.59625  0.44561  1.0000
  H   H92       1.0  0.94753  0.58930  0.46545  1.0000
  H   H93       1.0  0.94505  0.44845  0.46716  1.0000
  H   H94       1.0  0.90240  0.39820  0.44809  1.0000
  H   H95       1.0  0.13094  0.53816  0.46528  1.0000
  H   H96       1.0  0.17391  0.53105  0.44532  1.0000
  H   H97       1.0  0.17641  0.72949  0.44826  1.0000
  H   H98       1.0  0.13364  0.67931  0.46725  1.0000
  C   C153      1.0  0.41341  0.53579  0.40461  1.0000
  C   C154      1.0  0.38390  0.53162  0.39309  1.0000
  C   C155      1.0  0.56761  0.68901  0.40122  1.0000
  C   C156      1.0  0.57156  0.71842  0.38912  1.0000
  C   C157      1.0  0.69381  0.59431  0.39292  1.0000
  C   C158      1.0  0.66425  0.59001  0.40447  1.0000
  C   C159      1.0  0.51032  0.43685  0.40138  1.0000
  C   C160      1.0  0.50647  0.40748  0.38936  1.0000
  H   H99       1.0  0.50651  0.39568  0.44549  1.0000
  H   H100      1.0  0.51344  0.44568  0.46534  1.0000
  H   H101      1.0  0.65421  0.58397  0.46689  1.0000
  H   H102      1.0  0.70447  0.59159  0.44796  1.0000
  H   H103      1.0  0.56465  0.68028  0.46526  1.0000
  H   H104      1.0  0.57177  0.73035  0.44525  1.0000
  H   H105      1.0  0.37327  0.53440  0.44813  1.0000
  H   H106      1.0  0.42346  0.54183  0.46702  1.0000
  C   C161      1.0  0.56701  0.96509  0.40453  1.0000
  C   C162      1.0  0.57118  0.93976  0.39299  1.0000
  C   C163      1.0  0.41373  0.96605  0.40111  1.0000
  C   C164      1.0  0.38431  0.94061  0.38906  1.0000
  C   C165      1.0  0.50840  0.18693  0.39290  1.0000
  C   C166      1.0  0.51269  0.16168  0.40451  1.0000
  C   C167      1.0  0.66589  0.16087  0.40145  1.0000
  C   C168      1.0  0.69526  0.18639  0.38942  1.0000
  H   H107      1.0  0.70708  0.19823  0.44555  1.0000
  H   H108      1.0  0.65706  0.15518  0.46541  1.0000
  H   H109      1.0  0.51867  0.15767  0.46699  1.0000
  H   H110      1.0  0.51109  0.20032  0.44792  1.0000
  H   H111      1.0  0.42247  0.97185  0.46513  1.0000
  H   H112      1.0  0.37239  0.92890  0.44521  1.0000
  H   H113      1.0  0.56845  0.92639  0.44807  1.0000
  H   H114      1.0  0.56101  0.96913  0.46696  1.0000
  C   C169      1.0  0.24302  0.52801  0.34566  1.0000
  C   C170      1.0  0.25353  0.52098  0.42581  1.0000
  C   C171      1.0  0.28146  0.52058  0.42681  1.0000
  N   N19       1.0  0.29027  0.51360  0.50602  1.0000
  C   C172      1.0  0.27398  0.50700  0.58409  1.0000
  C   C173      1.0  0.24640  0.50749  0.58258  1.0000
  N   N20       1.0  0.23730  0.51439  0.50417  1.0000
  H   H115      1.0  0.23320  0.50275  0.63922  1.0000
  H   H116      1.0  0.30679  0.50044  0.65504  1.0000
  N   N21       1.0  0.21713  0.52913  0.34819  1.0000
  C   C174      1.0  0.57479  0.80248  0.34552  1.0000
  C   C175      1.0  0.58180  0.82002  0.42569  1.0000
  C   C176      1.0  0.58219  0.84835  0.42668  1.0000
  N   N22       1.0  0.58916  0.86414  0.50590  1.0000
  C   C177      1.0  0.59574  0.85445  0.58398  1.0000
  C   C178      1.0  0.59525  0.82639  0.58249  1.0000
  N   N23       1.0  0.58837  0.81039  0.50406  1.0000
  H   H117      1.0  0.59998  0.81794  0.63913  1.0000
  H   H118      1.0  0.60229  0.89384  0.65494  1.0000
  N   N24       1.0  0.57364  0.77546  0.34808  1.0000
  C   C179      1.0  0.30026  0.85973  0.34558  1.0000
  C   C180      1.0  0.28273  0.84922  0.42577  1.0000
  C   C181      1.0  0.25440  0.82129  0.42679  1.0000
  N   N25       1.0  0.23862  0.81248  0.50603  1.0000
  C   C182      1.0  0.24831  0.82877  0.58409  1.0000
  C   C183      1.0  0.27637  0.85635  0.58256  1.0000
  N   N26       1.0  0.29237  0.86545  0.50412  1.0000
  H   H119      1.0  0.28483  0.86954  0.63920  1.0000
  H   H120      1.0  0.20894  0.79594  0.65510  1.0000
  N   N27       1.0  0.32728  0.88562  0.34811  1.0000
  C   C184      1.0  0.83522  0.59902  0.34588  1.0000
  C   C185      1.0  0.82459  0.60595  0.42598  1.0000
  C   C186      1.0  0.79655  0.60613  0.42686  1.0000
  N   N28       1.0  0.78763  0.61304  0.50602  1.0000
  C   C187      1.0  0.80390  0.61975  0.58412  1.0000
  C   C188      1.0  0.83159  0.61949  0.58273  1.0000
  N   N29       1.0  0.84080  0.61267  0.50437  1.0000
  H   H121      1.0  0.84477  0.62433  0.63940  1.0000
  H   H122      1.0  0.77088  0.62605  0.65492  1.0000
  N   N30       1.0  0.86122  0.59809  0.34849  1.0000
  C   C189      1.0  0.50369  0.32363  0.34572  1.0000
  C   C190      1.0  0.49677  0.30608  0.42583  1.0000
  C   C191      1.0  0.49660  0.27786  0.42672  1.0000
  N   N31       1.0  0.48969  0.26205  0.50587  1.0000
  C   C192      1.0  0.48297  0.27162  0.58398  1.0000
  C   C193      1.0  0.48324  0.29957  0.58258  1.0000
  N   N32       1.0  0.49005  0.31559  0.50422  1.0000
  H   H123      1.0  0.47839  0.30792  0.63926  1.0000
  H   H124      1.0  0.47668  0.23231  0.65478  1.0000
  N   N33       1.0  0.50464  0.35056  0.34836  1.0000
  C   C194      1.0  0.77911  0.26747  0.34581  1.0000
  C   C195      1.0  0.79665  0.27810  0.42593  1.0000
  C   C196      1.0  0.82487  0.30616  0.42684  1.0000
  N   N34       1.0  0.84067  0.31508  0.50601  1.0000
  C   C197      1.0  0.83110  0.29880  0.58411  1.0000
  C   C198      1.0  0.80315  0.27111  0.58269  1.0000
  N   N35       1.0  0.78714  0.26189  0.50432  1.0000
  H   H125      1.0  0.79479  0.25792  0.63936  1.0000
  H   H126      1.0  0.87040  0.33183  0.65494  1.0000
  N   N36       1.0  0.75218  0.24149  0.34843  1.0000
