data_image0
_chemical_formula_structural       C3NC3NC5NC5NC36H26N4H4C3NC3NC5NC5NC36H26N4H4C3NC3NC5NC5NC36H26N4H4C5H4CH2C5H4CH2C5H4CH2C5H4CH2C5H4CH2C5H4CH2C16H16C16H16C16H16C4HC3H2NO2CH2C4HC3H2NO2CH2C4HC3H2NO2CH2C4HC3H2NO2CH2C4HC3H2NO2CH2C4HC3H2NO2CH2
_chemical_formula_sum              "C288 N30 H204 O12"
_cell_length_a       74.9736
_cell_length_b       74.9736
_cell_length_c       15.015
_cell_angle_alpha    89.6054
_cell_angle_beta     90.3946
_cell_angle_gamma    120

_space_group_name_H-M_alt    "P 1"
_space_group_IT_number       1

loop_
  _space_group_symop_operation_xyz
  'x, y, z'

loop_
  _atom_site_type_symbol
  _atom_site_label
  _atom_site_symmetry_multiplicity
  _atom_site_fract_x
  _atom_site_fract_y
  _atom_site_fract_z
  _atom_site_occupancy
  C   C1        1.0  0.03815  0.50283  0.32544  1.0000
  C   C2        1.0  0.01691  0.49189  0.32514  1.0000
  C   C3        1.0  0.00984  0.50576  0.31080  1.0000
  N   N1        1.0  0.02698  0.52456  0.30379  1.0000
  C   C4        1.0  0.04451  0.52360  0.31131  1.0000
  C   C5        1.0  0.06534  0.53969  0.30496  1.0000
  C   C6        1.0  0.07179  0.56096  0.29890  1.0000
  N   N2        1.0  0.05994  0.56978  0.30468  1.0000
  C   C7        1.0  0.07129  0.59051  0.29850  1.0000
  C   C8        1.0  0.09170  0.59529  0.28805  1.0000
  C   C9        1.0  0.09202  0.57705  0.28857  1.0000
  C   C10       1.0  0.06419  0.60481  0.30397  1.0000
  C   C11       1.0  0.04315  0.59930  0.31093  1.0000
  N   N3        1.0  0.02600  0.58052  0.30373  1.0000
  C   C12       1.0  0.00848  0.58146  0.31125  1.0000
  C   C13       1.0  0.01486  0.60220  0.32566  1.0000
  C   C14       1.0  0.03611  0.61313  0.32554  1.0000
  C   C15       1.0  0.98765  0.56539  0.30456  1.0000
  C   C16       1.0  0.98119  0.54414  0.29836  1.0000
  N   N4        1.0  0.99304  0.53531  0.30432  1.0000
  C   C17       1.0  0.98169  0.51459  0.29810  1.0000
  C   C18       1.0  0.96125  0.50984  0.28759  1.0000
  C   C19       1.0  0.96094  0.52808  0.28801  1.0000
  C   C20       1.0  0.98879  0.50028  0.30381  1.0000
  C   C21       1.0  0.97373  0.47894  0.30297  1.0000
  C   C22       1.0  0.94393  0.43622  0.30086  1.0000
  C   C23       1.0  0.95591  0.44604  0.22456  1.0000
  C   C24       1.0  0.97056  0.46717  0.22537  1.0000
  C   C25       1.0  0.92892  0.41491  0.29918  1.0000
  C   C26       1.0  0.93408  0.40018  0.26964  1.0000
  C   C27       1.0  0.91906  0.37919  0.26498  1.0000
  C   C28       1.0  0.89846  0.37240  0.28927  1.0000
  C   C29       1.0  0.97203  0.57084  0.30837  1.0000
  C   C30       1.0  0.94037  0.58128  0.31691  1.0000
  C   C31       1.0  0.95058  0.58278  0.23576  1.0000
  C   C32       1.0  0.96624  0.57767  0.23143  1.0000
  C   C33       1.0  0.92406  0.58587  0.32138  1.0000
  C   C34       1.0  0.88985  0.59234  0.33751  1.0000
  C   C35       1.0  0.89160  0.58196  0.26291  1.0000
  C   C36       1.0  0.90846  0.57872  0.25516  1.0000
  C   C37       1.0  0.07922  0.62616  0.30289  1.0000
  C   C38       1.0  0.08208  0.63805  0.22536  1.0000
  C   C39       1.0  0.09652  0.65923  0.22460  1.0000
  C   C40       1.0  0.10860  0.66900  0.30088  1.0000
  C   C41       1.0  0.12330  0.69040  0.29942  1.0000
  C   C42       1.0  0.15311  0.73313  0.28973  1.0000
  C   C43       1.0  0.13237  0.72602  0.26593  1.0000
  C   C44       1.0  0.11767  0.70492  0.27046  1.0000
  C   C45       1.0  0.08098  0.53426  0.30895  1.0000
  C   C46       1.0  0.08682  0.52778  0.23193  1.0000
  C   C47       1.0  0.11304  0.52434  0.31745  1.0000
  C   C48       1.0  0.10266  0.52292  0.23625  1.0000
  C   C49       1.0  0.12964  0.52016  0.32178  1.0000
  C   C50       1.0  0.14516  0.52779  0.25571  1.0000
  C   C51       1.0  0.16230  0.52496  0.26333  1.0000
  C   C52       1.0  0.16444  0.51455  0.33775  1.0000
  H   H1        1.0  0.17367  0.53129  0.21646  1.0000
  H   H2        1.0  0.14463  0.53629  0.20320  1.0000
  H   H3        1.0  0.10646  0.51817  0.17933  1.0000
  H   H4        1.0  0.07968  0.52670  0.17221  1.0000
  H   H5        1.0  0.04727  0.49638  0.33383  1.0000
  H   H6        1.0  0.00824  0.47630  0.33360  1.0000
  H   H7        1.0  0.02676  0.53688  0.28769  1.0000
  H   H8        1.0  0.02620  0.56825  0.28730  1.0000
  H   H9        1.0  0.10500  0.57594  0.28233  1.0000
  H   H10       1.0  0.10442  0.60957  0.28148  1.0000
  H   H11       1.0  0.07360  0.63138  0.16909  1.0000
  H   H12       1.0  0.09836  0.66741  0.16718  1.0000
  H   H13       1.0  0.04478  0.62870  0.33426  1.0000
  H   H14       1.0  0.00576  0.60862  0.33424  1.0000
  H   H15       1.0  0.94852  0.49556  0.28109  1.0000
  H   H16       1.0  0.94795  0.52920  0.28177  1.0000
  H   H17       1.0  0.97331  0.57888  0.17181  1.0000
  H   H18       1.0  0.94685  0.58783  0.17895  1.0000
  H   H19       1.0  0.90871  0.57025  0.20250  1.0000
  H   H20       1.0  0.88016  0.57598  0.21590  1.0000
  H   H21       1.0  0.97891  0.47390  0.16899  1.0000
  H   H22       1.0  0.95380  0.43796  0.16701  1.0000
  H   H23       1.0  0.92316  0.36889  0.24255  1.0000
  H   H24       1.0  0.94885  0.40462  0.25124  1.0000
  H   H25       1.0  0.10278  0.70026  0.25238  1.0000
  H   H26       1.0  0.12795  0.73617  0.24386  1.0000
  N   N5        1.0  0.88257  0.35167  0.27884  1.0000
  N   N6        1.0  0.16869  0.75399  0.27930  1.0000
  N   N7        1.0  0.18224  0.51300  0.35240  1.0000
  N   N8        1.0  0.87233  0.59431  0.35224  1.0000
  H   H27       1.0  0.85940  0.58009  0.34429  1.0000
  H   H28       1.0  0.16434  0.76130  0.23312  1.0000
  H   H29       1.0  0.19497  0.52737  0.34470  1.0000
  H   H30       1.0  0.88660  0.34430  0.23246  1.0000
  C   C53       1.0  0.57802  0.61733  0.33113  1.0000
  C   C54       1.0  0.58894  0.60701  0.33103  1.0000
  C   C55       1.0  0.57507  0.58612  0.31680  1.0000
  N   N9        1.0  0.55628  0.58449  0.30965  1.0000
  C   C56       1.0  0.55725  0.60296  0.31707  1.0000
  C   C57       1.0  0.54117  0.60773  0.31058  1.0000
  C   C58       1.0  0.51990  0.59294  0.30457  1.0000
  N   N10       1.0  0.51106  0.57225  0.31041  1.0000
  C   C59       1.0  0.49033  0.56289  0.30451  1.0000
  C   C60       1.0  0.48556  0.57857  0.29420  1.0000
  C   C61       1.0  0.50381  0.59712  0.29454  1.0000
  C   C62       1.0  0.47602  0.54148  0.31003  1.0000
  C   C63       1.0  0.48150  0.52590  0.31657  1.0000
  N   N11       1.0  0.50027  0.52754  0.30926  1.0000
  C   C64       1.0  0.49932  0.50906  0.31670  1.0000
  C   C65       1.0  0.47857  0.49466  0.33077  1.0000
  C   C66       1.0  0.46765  0.50499  0.33081  1.0000
  C   C67       1.0  0.51539  0.50430  0.31029  1.0000
  C   C68       1.0  0.53665  0.51911  0.30444  1.0000
  N   N12       1.0  0.54549  0.53978  0.31033  1.0000
  C   C69       1.0  0.56621  0.54915  0.30441  1.0000
  C   C70       1.0  0.57096  0.53349  0.29404  1.0000
  C   C71       1.0  0.55272  0.51494  0.29431  1.0000
  C   C72       1.0  0.58054  0.57055  0.31007  1.0000
  C   C73       1.0  0.60187  0.57681  0.30953  1.0000
  C   C74       1.0  0.64456  0.58960  0.30788  1.0000
  C   C75       1.0  0.63480  0.59200  0.23142  1.0000
  C   C76       1.0  0.61369  0.58559  0.23201  1.0000
  C   C77       1.0  0.66585  0.59584  0.30639  1.0000
  C   C78       1.0  0.68063  0.61579  0.27682  1.0000
  C   C79       1.0  0.70160  0.62169  0.27207  1.0000
  C   C80       1.0  0.70831  0.60775  0.29629  1.0000
  C   C81       1.0  0.50994  0.48322  0.31412  1.0000
  C   C82       1.0  0.49953  0.44111  0.32264  1.0000
  C   C83       1.0  0.49804  0.45005  0.24147  1.0000
  C   C84       1.0  0.50314  0.47082  0.23715  1.0000
  C   C85       1.0  0.49495  0.42021  0.32710  1.0000
  C   C86       1.0  0.48847  0.37948  0.34317  1.0000
  C   C87       1.0  0.49889  0.39183  0.26865  1.0000
  C   C88       1.0  0.50214  0.41196  0.26096  1.0000
  C   C89       1.0  0.45468  0.53520  0.30921  1.0000
  C   C90       1.0  0.44274  0.52641  0.23176  1.0000
  C   C91       1.0  0.42156  0.51969  0.23125  1.0000
  C   C92       1.0  0.41185  0.52179  0.30772  1.0000
  C   C93       1.0  0.39045  0.51510  0.30650  1.0000
  C   C94       1.0  0.34773  0.50226  0.29684  1.0000
  C   C95       1.0  0.35482  0.48867  0.27312  1.0000
  C   C96       1.0  0.37591  0.49503  0.27762  1.0000
  C   C97       1.0  0.54661  0.62880  0.31460  1.0000
  C   C98       1.0  0.55306  0.64132  0.23758  1.0000
  C   C99       1.0  0.55650  0.67073  0.32314  1.0000
  C   C100      1.0  0.55791  0.66201  0.24192  1.0000
  C   C101      1.0  0.56066  0.69150  0.32750  1.0000
  C   C102      1.0  0.55301  0.69957  0.26147  1.0000
  C   C103      1.0  0.55582  0.71950  0.26915  1.0000
  C   C104      1.0  0.56624  0.73185  0.34354  1.0000
  H   H31       1.0  0.54950  0.72468  0.22224  1.0000
  H   H32       1.0  0.54452  0.69068  0.20896  1.0000
  H   H33       1.0  0.56264  0.67071  0.18498  1.0000
  H   H34       1.0  0.55411  0.63542  0.17782  1.0000
  H   H35       1.0  0.58448  0.63288  0.33944  1.0000
  H   H36       1.0  0.60454  0.61391  0.33955  1.0000
  H   H37       1.0  0.54395  0.57198  0.29362  1.0000
  H   H38       1.0  0.51259  0.54011  0.29378  1.0000
  H   H39       1.0  0.50492  0.61123  0.28843  1.0000
  H   H40       1.0  0.47127  0.57703  0.28793  1.0000
  H   H41       1.0  0.44938  0.52475  0.17537  1.0000
  H   H42       1.0  0.41335  0.51352  0.17390  1.0000
  H   H43       1.0  0.45209  0.49807  0.33956  1.0000
  H   H44       1.0  0.47214  0.47911  0.33932  1.0000
  H   H45       1.0  0.58524  0.53505  0.28767  1.0000
  H   H46       1.0  0.55159  0.50084  0.28808  1.0000
  H   H47       1.0  0.50194  0.47686  0.17751  1.0000
  H   H48       1.0  0.49301  0.44143  0.18465  1.0000
  H   H49       1.0  0.51058  0.42081  0.20824  1.0000
  H   H50       1.0  0.50485  0.38650  0.22159  1.0000
  H   H51       1.0  0.60700  0.58738  0.17552  1.0000
  H   H52       1.0  0.64291  0.59811  0.17393  1.0000
  H   H53       1.0  0.71193  0.63612  0.24951  1.0000
  H   H54       1.0  0.67625  0.62621  0.25838  1.0000
  H   H55       1.0  0.38056  0.48486  0.25949  1.0000
  H   H56       1.0  0.34466  0.47417  0.25094  1.0000
  N   N13       1.0  0.72901  0.61252  0.28547  1.0000
  N   N14       1.0  0.32687  0.49704  0.28604  1.0000
  N   N15       1.0  0.56781  0.75117  0.35813  1.0000
  N   N16       1.0  0.48651  0.35995  0.35790  1.0000
  H   H57       1.0  0.50072  0.36125  0.34993  1.0000
  H   H58       1.0  0.31953  0.48534  0.24061  1.0000
  H   H59       1.0  0.55344  0.74955  0.35046  1.0000
  H   H60       1.0  0.73639  0.62411  0.23930  1.0000
  C   C105      1.0  0.46345  0.04273  0.33627  1.0000
  C   C106      1.0  0.47381  0.06398  0.33640  1.0000
  C   C107      1.0  0.49472  0.07102  0.32305  1.0000
  N   N17       1.0  0.49632  0.05386  0.31609  1.0000
  C   C108      1.0  0.47783  0.03634  0.32305  1.0000
  C   C109      1.0  0.47305  0.01551  0.31683  1.0000
  C   C110      1.0  0.48783  0.00901  0.31123  1.0000
  N   N18       1.0  0.50852  0.02083  0.31706  1.0000
  C   C111      1.0  0.51785  0.00945  0.31127  1.0000
  C   C112      1.0  0.50216  0.98903  0.30120  1.0000
  C   C113      1.0  0.48362  0.98875  0.30145  1.0000
  C   C114      1.0  0.53926  0.01651  0.31674  1.0000
  C   C115      1.0  0.55486  0.03755  0.32331  1.0000
  N   N19       1.0  0.55325  0.05472  0.31635  1.0000
  C   C116      1.0  0.57175  0.07222  0.32327  1.0000
  C   C117      1.0  0.58615  0.06581  0.33695  1.0000
  C   C118      1.0  0.57580  0.04456  0.33705  1.0000
  C   C119      1.0  0.57654  0.09307  0.31679  1.0000
  C   C120      1.0  0.56176  0.09958  0.31128  1.0000
  N   N20       1.0  0.54108  0.08775  0.31714  1.0000
  C   C121      1.0  0.53173  0.09914  0.31146  1.0000
  C   C122      1.0  0.54741  0.11958  0.30131  1.0000
  C   C123      1.0  0.56595  0.11985  0.30141  1.0000
  C   C124      1.0  0.51033  0.09207  0.31685  1.0000
  C   C125      1.0  0.50411  0.10717  0.31613  1.0000
  C   C126      1.0  0.49135  0.13710  0.31416  1.0000
  C   C127      1.0  0.48906  0.12521  0.23762  1.0000
  C   C128      1.0  0.49545  0.11049  0.23837  1.0000
  C   C129      1.0  0.48510  0.15214  0.31256  1.0000
  C   C130      1.0  0.46517  0.14705  0.28262  1.0000
  C   C131      1.0  0.45926  0.16212  0.27776  1.0000
  C   C132      1.0  0.47315  0.18270  0.30225  1.0000
  C   C133      1.0  0.59764  0.10866  0.31974  1.0000
  C   C134      1.0  0.63972  0.14046  0.32619  1.0000
  C   C135      1.0  0.63052  0.13032  0.24524  1.0000
  C   C136      1.0  0.60976  0.11459  0.24193  1.0000
  C   C137      1.0  0.66059  0.15689  0.32954  1.0000
  C   C138      1.0  0.70128  0.19126  0.34329  1.0000
  C   C139      1.0  0.68858  0.18949  0.27009  1.0000
  C   C140      1.0  0.66847  0.17256  0.26356  1.0000
  C   C141      1.0  0.54552  0.00145  0.31575  1.0000
  C   C142      1.0  0.55422  0.99847  0.23810  1.0000
  C   C143      1.0  0.56092  0.98400  0.23743  1.0000
  C   C144      1.0  0.55890  0.97201  0.31394  1.0000
  C   C145      1.0  0.56560  0.95731  0.31260  1.0000
  C   C146      1.0  0.57846  0.92748  0.30273  1.0000
  C   C147      1.0  0.59202  0.94821  0.27877  1.0000
  C   C148      1.0  0.58565  0.96292  0.28340  1.0000
  C   C149      1.0  0.45196  0.99989  0.32002  1.0000
  C   C150      1.0  0.43968  0.99400  0.24226  1.0000
  C   C151      1.0  0.41004  0.96773  0.32653  1.0000
  C   C152      1.0  0.41900  0.97810  0.24561  1.0000
  C   C153      1.0  0.38930  0.95103  0.32981  1.0000
  C   C154      1.0  0.38154  0.93551  0.26369  1.0000
  C   C155      1.0  0.36161  0.91831  0.27022  1.0000
  C   C156      1.0  0.34894  0.91613  0.34343  1.0000
  H   H61       1.0  0.35665  0.90698  0.22324  1.0000
  H   H62       1.0  0.39065  0.93610  0.21199  1.0000
  H   H63       1.0  0.41048  0.97425  0.18813  1.0000
  H   H64       1.0  0.44576  0.00111  0.18268  1.0000
  H   H65       1.0  0.44789  0.03364  0.34417  1.0000
  H   H66       1.0  0.46691  0.07267  0.34458  1.0000
  H   H67       1.0  0.50889  0.05408  0.30142  1.0000
  H   H68       1.0  0.54070  0.05454  0.30068  1.0000
  H   H69       1.0  0.46950  0.97578  0.29539  1.0000
  H   H70       1.0  0.50368  0.97629  0.29506  1.0000
  H   H71       1.0  0.55582  0.00689  0.18170  1.0000
  H   H72       1.0  0.56703  0.98208  0.17996  1.0000
  H   H73       1.0  0.58270  0.03587  0.34536  1.0000
  H   H74       1.0  0.60172  0.07488  0.34487  1.0000
  H   H75       1.0  0.54588  0.13233  0.29505  1.0000
  H   H76       1.0  0.58006  0.13283  0.29525  1.0000
  H   H77       1.0  0.60352  0.10760  0.18240  1.0000
  H   H78       1.0  0.63892  0.13417  0.18776  1.0000
  H   H79       1.0  0.65935  0.17228  0.21194  1.0000
  H   H80       1.0  0.69363  0.20096  0.22330  1.0000
  H   H81       1.0  0.49373  0.10221  0.18184  1.0000
  H   H82       1.0  0.48302  0.12741  0.18000  1.0000
  H   H83       1.0  0.44484  0.15807  0.25495  1.0000
  H   H84       1.0  0.45478  0.13230  0.26399  1.0000
  H   H85       1.0  0.59580  0.97779  0.26511  1.0000
  H   H86       1.0  0.60650  0.95262  0.25641  1.0000
  N   N21       1.0  0.46837  0.19864  0.29134  1.0000
  N   N22       1.0  0.58369  0.91188  0.29183  1.0000
  N   N23       1.0  0.32955  0.89831  0.35673  1.0000
  N   N24       1.0  0.72086  0.20882  0.35669  1.0000
  H   H87       1.0  0.71947  0.22172  0.34989  1.0000
  H   H88       1.0  0.59536  0.91636  0.24628  1.0000
  H   H89       1.0  0.33124  0.88560  0.34998  1.0000
  H   H90       1.0  0.45680  0.19456  0.24511  1.0000
  C   C157      1.0  0.28738  0.49522  0.28082  1.0000
  C   C158      1.0  0.26830  0.49444  0.27645  1.0000
  C   C159      1.0  0.22221  0.47861  0.27697  1.0000
  C   C160      1.0  0.20498  0.48109  0.26372  1.0000
  C   C161      1.0  0.20185  0.49476  0.31697  1.0000
  H   H91       1.0  0.22424  0.46898  0.23560  1.0000
  H   H92       1.0  0.19498  0.47322  0.21293  1.0000
  H   H93       1.0  0.29634  0.49975  0.22506  1.0000
  H   H94       1.0  0.26422  0.49856  0.21788  1.0000
  C   C162      1.0  0.18403  0.49775  0.29606  1.0000
  H   H95       1.0  0.16999  0.48281  0.30371  1.0000
  H   H96       1.0  0.18515  0.50246  0.22618  1.0000
  C   C163      1.0  0.58560  0.87427  0.28653  1.0000
  C   C164      1.0  0.58640  0.85599  0.28215  1.0000
  C   C165      1.0  0.60225  0.82573  0.28266  1.0000
  C   C166      1.0  0.59975  0.80606  0.26941  1.0000
  C   C167      1.0  0.58608  0.78911  0.32269  1.0000
  H   H97       1.0  0.61187  0.83751  0.24121  1.0000
  H   H98       1.0  0.60760  0.80405  0.21856  1.0000
  H   H99       1.0  0.58104  0.87883  0.23080  1.0000
  H   H100      1.0  0.58227  0.84795  0.22360  1.0000
  C   C168      1.0  0.58306  0.76835  0.30175  1.0000
  H   H101      1.0  0.59800  0.76922  0.30934  1.0000
  H   H102      1.0  0.57834  0.76496  0.23190  1.0000
  C   C169      1.0  0.20645  0.79343  0.27586  1.0000
  C   C170      1.0  0.22483  0.81243  0.27248  1.0000
  C   C171      1.0  0.25537  0.85846  0.27417  1.0000
  C   C172      1.0  0.27513  0.87565  0.26240  1.0000
  C   C173      1.0  0.29181  0.87870  0.31745  1.0000
  H   H103      1.0  0.24380  0.85651  0.23164  1.0000
  H   H104      1.0  0.27740  0.88571  0.21148  1.0000
  H   H105      1.0  0.20202  0.78450  0.21999  1.0000
  H   H106      1.0  0.23309  0.81650  0.21449  1.0000
  C   C174      1.0  0.31267  0.89653  0.29826  1.0000
  H   H107      1.0  0.31174  0.91057  0.30497  1.0000
  H   H108      1.0  0.31643  0.89543  0.22892  1.0000
  C   C175      1.0  0.76828  0.61386  0.28079  1.0000
  C   C176      1.0  0.78726  0.61445  0.27663  1.0000
  C   C177      1.0  0.83333  0.62998  0.27724  1.0000
  C   C178      1.0  0.85035  0.62722  0.26406  1.0000
  C   C179      1.0  0.85333  0.61330  0.31742  1.0000
  H   H109      1.0  0.83135  0.63973  0.23563  1.0000
  H   H110      1.0  0.86027  0.63502  0.21308  1.0000
  H   H111      1.0  0.75918  0.60937  0.22513  1.0000
  H   H112      1.0  0.79114  0.61024  0.21834  1.0000
  C   C180      1.0  0.87085  0.60995  0.29632  1.0000
  H   H113      1.0  0.88508  0.62472  0.30428  1.0000
  H   H114      1.0  0.86954  0.60543  0.22634  1.0000
  C   C181      1.0  0.46697  0.23656  0.28654  1.0000
  C   C182      1.0  0.46637  0.25495  0.28235  1.0000
  C   C183      1.0  0.45085  0.28549  0.28290  1.0000
  C   C184      1.0  0.45360  0.30530  0.26971  1.0000
  C   C185      1.0  0.46752  0.32206  0.32307  1.0000
  H   H115      1.0  0.44109  0.27386  0.24133  1.0000
  H   H116      1.0  0.44579  0.30755  0.21876  1.0000
  H   H117      1.0  0.47148  0.23211  0.23090  1.0000
  H   H118      1.0  0.47059  0.26320  0.22406  1.0000
  C   C186      1.0  0.47086  0.34299  0.30199  1.0000
  H   H119      1.0  0.45609  0.34242  0.30997  1.0000
  H   H120      1.0  0.47538  0.34639  0.23200  1.0000
  C   C187      1.0  0.84447  0.31252  0.27568  1.0000
  C   C188      1.0  0.82594  0.29365  0.27246  1.0000
  C   C189      1.0  0.79495  0.24773  0.27439  1.0000
  C   C190      1.0  0.77503  0.23076  0.26266  1.0000
  C   C191      1.0  0.75856  0.22789  0.31769  1.0000
  H   H121      1.0  0.80636  0.24957  0.23178  1.0000
  H   H122      1.0  0.77250  0.22075  0.21169  1.0000
  H   H123      1.0  0.84886  0.32155  0.21982  1.0000
  H   H124      1.0  0.81754  0.28978  0.21457  1.0000
  C   C192      1.0  0.73752  0.21036  0.29839  1.0000
  H   H125      1.0  0.73815  0.19614  0.30520  1.0000
  H   H126      1.0  0.73372  0.21167  0.22901  1.0000
  C   C193      1.0  0.96190  0.46923  0.37953  1.0000
  C   C194      1.0  0.94706  0.44814  0.37820  1.0000
  C   C195      1.0  0.89326  0.38707  0.31836  1.0000
  C   C196      1.0  0.90833  0.40802  0.32435  1.0000
  C   C197      1.0  0.96202  0.56934  0.38962  1.0000
  C   C198      1.0  0.94640  0.57447  0.39365  1.0000
  C   C199      1.0  0.92240  0.59679  0.39455  1.0000
  C   C200      1.0  0.90544  0.59983  0.40290  1.0000
  C   C201      1.0  0.10583  0.65696  0.37807  1.0000
  C   C202      1.0  0.09119  0.63581  0.37936  1.0000
  C   C203      1.0  0.14403  0.69761  0.32418  1.0000
  C   C204      1.0  0.15878  0.71868  0.31836  1.0000
  C   C205      1.0  0.09111  0.53563  0.39030  1.0000
  C   C206      1.0  0.10693  0.53076  0.39431  1.0000
  C   C207      1.0  0.14894  0.50661  0.40305  1.0000
  C   C208      1.0  0.13169  0.50921  0.39475  1.0000
  H   H127      1.0  0.15030  0.49913  0.45764  1.0000
  H   H128      1.0  0.12075  0.50326  0.44358  1.0000
  H   H129      1.0  0.11433  0.53253  0.45387  1.0000
  H   H130      1.0  0.08724  0.54045  0.44685  1.0000
  H   H131      1.0  0.08928  0.62752  0.43649  1.0000
  H   H132      1.0  0.11415  0.66359  0.43471  1.0000
  H   H133      1.0  0.96589  0.56431  0.44615  1.0000
  H   H134      1.0  0.93911  0.57264  0.45317  1.0000
  H   H135      1.0  0.90437  0.60729  0.45762  1.0000
  H   H136      1.0  0.93343  0.60243  0.44342  1.0000
  H   H137      1.0  0.90394  0.41831  0.34402  1.0000
  H   H138      1.0  0.87834  0.38256  0.33429  1.0000
  H   H139      1.0  0.93880  0.44147  0.43481  1.0000
  H   H140      1.0  0.96401  0.47744  0.43665  1.0000
  H   H141      1.0  0.14873  0.68748  0.34353  1.0000
  H   H142      1.0  0.17381  0.72343  0.33397  1.0000
  C   C209      1.0  0.61152  0.57445  0.38623  1.0000
  C   C210      1.0  0.63260  0.58064  0.38514  1.0000
  C   C211      1.0  0.69361  0.58783  0.32556  1.0000
  C   C212      1.0  0.67267  0.58200  0.33157  1.0000
  C   C213      1.0  0.51142  0.47449  0.39539  1.0000
  C   C214      1.0  0.50632  0.45374  0.39939  1.0000
  C   C215      1.0  0.48401  0.40742  0.40021  1.0000
  C   C216      1.0  0.48099  0.38740  0.40857  1.0000
  C   C217      1.0  0.42393  0.53082  0.38482  1.0000
  C   C218      1.0  0.44508  0.53731  0.38586  1.0000
  C   C219      1.0  0.38327  0.52858  0.33124  1.0000
  C   C220      1.0  0.36220  0.52230  0.32544  1.0000
  C   C221      1.0  0.54525  0.63733  0.39598  1.0000
  C   C222      1.0  0.55010  0.65799  0.40001  1.0000
  C   C223      1.0  0.57420  0.72412  0.40878  1.0000
  C   C224      1.0  0.57161  0.70430  0.40046  1.0000
  H   H143      1.0  0.58171  0.73283  0.46332  1.0000
  H   H144      1.0  0.57759  0.69919  0.44923  1.0000
  H   H145      1.0  0.54836  0.66347  0.45961  1.0000
  H   H146      1.0  0.54045  0.62848  0.45255  1.0000
  H   H147      1.0  0.45340  0.54352  0.44292  1.0000
  H   H148      1.0  0.41733  0.53236  0.44155  1.0000
  H   H149      1.0  0.51643  0.48323  0.45194  1.0000
  H   H150      1.0  0.50811  0.44809  0.45896  1.0000
  H   H151      1.0  0.47351  0.37870  0.46324  1.0000
  H   H152      1.0  0.47837  0.41266  0.44909  1.0000
  H   H153      1.0  0.66234  0.56730  0.35127  1.0000
  H   H154      1.0  0.69806  0.57733  0.34137  1.0000
  H   H155      1.0  0.63922  0.57886  0.44183  1.0000
  H   H156      1.0  0.60327  0.56820  0.44328  1.0000
  H   H157      1.0  0.39340  0.54335  0.35055  1.0000
  H   H158      1.0  0.35747  0.53255  0.34094  1.0000
  C   C225      1.0  0.50637  0.11892  0.39289  1.0000
  C   C226      1.0  0.50020  0.13382  0.39163  1.0000
  C   C227      1.0  0.49306  0.18783  0.33182  1.0000
  C   C228      1.0  0.49889  0.17271  0.33795  1.0000
  C   C229      1.0  0.60664  0.11857  0.40085  1.0000
  C   C230      1.0  0.62738  0.13426  0.40385  1.0000
  C   C231      1.0  0.67372  0.15858  0.40130  1.0000
  C   C232      1.0  0.69373  0.17562  0.40848  1.0000
  C   C233      1.0  0.54996  0.97489  0.39123  1.0000
  C   C234      1.0  0.54349  0.98956  0.39242  1.0000
  C   C235      1.0  0.55216  0.93659  0.33760  1.0000
  C   C236      1.0  0.55845  0.92183  0.33164  1.0000
  C   C237      1.0  0.44319  0.98978  0.40113  1.0000
  C   C238      1.0  0.42253  0.97392  0.40417  1.0000
  C   C239      1.0  0.35637  0.93160  0.40879  1.0000
  C   C240      1.0  0.37621  0.94890  0.40166  1.0000
  H   H159      1.0  0.34743  0.93021  0.46251  1.0000
  H   H160      1.0  0.38109  0.95984  0.45044  1.0000
  H   H161      1.0  0.41689  0.96650  0.46358  1.0000
  H   H162      1.0  0.45187  0.99368  0.45819  1.0000
  H   H163      1.0  0.53734  0.99155  0.44962  1.0000
  H   H164      1.0  0.54847  0.96662  0.44799  1.0000
  H   H165      1.0  0.59809  0.11461  0.45799  1.0000
  H   H166      1.0  0.63321  0.14150  0.46331  1.0000
  H   H167      1.0  0.70269  0.17671  0.46217  1.0000
  H   H168      1.0  0.66875  0.14752  0.44995  1.0000
  H   H169      1.0  0.51359  0.17705  0.35793  1.0000
  H   H170      1.0  0.50353  0.20274  0.34783  1.0000
  H   H171      1.0  0.50190  0.14202  0.44839  1.0000
  H   H172      1.0  0.51254  0.11671  0.45010  1.0000
  H   H173      1.0  0.53739  0.93189  0.35698  1.0000
  H   H174      1.0  0.54821  0.90681  0.34720  1.0000
  C   C241      1.0  0.29416  0.49032  0.36052  1.0000
  C   C242      1.0  0.25537  0.48893  0.35180  1.0000
  C   C243      1.0  0.26193  0.48403  0.43270  1.0000
  C   C244      1.0  0.28116  0.48470  0.43569  1.0000
  H   H175      1.0  0.28580  0.48118  0.49427  1.0000
  C   C245      1.0  0.23679  0.48963  0.34453  1.0000
  C   C246      1.0  0.21616  0.50530  0.38626  1.0000
  C   C247      1.0  0.23342  0.50289  0.39942  1.0000
  H   H176      1.0  0.21454  0.51529  0.42677  1.0000
  H   H177      1.0  0.24396  0.51156  0.44726  1.0000
  N   N25       1.0  0.24907  0.47821  0.50863  1.0000
  O   O1        1.0  0.25782  0.49030  0.57250  1.0000
  O   O2        1.0  0.24385  0.46023  0.53368  1.0000
  C   C248      1.0  0.31453  0.49143  0.36926  1.0000
  H   H178      1.0  0.31204  0.47652  0.39293  1.0000
  H   H179      1.0  0.32322  0.50288  0.42057  1.0000
  C   C249      1.0  0.59050  0.88573  0.36623  1.0000
  C   C250      1.0  0.59193  0.84838  0.35747  1.0000
  C   C251      1.0  0.59684  0.85962  0.43837  1.0000
  C   C252      1.0  0.59615  0.87816  0.44136  1.0000
  H   H180      1.0  0.59967  0.88616  0.49993  1.0000
  C   C253      1.0  0.59124  0.82912  0.35022  1.0000
  C   C254      1.0  0.57557  0.79271  0.39206  1.0000
  C   C255      1.0  0.57798  0.81235  0.40514  1.0000
  H   H181      1.0  0.56556  0.78100  0.43252  1.0000
  H   H182      1.0  0.56931  0.81408  0.45301  1.0000
  N   N26       1.0  0.60269  0.85239  0.51426  1.0000
  O   O3        1.0  0.59061  0.84887  0.57819  1.0000
  O   O4        1.0  0.62066  0.86509  0.53925  1.0000
  C   C256      1.0  0.58936  0.90494  0.37498  1.0000
  H   H183      1.0  0.60428  0.91733  0.39851  1.0000
  H   H184      1.0  0.57793  0.90204  0.42641  1.0000
  C   C257      1.0  0.19469  0.78666  0.35477  1.0000
  C   C258      1.0  0.23226  0.82531  0.34809  1.0000
  C   C259      1.0  0.22070  0.81876  0.42819  1.0000
  C   C260      1.0  0.20206  0.79960  0.43016  1.0000
  H   H185      1.0  0.19385  0.79497  0.48818  1.0000
  C   C261      1.0  0.25162  0.84382  0.34195  1.0000
  C   C262      1.0  0.28785  0.86432  0.38684  1.0000
  C   C263      1.0  0.26812  0.84708  0.39849  1.0000
  H   H186      1.0  0.29935  0.86586  0.42858  1.0000
  H   H187      1.0  0.26613  0.83650  0.44657  1.0000
  N   N27       1.0  0.22773  0.83156  0.50433  1.0000
  O   O5        1.0  0.23091  0.82271  0.56878  1.0000
  O   O6        1.0  0.21504  0.83689  0.52808  1.0000
  C   C264      1.0  0.17537  0.76633  0.36256  1.0000
  H   H188      1.0  0.16296  0.76889  0.38488  1.0000
  H   H189      1.0  0.17801  0.75761  0.41458  1.0000
  C   C265      1.0  0.76179  0.61890  0.36012  1.0000
  C   C266      1.0  0.80037  0.61991  0.35187  1.0000
  C   C267      1.0  0.79409  0.62493  0.43244  1.0000
  C   C268      1.0  0.77496  0.62446  0.43519  1.0000
  H   H190      1.0  0.77053  0.62808  0.49352  1.0000
  C   C269      1.0  0.81883  0.61901  0.34488  1.0000
  C   C270      1.0  0.83914  0.60286  0.38696  1.0000
  C   C271      1.0  0.82208  0.60554  0.40003  1.0000
  H   H191      1.0  0.84065  0.59270  0.42751  1.0000
  H   H192      1.0  0.81159  0.59691  0.44799  1.0000
  N   N28       1.0  0.80714  0.63068  0.50823  1.0000
  O   O7        1.0  0.79847  0.61865  0.57259  1.0000
  O   O8        1.0  0.81257  0.64871  0.53247  1.0000
  C   C272      1.0  0.74156  0.61806  0.36855  1.0000
  H   H193      1.0  0.74429  0.63306  0.39142  1.0000
  H   H194      1.0  0.73290  0.60668  0.42035  1.0000
  C   C273      1.0  0.46192  0.22480  0.36587  1.0000
  C   C274      1.0  0.46091  0.26239  0.35757  1.0000
  C   C275      1.0  0.45587  0.25087  0.43814  1.0000
  C   C276      1.0  0.45636  0.23221  0.44091  1.0000
  H   H195      1.0  0.45273  0.22400  0.49924  1.0000
  C   C277      1.0  0.46181  0.28177  0.35058  1.0000
  C   C278      1.0  0.47796  0.31812  0.39259  1.0000
  C   C279      1.0  0.47527  0.29833  0.40575  1.0000
  H   H196      1.0  0.48811  0.32968  0.43321  1.0000
  H   H197      1.0  0.48390  0.29635  0.45370  1.0000
  N   N29       1.0  0.45012  0.25795  0.51392  1.0000
  O   O9        1.0  0.46214  0.26114  0.57829  1.0000
  O   O10       1.0  0.43209  0.24529  0.53814  1.0000
  C   C280      1.0  0.46280  0.20541  0.37436  1.0000
  H   H198      1.0  0.44779  0.19307  0.39716  1.0000
  H   H199      1.0  0.47416  0.20799  0.42623  1.0000
  C   C281      1.0  0.85643  0.31902  0.35447  1.0000
  C   C282      1.0  0.81856  0.28066  0.34808  1.0000
  C   C283      1.0  0.83032  0.28693  0.42806  1.0000
  C   C284      1.0  0.84911  0.30595  0.42988  1.0000
  H   H200      1.0  0.85747  0.31039  0.48781  1.0000
  C   C285      1.0  0.79905  0.26231  0.34210  1.0000
  C   C286      1.0  0.76288  0.24220  0.38713  1.0000
  C   C287      1.0  0.78276  0.25922  0.39869  1.0000
  H   H201      1.0  0.75153  0.24079  0.42881  1.0000
  H   H202      1.0  0.78501  0.26977  0.44676  1.0000
  N   N30       1.0  0.82333  0.27400  0.50423  1.0000
  O   O11       1.0  0.82046  0.28285  0.56876  1.0000
  O   O12       1.0  0.83591  0.26841  0.52778  1.0000
  C   C288      1.0  0.87595  0.33918  0.36209  1.0000
  H   H203      1.0  0.88827  0.33636  0.38418  1.0000
  H   H204      1.0  0.87359  0.34792  0.41422  1.0000
