data_image0
_chemical_formula_structural       C3NC3NC5NC5NC20H18N4C3NC3NC5NC5NC20H18N4C3NC3NC5NC5NC20H18N4C3NC3NC5NC5NC20H18N4C3NC3NC5NC5NC20H18N4C3NC3NC5NC5NC20H18N4C3H2CHC3H2CHC3H2CHC3H2CHC3H2CHC3H2CHC3H2CHC3H2CHC3H2CHC3H2CHC3H2CHC3H2CHC8H8C8H8C8H8C8H8C8H8C8H8C3HNH2CHC3HNH2CHC3HNH2CHC3HNH2CHC3HNH2CHC3HNH2CHC3HNH2CHC3HNH2CHC3HNH2CHC3HNH2CHC3HNH2CHC3HNH2CH
_chemical_formula_sum              "C360 N60 H240"
_cell_length_a       69.2766
_cell_length_b       69.2766
_cell_length_c       14.8476
_cell_angle_alpha    90.0046
_cell_angle_beta     89.91
_cell_angle_gamma    120

_space_group_name_H-M_alt    "P 1"
_space_group_IT_number       1

loop_
  _space_group_symop_operation_xyz
  'x, y, z'

loop_
  _atom_site_type_symbol
  _atom_site_label
  _atom_site_symmetry_multiplicity
  _atom_site_fract_x
  _atom_site_fract_y
  _atom_site_fract_z
  _atom_site_occupancy
  C   C1        1.0  0.21470  0.37904  0.33111  1.0000
  C   C2        1.0  0.23464  0.37894  0.33173  1.0000
  C   C3        1.0  0.25215  0.40099  0.32955  1.0000
  N   N1        1.0  0.24207  0.41354  0.32785  1.0000
  C   C4        1.0  0.21944  0.40115  0.32873  1.0000
  C   C5        1.0  0.20315  0.40803  0.32702  1.0000
  C   C6        1.0  0.20827  0.43066  0.32514  1.0000
  N   N2        1.0  0.22858  0.44932  0.32589  1.0000
  C   C7        1.0  0.22717  0.46811  0.32347  1.0000
  C   C8        1.0  0.20447  0.46109  0.32094  1.0000
  C   C9        1.0  0.19285  0.43808  0.32255  1.0000
  C   C10       1.0  0.24484  0.49059  0.32381  1.0000
  C   C11       1.0  0.26787  0.49721  0.32755  1.0000
  N   N3        1.0  0.27781  0.48459  0.32741  1.0000
  C   C12       1.0  0.30036  0.49704  0.33119  1.0000
  C   C13       1.0  0.30515  0.51917  0.33443  1.0000
  C   C14       1.0  0.28531  0.51927  0.33249  1.0000
  C   C15       1.0  0.31663  0.49022  0.33101  1.0000
  C   C16       1.0  0.31166  0.46770  0.32923  1.0000
  N   N4        1.0  0.29139  0.44899  0.33014  1.0000
  C   C17       1.0  0.29290  0.43026  0.32857  1.0000
  C   C18       1.0  0.31571  0.43753  0.32627  1.0000
  C   C19       1.0  0.32725  0.46055  0.32710  1.0000
  C   C20       1.0  0.27527  0.40767  0.32935  1.0000
  C   C21       1.0  0.28162  0.39086  0.33043  1.0000
  C   C22       1.0  0.30078  0.36248  0.32832  1.0000
  C   C23       1.0  0.29248  0.36690  0.24875  1.0000
  C   C24       1.0  0.28326  0.38103  0.24944  1.0000
  C   C25       1.0  0.33952  0.50734  0.33210  1.0000
  C   C26       1.0  0.38334  0.54528  0.33261  1.0000
  C   C27       1.0  0.37280  0.53484  0.25078  1.0000
  C   C28       1.0  0.35114  0.51618  0.25049  1.0000
  C   C29       1.0  0.23929  0.50787  0.32112  1.0000
  C   C30       1.0  0.24183  0.51975  0.24040  1.0000
  C   C31       1.0  0.23944  0.53877  0.24008  1.0000
  C   C32       1.0  0.23414  0.54623  0.31984  1.0000
  C   C33       1.0  0.17995  0.39136  0.32735  1.0000
  C   C34       1.0  0.16754  0.38510  0.24647  1.0000
  C   C35       1.0  0.13233  0.36353  0.33006  1.0000
  C   C36       1.0  0.14414  0.37140  0.24780  1.0000
  H   H1        1.0  0.13578  0.36789  0.18802  1.0000
  H   H2        1.0  0.17540  0.39126  0.18610  1.0000
  H   H3        1.0  0.19930  0.36504  0.33218  1.0000
  H   H4        1.0  0.23589  0.36486  0.33348  1.0000
  H   H5        1.0  0.25013  0.42954  0.32547  1.0000
  H   H6        1.0  0.26980  0.46863  0.32237  1.0000
  H   H7        1.0  0.17586  0.42856  0.32162  1.0000
  H   H8        1.0  0.19729  0.47088  0.31892  1.0000
  H   H9        1.0  0.24638  0.51518  0.18208  1.0000
  H   H10       1.0  0.24204  0.54743  0.18120  1.0000
  H   H11       1.0  0.28416  0.53341  0.33447  1.0000
  H   H12       1.0  0.32049  0.53323  0.33748  1.0000
  H   H13       1.0  0.32307  0.42792  0.32424  1.0000
  H   H14       1.0  0.34422  0.47025  0.32587  1.0000
  H   H15       1.0  0.34365  0.50948  0.19014  1.0000
  H   H16       1.0  0.38053  0.54099  0.19037  1.0000
  H   H17       1.0  0.27839  0.38467  0.18979  1.0000
  H   H18       1.0  0.29390  0.36050  0.18856  1.0000
  N   N5        1.0  0.40333  0.56364  0.33862  1.0000
  N   N6        1.0  0.23370  0.56522  0.31563  1.0000
  N   N7        1.0  0.11004  0.35176  0.33759  1.0000
  N   N8        1.0  0.31036  0.34982  0.32149  1.0000
  C   C37       1.0  0.69437  0.83821  0.33210  1.0000
  C   C38       1.0  0.69447  0.85825  0.33263  1.0000
  C   C39       1.0  0.67243  0.85371  0.33043  1.0000
  N   N9        1.0  0.65988  0.83109  0.32881  1.0000
  C   C40       1.0  0.67227  0.82084  0.32978  1.0000
  C   C41       1.0  0.66539  0.79768  0.32815  1.0000
  C   C42       1.0  0.64276  0.78016  0.32632  1.0000
  N   N10       1.0  0.62410  0.78182  0.32702  1.0000
  C   C43       1.0  0.60531  0.76161  0.32472  1.0000
  C   C44       1.0  0.61233  0.74593  0.32232  1.0000
  C   C45       1.0  0.63534  0.75732  0.32388  1.0000
  C   C46       1.0  0.58283  0.75680  0.32504  1.0000
  C   C47       1.0  0.57621  0.77322  0.32852  1.0000
  N   N11       1.0  0.58882  0.79577  0.32838  1.0000
  C   C48       1.0  0.57637  0.80587  0.33206  1.0000
  C   C49       1.0  0.55424  0.78854  0.33500  1.0000
  C   C50       1.0  0.55414  0.76860  0.33315  1.0000
  C   C51       1.0  0.58319  0.82897  0.33194  1.0000
  C   C52       1.0  0.60572  0.84652  0.33016  1.0000
  N   N12       1.0  0.62443  0.84496  0.33103  1.0000
  C   C53       1.0  0.64316  0.86520  0.32942  1.0000
  C   C54       1.0  0.63589  0.88073  0.32708  1.0000
  C   C55       1.0  0.61288  0.86926  0.32799  1.0000
  C   C56       1.0  0.66575  0.87016  0.33016  1.0000
  C   C57       1.0  0.68255  0.89332  0.33113  1.0000
  C   C58       1.0  0.71096  0.94085  0.32880  1.0000
  C   C59       1.0  0.70657  0.92810  0.24929  1.0000
  C   C60       1.0  0.69246  0.90475  0.25010  1.0000
  C   C61       1.0  0.56608  0.83473  0.33286  1.0000
  C   C62       1.0  0.52815  0.84063  0.33309  1.0000
  C   C63       1.0  0.53867  0.84054  0.25133  1.0000
  C   C64       1.0  0.55733  0.83754  0.25119  1.0000
  C   C65       1.0  0.56555  0.73396  0.32235  1.0000
  C   C66       1.0  0.55375  0.72462  0.24160  1.0000
  C   C67       1.0  0.53473  0.70320  0.24127  1.0000
  C   C68       1.0  0.52718  0.69047  0.32107  1.0000
  C   C69       1.0  0.68206  0.79115  0.32850  1.0000
  C   C70       1.0  0.68837  0.78500  0.24762  1.0000
  C   C71       1.0  0.70986  0.77134  0.33125  1.0000
  C   C72       1.0  0.70204  0.77526  0.24898  1.0000
  H   H19       1.0  0.70560  0.77043  0.18920  1.0000
  H   H20       1.0  0.68224  0.78668  0.18725  1.0000
  H   H21       1.0  0.70837  0.83681  0.33321  1.0000
  H   H22       1.0  0.70855  0.87358  0.33435  1.0000
  H   H23       1.0  0.64388  0.82315  0.32640  1.0000
  H   H24       1.0  0.60480  0.80372  0.32405  1.0000
  H   H25       1.0  0.64487  0.74986  0.32310  1.0000
  H   H26       1.0  0.60255  0.72897  0.32048  1.0000
  H   H27       1.0  0.55837  0.73372  0.18325  1.0000
  H   H28       1.0  0.52611  0.69714  0.18237  1.0000
  H   H29       1.0  0.54000  0.75331  0.33507  1.0000
  H   H30       1.0  0.54018  0.78982  0.33793  1.0000
  H   H31       1.0  0.64550  0.89771  0.32501  1.0000
  H   H32       1.0  0.60317  0.87653  0.32673  1.0000
  H   H33       1.0  0.56409  0.83676  0.19089  1.0000
  H   H34       1.0  0.53258  0.84212  0.19087  1.0000
  H   H35       1.0  0.68885  0.89621  0.19050  1.0000
  H   H36       1.0  0.71305  0.93589  0.18909  1.0000
  N   N13       1.0  0.50976  0.84224  0.33894  1.0000
  N   N14       1.0  0.50820  0.67104  0.31685  1.0000
  N   N15       1.0  0.72164  0.76082  0.33877  1.0000
  N   N16       1.0  0.72363  0.96308  0.32184  1.0000
  C   C73       1.0  0.23520  0.85871  0.33027  1.0000
  C   C74       1.0  0.21517  0.83877  0.33076  1.0000
  C   C75       1.0  0.21970  0.82126  0.32856  1.0000
  N   N17       1.0  0.24233  0.83134  0.32698  1.0000
  C   C76       1.0  0.25258  0.85397  0.32797  1.0000
  C   C77       1.0  0.27574  0.87027  0.32638  1.0000
  C   C78       1.0  0.29326  0.86514  0.32463  1.0000
  N   N18       1.0  0.29160  0.84483  0.32531  1.0000
  C   C79       1.0  0.31181  0.84624  0.32312  1.0000
  C   C80       1.0  0.32749  0.86895  0.32085  1.0000
  C   C81       1.0  0.31610  0.88056  0.32233  1.0000
  C   C82       1.0  0.31662  0.82857  0.32346  1.0000
  C   C83       1.0  0.30020  0.80554  0.32682  1.0000
  N   N19       1.0  0.27764  0.79560  0.32658  1.0000
  C   C84       1.0  0.26754  0.77304  0.33018  1.0000
  C   C85       1.0  0.28487  0.76824  0.33319  1.0000
  C   C86       1.0  0.30481  0.78809  0.33145  1.0000
  C   C87       1.0  0.24445  0.75677  0.33005  1.0000
  C   C88       1.0  0.22689  0.76174  0.32828  1.0000
  N   N20       1.0  0.22846  0.78202  0.32912  1.0000
  C   C89       1.0  0.20822  0.78051  0.32752  1.0000
  C   C90       1.0  0.19268  0.75770  0.32520  1.0000
  C   C91       1.0  0.20416  0.74617  0.32608  1.0000
  C   C92       1.0  0.20326  0.79814  0.32827  1.0000
  C   C93       1.0  0.18010  0.79179  0.32927  1.0000
  C   C94       1.0  0.13257  0.77264  0.32717  1.0000
  C   C95       1.0  0.14534  0.78097  0.24758  1.0000
  C   C96       1.0  0.16869  0.79022  0.24828  1.0000
  C   C97       1.0  0.23868  0.73389  0.33105  1.0000
  C   C98       1.0  0.23277  0.69006  0.33150  1.0000
  C   C99       1.0  0.23294  0.70066  0.24968  1.0000
  C   C100      1.0  0.23593  0.72232  0.24942  1.0000
  C   C101      1.0  0.33946  0.83413  0.32096  1.0000
  C   C102      1.0  0.34891  0.83170  0.24032  1.0000
  C   C103      1.0  0.37033  0.83411  0.24020  1.0000
  C   C104      1.0  0.38296  0.83926  0.32015  1.0000
  C   C105      1.0  0.28227  0.89346  0.32682  1.0000
  C   C106      1.0  0.28853  0.90595  0.24600  1.0000
  C   C107      1.0  0.30208  0.94108  0.32978  1.0000
  C   C108      1.0  0.29825  0.92935  0.24746  1.0000
  H   H37       1.0  0.30314  0.93777  0.18772  1.0000
  H   H38       1.0  0.28689  0.89815  0.18561  1.0000
  H   H39       1.0  0.23661  0.87411  0.33137  1.0000
  H   H40       1.0  0.19983  0.83752  0.33245  1.0000
  H   H41       1.0  0.25027  0.82329  0.32453  1.0000
  H   H42       1.0  0.26970  0.80362  0.32227  1.0000
  H   H43       1.0  0.32357  0.89755  0.32157  1.0000
  H   H44       1.0  0.34446  0.87613  0.31904  1.0000
  H   H45       1.0  0.33990  0.82728  0.18184  1.0000
  H   H46       1.0  0.37648  0.83159  0.18136  1.0000
  H   H47       1.0  0.32010  0.78923  0.33344  1.0000
  H   H48       1.0  0.28358  0.75290  0.33613  1.0000
  H   H49       1.0  0.17571  0.75034  0.32315  1.0000
  H   H50       1.0  0.19688  0.72919  0.32489  1.0000
  H   H51       1.0  0.23678  0.72986  0.18908  1.0000
  H   H52       1.0  0.23142  0.69298  0.18926  1.0000
  H   H53       1.0  0.17725  0.79511  0.18864  1.0000
  H   H54       1.0  0.13756  0.77962  0.18741  1.0000
  N   N21       1.0  0.23115  0.67007  0.33746  1.0000
  N   N22       1.0  0.40240  0.83972  0.31613  1.0000
  N   N23       1.0  0.31258  0.96337  0.33742  1.0000
  N   N24       1.0  0.11033  0.76307  0.32034  1.0000
  C   C109      1.0  0.88148  0.67159  0.33210  1.0000
  C   C110      1.0  0.86154  0.67169  0.33277  1.0000
  C   C111      1.0  0.84403  0.64965  0.33067  1.0000
  N   N25       1.0  0.85410  0.63710  0.32899  1.0000
  C   C112      1.0  0.87674  0.64949  0.32978  1.0000
  C   C113      1.0  0.89303  0.64261  0.32796  1.0000
  C   C114      1.0  0.88791  0.61998  0.32623  1.0000
  N   N26       1.0  0.86760  0.60132  0.32721  1.0000
  C   C115      1.0  0.86901  0.58253  0.32493  1.0000
  C   C116      1.0  0.89171  0.58955  0.32228  1.0000
  C   C117      1.0  0.90333  0.61256  0.32364  1.0000
  C   C118      1.0  0.85134  0.56004  0.32547  1.0000
  C   C119      1.0  0.82830  0.55343  0.32920  1.0000
  N   N27       1.0  0.81836  0.56605  0.32906  1.0000
  C   C120      1.0  0.79581  0.55360  0.33289  1.0000
  C   C121      1.0  0.79101  0.53146  0.33608  1.0000
  C   C122      1.0  0.81086  0.53136  0.33412  1.0000
  C   C123      1.0  0.77954  0.56042  0.33280  1.0000
  C   C124      1.0  0.78451  0.58294  0.33090  1.0000
  N   N28       1.0  0.80479  0.60165  0.33162  1.0000
  C   C125      1.0  0.80328  0.62039  0.32992  1.0000
  C   C126      1.0  0.78047  0.61311  0.32770  1.0000
  C   C127      1.0  0.76893  0.59010  0.32871  1.0000
  C   C128      1.0  0.82091  0.64297  0.33053  1.0000
  C   C129      1.0  0.81456  0.65978  0.33146  1.0000
  C   C130      1.0  0.79543  0.68818  0.32920  1.0000
  C   C131      1.0  0.80378  0.68377  0.24966  1.0000
  C   C132      1.0  0.81304  0.66966  0.25045  1.0000
  C   C133      1.0  0.75666  0.54330  0.33392  1.0000
  C   C134      1.0  0.71283  0.50537  0.33449  1.0000
  C   C135      1.0  0.72343  0.51584  0.25264  1.0000
  C   C136      1.0  0.74510  0.53449  0.25233  1.0000
  C   C137      1.0  0.85689  0.54276  0.32278  1.0000
  C   C138      1.0  0.85441  0.53091  0.24209  1.0000
  C   C139      1.0  0.85680  0.51188  0.24184  1.0000
  C   C140      1.0  0.86200  0.50439  0.32166  1.0000
  C   C141      1.0  0.91622  0.65928  0.32809  1.0000
  C   C142      1.0  0.92867  0.66553  0.24711  1.0000
  C   C143      1.0  0.96385  0.68706  0.33039  1.0000
  C   C144      1.0  0.95208  0.67921  0.24823  1.0000
  H   H55       1.0  0.96045  0.68273  0.18837  1.0000
  H   H56       1.0  0.92083  0.65939  0.18681  1.0000
  H   H57       1.0  0.89688  0.68560  0.33306  1.0000
  H   H58       1.0  0.86029  0.68578  0.33448  1.0000
  H   H59       1.0  0.84605  0.62110  0.32644  1.0000
  H   H60       1.0  0.82638  0.58201  0.32436  1.0000
  H   H61       1.0  0.92032  0.62208  0.32261  1.0000
  H   H62       1.0  0.89889  0.57976  0.32030  1.0000
  H   H63       1.0  0.84994  0.53551  0.18373  1.0000
  H   H64       1.0  0.85426  0.50324  0.18297  1.0000
  H   H65       1.0  0.81200  0.51723  0.33612  1.0000
  H   H66       1.0  0.77568  0.51741  0.33918  1.0000
  H   H67       1.0  0.77311  0.62273  0.32560  1.0000
  H   H68       1.0  0.75196  0.58040  0.32760  1.0000
  H   H69       1.0  0.75263  0.54122  0.19196  1.0000
  H   H70       1.0  0.71576  0.50971  0.19224  1.0000
  H   H71       1.0  0.81794  0.66601  0.19083  1.0000
  H   H72       1.0  0.80245  0.69021  0.18946  1.0000
  N   N29       1.0  0.69284  0.48700  0.34050  1.0000
  N   N30       1.0  0.86247  0.48541  0.31749  1.0000
  N   N31       1.0  0.98615  0.69885  0.33771  1.0000
  N   N32       1.0  0.78585  0.70084  0.32227  1.0000
  C   C145      1.0  0.40181  0.21243  0.33257  1.0000
  C   C146      1.0  0.40171  0.19240  0.33310  1.0000
  C   C147      1.0  0.42376  0.19693  0.33115  1.0000
  N   N33       1.0  0.43631  0.21956  0.32966  1.0000
  C   C148      1.0  0.42392  0.22980  0.33047  1.0000
  C   C149      1.0  0.43080  0.25297  0.32889  1.0000
  C   C150      1.0  0.45344  0.27048  0.32729  1.0000
  N   N34       1.0  0.47209  0.26883  0.32821  1.0000
  C   C151      1.0  0.49088  0.28903  0.32601  1.0000
  C   C152      1.0  0.48387  0.30472  0.32347  1.0000
  C   C153      1.0  0.46086  0.29332  0.32484  1.0000
  C   C154      1.0  0.51337  0.29384  0.32654  1.0000
  C   C155      1.0  0.51998  0.27742  0.33026  1.0000
  N   N35       1.0  0.50736  0.25487  0.33002  1.0000
  C   C156      1.0  0.51981  0.24477  0.33377  1.0000
  C   C157      1.0  0.54194  0.26210  0.33714  1.0000
  C   C158      1.0  0.54204  0.28204  0.33529  1.0000
  C   C159      1.0  0.51299  0.22168  0.33343  1.0000
  C   C160      1.0  0.49047  0.20412  0.33142  1.0000
  N   N36       1.0  0.47176  0.20569  0.33220  1.0000
  C   C161      1.0  0.45303  0.18545  0.33038  1.0000
  C   C162      1.0  0.46030  0.16991  0.32805  1.0000
  C   C163      1.0  0.48331  0.18139  0.32912  1.0000
  C   C164      1.0  0.43044  0.18049  0.33094  1.0000
  C   C165      1.0  0.41363  0.15733  0.33170  1.0000
  C   C166      1.0  0.38524  0.10980  0.32896  1.0000
  C   C167      1.0  0.38973  0.12261  0.24954  1.0000
  C   C168      1.0  0.40386  0.14596  0.25055  1.0000
  C   C169      1.0  0.53011  0.21591  0.33445  1.0000
  C   C170      1.0  0.56804  0.21002  0.33478  1.0000
  C   C171      1.0  0.55761  0.21015  0.25300  1.0000
  C   C172      1.0  0.53894  0.21315  0.25280  1.0000
  C   C173      1.0  0.53065  0.31668  0.32394  1.0000
  C   C174      1.0  0.54255  0.32606  0.24326  1.0000
  C   C175      1.0  0.56158  0.34748  0.24302  1.0000
  C   C176      1.0  0.56900  0.36018  0.32283  1.0000
  C   C177      1.0  0.41413  0.25949  0.32903  1.0000
  C   C178      1.0  0.40794  0.26570  0.24806  1.0000
  C   C179      1.0  0.38631  0.27930  0.33139  1.0000
  C   C180      1.0  0.39425  0.27541  0.24921  1.0000
  H   H73       1.0  0.39079  0.28030  0.18939  1.0000
  H   H74       1.0  0.41415  0.26404  0.18777  1.0000
  H   H75       1.0  0.38781  0.21383  0.33350  1.0000
  H   H76       1.0  0.38763  0.17706  0.33467  1.0000
  H   H77       1.0  0.45231  0.22750  0.32745  1.0000
  H   H78       1.0  0.49140  0.24692  0.32494  1.0000
  H   H79       1.0  0.45133  0.30079  0.32382  1.0000
  H   H80       1.0  0.49366  0.32168  0.32157  1.0000
  H   H81       1.0  0.53801  0.31698  0.18491  1.0000
  H   H82       1.0  0.57026  0.35357  0.18417  1.0000
  H   H83       1.0  0.55617  0.29733  0.33734  1.0000
  H   H84       1.0  0.55599  0.26082  0.34018  1.0000
  H   H85       1.0  0.45069  0.15294  0.32583  1.0000
  H   H86       1.0  0.49302  0.17411  0.32791  1.0000
  H   H87       1.0  0.53224  0.21396  0.19248  1.0000
  H   H88       1.0  0.56376  0.20860  0.19256  1.0000
  H   H89       1.0  0.40755  0.15455  0.19101  1.0000
  H   H90       1.0  0.38337  0.11487  0.18924  1.0000
  N   N37       1.0  0.58641  0.20839  0.34069  1.0000
  N   N38       1.0  0.58799  0.37962  0.31867  1.0000
  N   N39       1.0  0.37453  0.28982  0.33876  1.0000
  N   N40       1.0  0.37259  0.08756  0.32182  1.0000
  C   C181      1.0  0.86099  0.19193  0.33162  1.0000
  C   C182      1.0  0.88102  0.21187  0.33212  1.0000
  C   C183      1.0  0.87649  0.22938  0.33002  1.0000
  N   N41       1.0  0.85386  0.21931  0.32848  1.0000
  C   C184      1.0  0.84362  0.19667  0.32942  1.0000
  C   C185      1.0  0.82045  0.18038  0.32787  1.0000
  C   C186      1.0  0.80294  0.18550  0.32622  1.0000
  N   N42       1.0  0.80459  0.20580  0.32700  1.0000
  C   C187      1.0  0.78438  0.20440  0.32488  1.0000
  C   C188      1.0  0.76870  0.18169  0.32250  1.0000
  C   C189      1.0  0.78010  0.17007  0.32389  1.0000
  C   C190      1.0  0.77957  0.22207  0.32532  1.0000
  C   C191      1.0  0.79599  0.24510  0.32875  1.0000
  N   N43       1.0  0.81854  0.25504  0.32845  1.0000
  C   C192      1.0  0.82864  0.27759  0.33214  1.0000
  C   C193      1.0  0.81130  0.28239  0.33525  1.0000
  C   C194      1.0  0.79136  0.26254  0.33349  1.0000
  C   C195      1.0  0.85173  0.29386  0.33192  1.0000
  C   C196      1.0  0.86929  0.28889  0.33000  1.0000
  N   N44       1.0  0.86773  0.26862  0.33081  1.0000
  C   C197      1.0  0.88797  0.27013  0.32909  1.0000
  C   C198      1.0  0.90350  0.29294  0.32675  1.0000
  C   C199      1.0  0.89202  0.30448  0.32775  1.0000
  C   C200      1.0  0.89293  0.25251  0.32975  1.0000
  C   C201      1.0  0.91609  0.25886  0.33065  1.0000
  C   C202      1.0  0.96362  0.27798  0.32823  1.0000
  C   C203      1.0  0.95088  0.26966  0.24874  1.0000
  C   C204      1.0  0.92753  0.26042  0.24960  1.0000
  C   C205      1.0  0.85750  0.31675  0.33293  1.0000
  C   C206      1.0  0.86340  0.36058  0.33340  1.0000
  C   C207      1.0  0.86329  0.35000  0.25158  1.0000
  C   C208      1.0  0.86029  0.32834  0.25131  1.0000
  C   C209      1.0  0.75673  0.21651  0.32287  1.0000
  C   C210      1.0  0.74736  0.21898  0.24222  1.0000
  C   C211      1.0  0.72594  0.21658  0.24213  1.0000
  C   C212      1.0  0.71324  0.21138  0.32205  1.0000
  C   C213      1.0  0.81393  0.15718  0.32816  1.0000
  C   C214      1.0  0.80777  0.14476  0.24726  1.0000
  C   C215      1.0  0.79411  0.10956  0.33083  1.0000
  C   C216      1.0  0.79803  0.12135  0.24859  1.0000
  H   H91       1.0  0.79319  0.11298  0.18880  1.0000
  H   H92       1.0  0.80944  0.15260  0.18693  1.0000
  H   H93       1.0  0.85959  0.17653  0.33268  1.0000
  H   H94       1.0  0.89636  0.21312  0.33376  1.0000
  H   H95       1.0  0.84592  0.22736  0.32615  1.0000
  H   H96       1.0  0.82649  0.24702  0.32403  1.0000
  H   H97       1.0  0.77263  0.15309  0.32309  1.0000
  H   H98       1.0  0.75174  0.17451  0.32077  1.0000
  H   H99       1.0  0.75644  0.22348  0.18379  1.0000
  H   H100      1.0  0.71985  0.21915  0.18331  1.0000
  H   H101      1.0  0.77608  0.26140  0.33553  1.0000
  H   H102      1.0  0.81259  0.29773  0.33824  1.0000
  H   H103      1.0  0.92048  0.30030  0.32460  1.0000
  H   H104      1.0  0.89930  0.32145  0.32652  1.0000
  H   H105      1.0  0.85950  0.32083  0.19097  1.0000
  H   H106      1.0  0.86486  0.35771  0.19116  1.0000
  H   H107      1.0  0.91900  0.25553  0.19002  1.0000
  H   H108      1.0  0.95868  0.27100  0.18852  1.0000
  N   N45       1.0  0.86500  0.38056  0.33938  1.0000
  N   N46       1.0  0.69380  0.21092  0.31805  1.0000
  N   N47       1.0  0.78360  0.08727  0.33833  1.0000
  N   N48       1.0  0.98586  0.28755  0.32125  1.0000
  C   C217      1.0  0.22481  0.59983  0.25651  1.0000
  C   C218      1.0  0.22618  0.62024  0.23518  1.0000
  C   C219      1.0  0.22900  0.63575  0.30302  1.0000
  H   H109      1.0  0.22237  0.58902  0.20495  1.0000
  H   H110      1.0  0.22490  0.62355  0.16892  1.0000
  C   C220      1.0  0.23042  0.65594  0.27921  1.0000
  H   H111      1.0  0.23115  0.65968  0.21422  1.0000
  C   C221      1.0  0.47363  0.62754  0.25774  1.0000
  C   C222      1.0  0.45323  0.60851  0.23640  1.0000
  C   C223      1.0  0.43768  0.59581  0.30422  1.0000
  H   H112      1.0  0.48448  0.63591  0.20618  1.0000
  H   H113      1.0  0.44996  0.60391  0.17013  1.0000
  C   C224      1.0  0.41750  0.57704  0.28038  1.0000
  H   H114      1.0  0.41380  0.57405  0.21539  1.0000
  C   C225      1.0  0.44597  0.84867  0.25749  1.0000
  C   C226      1.0  0.46503  0.84732  0.23632  1.0000
  C   C227      1.0  0.47764  0.84444  0.30425  1.0000
  H   H115      1.0  0.43766  0.85116  0.20585  1.0000
  H   H116      1.0  0.46972  0.84868  0.17010  1.0000
  C   C228      1.0  0.49645  0.84306  0.28059  1.0000
  H   H117      1.0  0.49955  0.84243  0.21562  1.0000
  C   C229      1.0  0.87143  0.45084  0.25844  1.0000
  C   C230      1.0  0.87008  0.43045  0.23712  1.0000
  C   C231      1.0  0.86721  0.41491  0.30495  1.0000
  H   H118      1.0  0.87392  0.46168  0.20688  1.0000
  H   H119      1.0  0.87144  0.42716  0.17086  1.0000
  C   C232      1.0  0.86582  0.39473  0.28114  1.0000
  H   H120      1.0  0.86519  0.39104  0.21614  1.0000
  C   C233      1.0  0.62261  0.42314  0.25962  1.0000
  C   C234      1.0  0.64302  0.44218  0.23828  1.0000
  C   C235      1.0  0.65851  0.45485  0.30610  1.0000
  H   H121      1.0  0.61180  0.41479  0.20806  1.0000
  H   H122      1.0  0.64634  0.44682  0.17202  1.0000
  C   C236      1.0  0.67871  0.47363  0.28228  1.0000
  H   H123      1.0  0.68246  0.47666  0.21728  1.0000
  C   C237      1.0  0.65029  0.20201  0.25934  1.0000
  C   C238      1.0  0.63125  0.20337  0.23814  1.0000
  C   C239      1.0  0.61858  0.20622  0.30606  1.0000
  H   H124      1.0  0.65865  0.19954  0.20771  1.0000
  H   H125      1.0  0.62663  0.20205  0.17191  1.0000
  C   C240      1.0  0.59980  0.20764  0.28237  1.0000
  H   H126      1.0  0.59680  0.20836  0.21740  1.0000
  C   C241      1.0  0.03199  0.31760  0.26281  1.0000
  C   C242      1.0  0.05478  0.32843  0.24026  1.0000
  C   C243      1.0  0.07123  0.33217  0.30511  1.0000
  H   H127      1.0  0.02089  0.31604  0.21388  1.0000
  H   H128      1.0  0.05928  0.33407  0.17559  1.0000
  C   C244      1.0  0.09383  0.34349  0.28055  1.0000
  H   H129      1.0  0.09755  0.34581  0.21535  1.0000
  C   C245      1.0  0.75583  0.71691  0.26396  1.0000
  C   C246      1.0  0.74501  0.72886  0.24142  1.0000
  C   C247      1.0  0.74124  0.74160  0.30627  1.0000
  H   H130      1.0  0.75742  0.70737  0.21503  1.0000
  H   H131      1.0  0.73940  0.72772  0.17676  1.0000
  C   C248      1.0  0.72992  0.75286  0.28173  1.0000
  H   H132      1.0  0.72762  0.75423  0.21653  1.0000
  C   C249      1.0  0.35658  0.04149  0.26317  1.0000
  C   C250      1.0  0.34465  0.01873  0.24046  1.0000
  C   C251      1.0  0.33185  0.00220  0.30516  1.0000
  H   H133      1.0  0.36619  0.05264  0.21435  1.0000
  H   H134      1.0  0.34587  0.01429  0.17580  1.0000
  C   C252      1.0  0.32061  0.97963  0.28048  1.0000
  H   H135      1.0  0.31932  0.97598  0.21527  1.0000
  C   C253      1.0  0.06423  0.73299  0.26235  1.0000
  C   C254      1.0  0.04145  0.72214  0.23998  1.0000
  C   C255      1.0  0.02496  0.71843  0.30489  1.0000
  H   H136      1.0  0.07535  0.73453  0.21339  1.0000
  H   H137      1.0  0.03697  0.71647  0.17539  1.0000
  C   C256      1.0  0.00237  0.70708  0.28053  1.0000
  H   H138      1.0  0.99868  0.70471  0.21538  1.0000
  C   C257      1.0  0.34047  0.33379  0.26347  1.0000
  C   C258      1.0  0.35132  0.32184  0.24108  1.0000
  C   C259      1.0  0.35498  0.30906  0.30599  1.0000
  H   H139      1.0  0.33897  0.34337  0.21451  1.0000
  H   H140      1.0  0.35702  0.32302  0.17648  1.0000
  C   C260      1.0  0.36632  0.29780  0.28160  1.0000
  H   H141      1.0  0.36870  0.29645  0.21643  1.0000
  C   C261      1.0  0.73971  0.00920  0.26348  1.0000
  C   C262      1.0  0.75167  0.03199  0.24094  1.0000
  C   C263      1.0  0.76438  0.04846  0.30579  1.0000
  H   H142      1.0  0.73019  0.99809  0.21455  1.0000
  H   H143      1.0  0.75055  0.03648  0.17629  1.0000
  C   C264      1.0  0.77565  0.07105  0.28127  1.0000
  H   H144      1.0  0.77703  0.07476  0.21608  1.0000
  C   C265      1.0  0.28927  0.38593  0.41070  1.0000
  C   C266      1.0  0.29863  0.37193  0.40971  1.0000
  C   C267      1.0  0.35013  0.51744  0.41400  1.0000
  C   C268      1.0  0.37177  0.53613  0.41403  1.0000
  C   C269      1.0  0.23134  0.53417  0.40042  1.0000
  C   C270      1.0  0.23394  0.51526  0.40110  1.0000
  C   C271      1.0  0.16828  0.38325  0.40948  1.0000
  C   C272      1.0  0.14487  0.36951  0.41057  1.0000
  H   H145      1.0  0.13691  0.36448  0.47142  1.0000
  H   H146      1.0  0.17666  0.38802  0.46940  1.0000
  H   H147      1.0  0.23271  0.50740  0.46099  1.0000
  H   H148      1.0  0.22828  0.53957  0.45995  1.0000
  H   H149      1.0  0.34188  0.51169  0.47394  1.0000
  H   H150      1.0  0.37884  0.54341  0.47429  1.0000
  H   H151      1.0  0.30426  0.36907  0.46896  1.0000
  H   H152      1.0  0.28879  0.39316  0.47016  1.0000
  C   C273      1.0  0.68744  0.90592  0.41135  1.0000
  C   C274      1.0  0.70144  0.92928  0.41022  1.0000
  C   C275      1.0  0.55589  0.83523  0.41469  1.0000
  C   C276      1.0  0.53720  0.83819  0.41457  1.0000
  C   C277      1.0  0.53918  0.69974  0.40167  1.0000
  C   C278      1.0  0.55809  0.72124  0.40235  1.0000
  C   C279      1.0  0.69011  0.78759  0.41063  1.0000
  C   C280      1.0  0.70385  0.77792  0.41173  1.0000
  H   H153      1.0  0.70885  0.77501  0.47258  1.0000
  H   H154      1.0  0.68531  0.79121  0.47055  1.0000
  H   H155      1.0  0.56588  0.72789  0.46228  1.0000
  H   H156      1.0  0.53371  0.69130  0.46123  1.0000
  H   H157      1.0  0.56155  0.83269  0.47466  1.0000
  H   H158      1.0  0.52984  0.83793  0.47477  1.0000
  H   H159      1.0  0.70429  0.93780  0.46943  1.0000
  H   H160      1.0  0.68016  0.89823  0.47083  1.0000
  C   C281      1.0  0.16747  0.78410  0.40956  1.0000
  C   C282      1.0  0.14411  0.77474  0.40857  1.0000
  C   C283      1.0  0.23811  0.72322  0.41294  1.0000
  C   C284      1.0  0.23512  0.70156  0.41294  1.0000
  C   C285      1.0  0.37359  0.84197  0.40065  1.0000
  C   C286      1.0  0.35207  0.83935  0.40111  1.0000
  C   C287      1.0  0.28574  0.90505  0.40899  1.0000
  C   C288      1.0  0.29543  0.92846  0.41020  1.0000
  H   H161      1.0  0.29825  0.93635  0.47109  1.0000
  H   H162      1.0  0.28205  0.89661  0.46887  1.0000
  H   H163      1.0  0.34534  0.84048  0.46096  1.0000
  H   H164      1.0  0.38193  0.84489  0.46032  1.0000
  H   H165      1.0  0.24057  0.73142  0.47289  1.0000
  H   H166      1.0  0.23532  0.69446  0.47318  1.0000
  H   H167      1.0  0.13558  0.76909  0.46782  1.0000
  H   H168      1.0  0.17515  0.78455  0.46903  1.0000
  C   C289      1.0  0.80684  0.66469  0.41170  1.0000
  C   C290      1.0  0.79748  0.67870  0.41063  1.0000
  C   C291      1.0  0.74599  0.53317  0.41583  1.0000
  C   C292      1.0  0.72434  0.51448  0.41589  1.0000
  C   C293      1.0  0.86479  0.51646  0.40217  1.0000
  C   C294      1.0  0.86219  0.53537  0.40279  1.0000
  C   C295      1.0  0.92788  0.66736  0.41010  1.0000
  C   C296      1.0  0.95128  0.68109  0.41100  1.0000
  H   H169      1.0  0.95922  0.68614  0.47177  1.0000
  H   H170      1.0  0.91947  0.66261  0.47010  1.0000
  H   H171      1.0  0.86334  0.54320  0.46268  1.0000
  H   H172      1.0  0.86775  0.51101  0.46175  1.0000
  H   H173      1.0  0.75418  0.53890  0.47576  1.0000
  H   H174      1.0  0.71723  0.50717  0.47615  1.0000
  H   H175      1.0  0.79180  0.68155  0.46984  1.0000
  H   H176      1.0  0.80725  0.65744  0.47119  1.0000
  C   C297      1.0  0.40863  0.14465  0.41181  1.0000
  C   C298      1.0  0.39463  0.12129  0.41051  1.0000
  C   C299      1.0  0.54020  0.21536  0.41630  1.0000
  C   C300      1.0  0.55890  0.21241  0.41625  1.0000
  C   C301      1.0  0.55691  0.35087  0.40336  1.0000
  C   C302      1.0  0.53800  0.32936  0.40397  1.0000
  C   C303      1.0  0.40596  0.26302  0.41105  1.0000
  C   C304      1.0  0.39222  0.27268  0.41197  1.0000
  H   H177      1.0  0.38713  0.27557  0.47276  1.0000
  H   H178      1.0  0.41067  0.25936  0.47104  1.0000
  H   H179      1.0  0.53012  0.32269  0.46383  1.0000
  H   H180      1.0  0.56229  0.35930  0.46292  1.0000
  H   H181      1.0  0.53446  0.21784  0.47627  1.0000
  H   H182      1.0  0.56618  0.21260  0.47647  1.0000
  H   H183      1.0  0.39171  0.11272  0.46965  1.0000
  H   H184      1.0  0.41581  0.15229  0.47138  1.0000
  C   C305      1.0  0.92868  0.26653  0.41086  1.0000
  C   C306      1.0  0.95204  0.27590  0.40968  1.0000
  C   C307      1.0  0.85802  0.32739  0.41482  1.0000
  C   C308      1.0  0.86097  0.34903  0.41484  1.0000
  C   C309      1.0  0.72253  0.20862  0.40254  1.0000
  C   C310      1.0  0.74404  0.21122  0.40300  1.0000
  C   C311      1.0  0.81037  0.14552  0.41026  1.0000
  C   C312      1.0  0.80070  0.12212  0.41133  1.0000
  H   H185      1.0  0.79779  0.11418  0.47217  1.0000
  H   H186      1.0  0.81399  0.15392  0.47019  1.0000
  H   H187      1.0  0.75071  0.21006  0.46284  1.0000
  H   H188      1.0  0.71411  0.20564  0.46218  1.0000
  H   H189      1.0  0.85548  0.31915  0.47477  1.0000
  H   H190      1.0  0.86072  0.35611  0.47508  1.0000
  H   H191      1.0  0.96055  0.28154  0.46889  1.0000
  H   H192      1.0  0.92098  0.26609  0.47035  1.0000
  C   C313      1.0  0.23060  0.63001  0.39318  1.0000
  C   C314      1.0  0.22943  0.60957  0.41645  1.0000
  C   C315      1.0  0.22640  0.59412  0.34666  1.0000
  H   H193      1.0  0.23286  0.64106  0.44346  1.0000
  N   N49       1.0  0.23158  0.60578  0.50496  1.0000
  H   H194      1.0  0.23388  0.61670  0.55115  1.0000
  H   H195      1.0  0.23180  0.59255  0.52491  1.0000
  C   C316      1.0  0.22406  0.57331  0.36443  1.0000
  H   H196      1.0  0.21450  0.56446  0.41573  1.0000
  C   C317      1.0  0.44336  0.60314  0.39438  1.0000
  C   C318      1.0  0.46378  0.62241  0.41767  1.0000
  C   C319      1.0  0.47928  0.63484  0.34789  1.0000
  H   H197      1.0  0.43227  0.59435  0.44465  1.0000
  N   N50       1.0  0.46751  0.62836  0.50618  1.0000
  H   H198      1.0  0.45656  0.61973  0.55237  1.0000
  H   H199      1.0  0.48073  0.64181  0.52615  1.0000
  C   C320      1.0  0.50008  0.65332  0.36568  1.0000
  H   H200      1.0  0.50889  0.65261  0.41700  1.0000
  C   C321      1.0  0.47019  0.84275  0.39433  1.0000
  C   C322      1.0  0.45089  0.84389  0.41745  1.0000
  C   C323      1.0  0.43855  0.84698  0.34757  1.0000
  H   H201      1.0  0.47893  0.84044  0.44469  1.0000
  N   N51       1.0  0.44483  0.84164  0.50590  1.0000
  H   H202      1.0  0.45340  0.83929  0.55216  1.0000
  H   H203      1.0  0.43135  0.84139  0.52574  1.0000
  C   C324      1.0  0.42005  0.84929  0.36517  1.0000
  H   H204      1.0  0.42068  0.85878  0.41656  1.0000
  C   C325      1.0  0.86552  0.42060  0.39510  1.0000
  C   C326      1.0  0.86666  0.44103  0.41837  1.0000
  C   C327      1.0  0.86975  0.45651  0.34858  1.0000
  H   H205      1.0  0.86322  0.40953  0.44538  1.0000
  N   N52       1.0  0.86442  0.44478  0.50687  1.0000
  H   H206      1.0  0.86208  0.43384  0.55306  1.0000
  H   H207      1.0  0.86418  0.45800  0.52683  1.0000
  C   C328      1.0  0.87206  0.47731  0.36634  1.0000
  H   H208      1.0  0.88156  0.48614  0.41769  1.0000
  C   C329      1.0  0.65276  0.44748  0.39626  1.0000
  C   C330      1.0  0.63232  0.42819  0.41955  1.0000
  C   C331      1.0  0.61688  0.41580  0.34977  1.0000
  H   H209      1.0  0.66380  0.45625  0.44654  1.0000
  N   N53       1.0  0.62851  0.42221  0.50805  1.0000
  H   H210      1.0  0.63942  0.43081  0.55424  1.0000
  H   H211      1.0  0.61528  0.40875  0.52802  1.0000
  C   C332      1.0  0.59607  0.39731  0.36754  1.0000
  H   H212      1.0  0.58721  0.39799  0.41887  1.0000
  C   C333      1.0  0.62593  0.20786  0.39617  1.0000
  C   C334      1.0  0.64521  0.20671  0.41930  1.0000
  C   C335      1.0  0.65762  0.20365  0.34943  1.0000
  H   H213      1.0  0.61715  0.21015  0.44650  1.0000
  N   N54       1.0  0.65118  0.20891  0.50776  1.0000
  H   H214      1.0  0.64256  0.21123  0.55402  1.0000
  H   H215      1.0  0.66463  0.20914  0.52763  1.0000
  C   C336      1.0  0.67611  0.20133  0.36706  1.0000
  H   H216      1.0  0.67542  0.19181  0.41841  1.0000
  C   C337      1.0  0.06373  0.32409  0.39330  1.0000
  C   C338      1.0  0.04079  0.31297  0.41763  1.0000
  C   C339      1.0  0.02452  0.30976  0.35125  1.0000
  H   H217      1.0  0.07527  0.32637  0.44135  1.0000
  N   N55       1.0  0.03527  0.30563  0.50410  1.0000
  H   H218      1.0  0.04659  0.30776  0.54802  1.0000
  H   H219      1.0  0.01987  0.29709  0.52399  1.0000
  C   C340      1.0  0.00199  0.30115  0.37253  1.0000
  H   H220      1.0  0.99841  0.30655  0.42858  1.0000
  C   C341      1.0  0.74928  0.74218  0.39444  1.0000
  C   C342      1.0  0.76039  0.73037  0.41875  1.0000
  C   C343      1.0  0.76363  0.71730  0.35237  1.0000
  H   H221      1.0  0.74698  0.75146  0.44248  1.0000
  N   N56       1.0  0.76769  0.73221  0.50519  1.0000
  H   H222      1.0  0.76555  0.74141  0.54911  1.0000
  H   H223      1.0  0.77623  0.72536  0.52506  1.0000
  C   C344      1.0  0.77224  0.70339  0.37362  1.0000
  H   H224      1.0  0.76684  0.69443  0.42975  1.0000
  C   C345      1.0  0.33116  0.00962  0.39336  1.0000
  C   C346      1.0  0.34294  0.03253  0.41784  1.0000
  C   C347      1.0  0.35609  0.04887  0.35161  1.0000
  H   H225      1.0  0.32183  0.99803  0.44131  1.0000
  N   N57       1.0  0.34102  0.03797  0.50430  1.0000
  H   H226      1.0  0.33176  0.02660  0.54810  1.0000
  H   H227      1.0  0.34784  0.05334  0.52427  1.0000
  C   C348      1.0  0.36999  0.07138  0.37304  1.0000
  H   H228      1.0  0.37889  0.07490  0.42923  1.0000
  C   C349      1.0  0.03243  0.72655  0.39296  1.0000
  C   C350      1.0  0.05536  0.73769  0.41711  1.0000
  C   C351      1.0  0.07166  0.74087  0.35067  1.0000
  H   H229      1.0  0.02087  0.72430  0.44106  1.0000
  N   N58       1.0  0.06085  0.74507  0.50348  1.0000
  H   H230      1.0  0.04951  0.74297  0.54743  1.0000
  H   H231      1.0  0.07624  0.75363  0.52322  1.0000
  C   C352      1.0  0.09418  0.74949  0.37181  1.0000
  H   H232      1.0  0.09774  0.74411  0.42792  1.0000
  C   C353      1.0  0.34681  0.30842  0.39407  1.0000
  C   C354      1.0  0.33567  0.32023  0.41823  1.0000
  C   C355      1.0  0.33254  0.33335  0.35180  1.0000
  H   H233      1.0  0.34903  0.29911  0.44215  1.0000
  N   N59       1.0  0.32824  0.31834  0.50460  1.0000
  H   H234      1.0  0.33031  0.30911  0.54855  1.0000
  H   H235      1.0  0.31968  0.32518  0.52436  1.0000
  C   C356      1.0  0.32391  0.34726  0.37292  1.0000
  H   H236      1.0  0.32925  0.35619  0.42907  1.0000
  C   C357      1.0  0.76494  0.04097  0.39397  1.0000
  C   C358      1.0  0.75313  0.01804  0.41828  1.0000
  C   C359      1.0  0.74008  0.00175  0.35190  1.0000
  H   H237      1.0  0.77420  0.05252  0.44203  1.0000
  N   N60       1.0  0.75493  0.01253  0.50474  1.0000
  H   H238      1.0  0.76412  0.02386  0.54866  1.0000
  H   H239      1.0  0.74808  0.99714  0.52460  1.0000
  C   C360      1.0  0.72616  0.97922  0.37315  1.0000
  H   H240      1.0  0.71717  0.97565  0.42923  1.0000
