data_image0
_chemical_formula_structural       C2NC2NC3H2NCHC2NC2NC3H2NCHCHNC6H3CNC3NCHNC6H3CNC3N2CHC3NCN2CHC3NCNC2NC2NC2NC2N2CHC3HC6H3C6H3NCHNCHC2NC2NC2NC2NC2NC2N2CHC3HC6H3C6H3NCHNCHC2NC2NC2NC2NC2NC2NC2NC2N2CHNCHNCHC6H3C6H3C6H3C6H3NCHNCHNCHC2NC2NC2NC2NC2NC2NC2NC2NC2NC2NC2NC2N2CHNCHNCHC6H3C6H3C6H3C6H3NCHNCHNCHC2NC2NC2NC2NC2NC2N
_chemical_formula_sum              "C216 N72 H72"
_cell_length_a       44.9762
_cell_length_b       44.9973
_cell_length_c       14.7705
_cell_angle_alpha    90
_cell_angle_beta     90
_cell_angle_gamma    119.989

_space_group_name_H-M_alt    "P 1"
_space_group_IT_number       1

loop_
  _space_group_symop_operation_xyz
  'x, y, z'

loop_
  _atom_site_type_symbol
  _atom_site_label
  _atom_site_symmetry_multiplicity
  _atom_site_fract_x
  _atom_site_fract_y
  _atom_site_fract_z
  _atom_site_occupancy
  C   C1        1.0  0.08193  0.04274  0.34662  1.0000
  C   C2        1.0  0.15379  0.07869  0.34975  1.0000
  N   N1        1.0  0.13610  0.06979  0.27035  1.0000
  C   C3        1.0  0.10122  0.05236  0.26513  1.0000
  C   C4        1.0  0.08739  0.04546  0.18495  1.0000
  N   N2        1.0  0.07502  0.03930  0.11439  1.0000
  C   C5        1.0  0.04548  0.02454  0.35030  1.0000
  C   C6        1.0  0.02709  0.04246  0.35015  1.0000
  C   C7        1.0  0.02705  0.48825  0.35022  1.0000
  H   H1        1.0  0.04019  0.47509  0.34879  1.0000
  H   H2        1.0  0.04026  0.06875  0.34875  1.0000
  N   N3        1.0  0.09972  0.05169  0.42595  1.0000
  C   C8        1.0  0.13458  0.06913  0.43071  1.0000
  H   H3        1.0  0.14634  0.07504  0.49255  1.0000
  C   C9        1.0  0.08193  0.54274  0.34662  1.0000
  C   C10       1.0  0.15379  0.57869  0.34975  1.0000
  N   N4        1.0  0.13610  0.56980  0.27035  1.0000
  C   C11       1.0  0.10122  0.55236  0.26513  1.0000
  C   C12       1.0  0.08739  0.54546  0.18495  1.0000
  N   N5        1.0  0.07503  0.53930  0.11439  1.0000
  C   C13       1.0  0.04548  0.52454  0.35030  1.0000
  C   C14       1.0  0.02709  0.54246  0.35015  1.0000
  C   C15       1.0  0.02705  0.98825  0.35022  1.0000
  H   H4        1.0  0.04019  0.97509  0.34879  1.0000
  H   H5        1.0  0.04026  0.56875  0.34875  1.0000
  N   N6        1.0  0.09972  0.55169  0.42595  1.0000
  C   C16       1.0  0.13458  0.56913  0.43071  1.0000
  H   H6        1.0  0.14634  0.57503  0.49255  1.0000
  C   C17       1.0  0.28135  0.07963  0.26693  1.0000
  H   H7        1.0  0.27320  0.08303  0.20519  1.0000
  N   N7        1.0  0.28092  0.20304  0.27248  1.0000
  C   C18       1.0  0.24469  0.09656  0.34708  1.0000
  C   C19       1.0  0.26238  0.13276  0.34778  1.0000
  C   C20       1.0  0.24482  0.15141  0.34902  1.0000
  C   C21       1.0  0.20856  0.13319  0.34985  1.0000
  C   C22       1.0  0.19013  0.09679  0.34906  1.0000
  C   C23       1.0  0.20842  0.07868  0.34765  1.0000
  H   H8        1.0  0.19559  0.14651  0.35127  1.0000
  H   H9        1.0  0.19535  0.05240  0.34748  1.0000
  H   H10       1.0  0.28876  0.14590  0.34795  1.0000
  C   C24       1.0  0.26483  0.08045  0.34742  1.0000
  N   N8        1.0  0.28082  0.08142  0.42650  1.0000
  C   C25       1.0  0.26521  0.18776  0.35162  1.0000
  C   C26       1.0  0.28151  0.20533  0.43272  1.0000
  C   C27       1.0  0.27220  0.19202  0.51316  1.0000
  N   N9        1.0  0.26398  0.18008  0.58391  1.0000
  C   C28       1.0  0.28135  0.57963  0.26693  1.0000
  H   H11       1.0  0.27320  0.58303  0.20519  1.0000
  N   N10       1.0  0.28092  0.70304  0.27248  1.0000
  C   C29       1.0  0.24469  0.59656  0.34708  1.0000
  C   C30       1.0  0.26238  0.63276  0.34778  1.0000
  C   C31       1.0  0.24482  0.65141  0.34902  1.0000
  C   C32       1.0  0.20856  0.63319  0.34985  1.0000
  C   C33       1.0  0.19013  0.59679  0.34906  1.0000
  C   C34       1.0  0.20842  0.57868  0.34765  1.0000
  H   H12       1.0  0.19559  0.64651  0.35127  1.0000
  H   H13       1.0  0.19535  0.55240  0.34748  1.0000
  H   H14       1.0  0.28876  0.64590  0.34795  1.0000
  C   C35       1.0  0.26483  0.58045  0.34742  1.0000
  N   N11       1.0  0.28082  0.58142  0.42650  1.0000
  C   C36       1.0  0.26522  0.68776  0.35162  1.0000
  C   C37       1.0  0.28151  0.70533  0.43272  1.0000
  C   C38       1.0  0.27220  0.69202  0.51316  1.0000
  N   N12       1.0  0.26398  0.68008  0.58391  1.0000
  N   N13       1.0  0.31252  0.08183  0.27267  1.0000
  C   C39       1.0  0.30978  0.23427  0.26643  1.0000
  H   H15       1.0  0.32145  0.24222  0.20478  1.0000
  C   C40       1.0  0.32781  0.08136  0.35174  1.0000
  C   C41       1.0  0.31026  0.08007  0.43289  1.0000
  C   C42       1.0  0.32354  0.08389  0.51333  1.0000
  N   N14       1.0  0.33546  0.08747  0.58407  1.0000
  C   C43       1.0  0.32720  0.25066  0.34688  1.0000
  N   N15       1.0  0.31232  0.23472  0.42612  1.0000
  N   N16       1.0  0.31252  0.58183  0.27267  1.0000
  C   C44       1.0  0.30978  0.73427  0.26643  1.0000
  H   H16       1.0  0.32145  0.74222  0.20478  1.0000
  C   C45       1.0  0.32782  0.58136  0.35174  1.0000
  C   C46       1.0  0.31026  0.58007  0.43289  1.0000
  C   C47       1.0  0.32354  0.58389  0.51333  1.0000
  N   N17       1.0  0.33546  0.58747  0.58407  1.0000
  C   C48       1.0  0.32720  0.75066  0.34688  1.0000
  N   N18       1.0  0.31233  0.73472  0.42612  1.0000
  C   C49       1.0  0.47261  0.04286  0.34664  1.0000
  C   C50       1.0  0.43690  0.07901  0.34983  1.0000
  N   N19       1.0  0.44581  0.07024  0.27042  1.0000
  C   C51       1.0  0.46315  0.05270  0.26517  1.0000
  C   C52       1.0  0.47008  0.04582  0.18498  1.0000
  N   N20       1.0  0.47626  0.03963  0.11440  1.0000
  C   C53       1.0  0.47250  0.43344  0.34665  1.0000
  C   C54       1.0  0.43651  0.36161  0.34981  1.0000
  N   N21       1.0  0.44528  0.37929  0.27042  1.0000
  C   C55       1.0  0.46275  0.41415  0.26517  1.0000
  C   C56       1.0  0.46965  0.42797  0.18499  1.0000
  N   N22       1.0  0.47585  0.44032  0.11441  1.0000
  N   N23       1.0  0.43373  0.23458  0.27251  1.0000
  C   C57       1.0  0.43597  0.20566  0.26649  1.0000
  H   H17       1.0  0.43255  0.19414  0.20471  1.0000
  C   C58       1.0  0.49079  0.02460  0.35030  1.0000
  C   C59       1.0  0.47287  0.48831  0.35018  1.0000
  C   C60       1.0  0.49074  0.46988  0.35032  1.0000
  H   H18       1.0  0.44657  0.47519  0.34879  1.0000
  C   C61       1.0  0.41904  0.15203  0.34696  1.0000
  C   C62       1.0  0.38282  0.13351  0.34765  1.0000
  C   C63       1.0  0.36417  0.09732  0.34910  1.0000
  C   C64       1.0  0.38240  0.07929  0.35006  1.0000
  C   C65       1.0  0.41881  0.09726  0.34916  1.0000
  C   C66       1.0  0.43693  0.13365  0.34756  1.0000
  H   H19       1.0  0.36908  0.05302  0.35160  1.0000
  H   H20       1.0  0.46322  0.14686  0.34725  1.0000
  H   H21       1.0  0.36967  0.14674  0.34772  1.0000
  C   C67       1.0  0.36347  0.27076  0.34706  1.0000
  C   C68       1.0  0.38199  0.25306  0.34779  1.0000
  C   C69       1.0  0.41820  0.27059  0.34918  1.0000
  C   C70       1.0  0.43624  0.30684  0.35008  1.0000
  C   C71       1.0  0.41827  0.32528  0.34915  1.0000
  C   C72       1.0  0.38186  0.30701  0.34757  1.0000
  H   H22       1.0  0.46252  0.31979  0.35159  1.0000
  H   H23       1.0  0.36865  0.32009  0.34722  1.0000
  H   H24       1.0  0.36875  0.22669  0.34787  1.0000
  N   N24       1.0  0.46364  0.05168  0.42598  1.0000
  C   C73       1.0  0.44629  0.06918  0.43077  1.0000
  H   H25       1.0  0.44035  0.07500  0.49262  1.0000
  N   N25       1.0  0.46368  0.41566  0.42598  1.0000
  C   C74       1.0  0.44624  0.38082  0.43076  1.0000
  H   H26       1.0  0.44041  0.36907  0.49261  1.0000
  C   C75       1.0  0.43419  0.25021  0.35182  1.0000
  C   C76       1.0  0.43517  0.18829  0.34682  1.0000
  N   N26       1.0  0.43411  0.20313  0.42614  1.0000
  C   C77       1.0  0.43547  0.23392  0.43287  1.0000
  C   C78       1.0  0.43149  0.24322  0.51334  1.0000
  N   N27       1.0  0.42778  0.25143  0.58411  1.0000
  C   C79       1.0  0.47261  0.54286  0.34664  1.0000
  C   C80       1.0  0.43690  0.57901  0.34983  1.0000
  N   N28       1.0  0.44581  0.57024  0.27042  1.0000
  C   C81       1.0  0.46315  0.55270  0.26517  1.0000
  C   C82       1.0  0.47008  0.54581  0.18498  1.0000
  N   N29       1.0  0.47625  0.53963  0.11440  1.0000
  C   C83       1.0  0.47250  0.93345  0.34665  1.0000
  C   C84       1.0  0.43651  0.86161  0.34981  1.0000
  N   N30       1.0  0.44528  0.87929  0.27042  1.0000
  C   C85       1.0  0.46276  0.91416  0.26517  1.0000
  C   C86       1.0  0.46965  0.92796  0.18499  1.0000
  N   N31       1.0  0.47585  0.94032  0.11441  1.0000
  N   N32       1.0  0.43373  0.73458  0.27251  1.0000
  C   C87       1.0  0.43597  0.70566  0.26649  1.0000
  H   H27       1.0  0.43255  0.69414  0.20471  1.0000
  C   C88       1.0  0.49079  0.52460  0.35030  1.0000
  C   C89       1.0  0.47287  0.98831  0.35018  1.0000
  C   C90       1.0  0.49074  0.96988  0.35032  1.0000
  H   H28       1.0  0.44657  0.97519  0.34879  1.0000
  C   C91       1.0  0.41904  0.65203  0.34696  1.0000
  C   C92       1.0  0.38282  0.63351  0.34765  1.0000
  C   C93       1.0  0.36417  0.59732  0.34910  1.0000
  C   C94       1.0  0.38241  0.57929  0.35006  1.0000
  C   C95       1.0  0.41881  0.59726  0.34916  1.0000
  C   C96       1.0  0.43693  0.63365  0.34756  1.0000
  H   H29       1.0  0.36908  0.55302  0.35160  1.0000
  H   H30       1.0  0.46322  0.64686  0.34725  1.0000
  H   H31       1.0  0.36967  0.64673  0.34772  1.0000
  C   C97       1.0  0.36347  0.77076  0.34706  1.0000
  C   C98       1.0  0.38199  0.75306  0.34779  1.0000
  C   C99       1.0  0.41820  0.77059  0.34918  1.0000
  C   C100      1.0  0.43624  0.80684  0.35008  1.0000
  C   C101      1.0  0.41827  0.82528  0.34915  1.0000
  C   C102      1.0  0.38186  0.80701  0.34757  1.0000
  H   H32       1.0  0.46252  0.81978  0.35159  1.0000
  H   H33       1.0  0.36865  0.82009  0.34722  1.0000
  H   H34       1.0  0.36875  0.72669  0.34787  1.0000
  N   N33       1.0  0.46364  0.55168  0.42598  1.0000
  C   C103      1.0  0.44629  0.56918  0.43077  1.0000
  H   H35       1.0  0.44035  0.57500  0.49262  1.0000
  N   N34       1.0  0.46368  0.91566  0.42598  1.0000
  C   C104      1.0  0.44624  0.88082  0.43076  1.0000
  H   H36       1.0  0.44041  0.86906  0.49261  1.0000
  C   C105      1.0  0.43418  0.75021  0.35182  1.0000
  C   C106      1.0  0.43517  0.68828  0.34682  1.0000
  N   N35       1.0  0.43411  0.70313  0.42614  1.0000
  C   C107      1.0  0.43547  0.73391  0.43287  1.0000
  C   C108      1.0  0.43149  0.74322  0.51334  1.0000
  N   N36       1.0  0.42778  0.75143  0.58411  1.0000
  C   C109      1.0  0.58193  0.04274  0.34662  1.0000
  C   C110      1.0  0.65379  0.07869  0.34975  1.0000
  N   N37       1.0  0.63610  0.06979  0.27035  1.0000
  C   C111      1.0  0.60122  0.05236  0.26513  1.0000
  C   C112      1.0  0.58740  0.04546  0.18495  1.0000
  N   N38       1.0  0.57503  0.03930  0.11439  1.0000
  C   C113      1.0  0.97261  0.04286  0.34664  1.0000
  C   C114      1.0  0.93690  0.07901  0.34983  1.0000
  N   N39       1.0  0.94581  0.07024  0.27042  1.0000
  C   C115      1.0  0.96315  0.05270  0.26517  1.0000
  C   C116      1.0  0.97008  0.04582  0.18498  1.0000
  N   N40       1.0  0.97626  0.03963  0.11440  1.0000
  C   C117      1.0  0.97250  0.43344  0.34665  1.0000
  C   C118      1.0  0.93651  0.36161  0.34981  1.0000
  N   N41       1.0  0.94528  0.37929  0.27042  1.0000
  C   C119      1.0  0.96275  0.41415  0.26517  1.0000
  C   C120      1.0  0.96965  0.42797  0.18499  1.0000
  N   N42       1.0  0.97585  0.44032  0.11441  1.0000
  N   N43       1.0  0.81252  0.08183  0.27267  1.0000
  C   C121      1.0  0.78135  0.07963  0.26693  1.0000
  H   H37       1.0  0.77320  0.08303  0.20519  1.0000
  N   N44       1.0  0.93373  0.23458  0.27251  1.0000
  C   C122      1.0  0.93597  0.20566  0.26649  1.0000
  H   H38       1.0  0.93255  0.19414  0.20471  1.0000
  N   N45       1.0  0.78092  0.20304  0.27248  1.0000
  C   C123      1.0  0.80978  0.23427  0.26643  1.0000
  H   H39       1.0  0.82145  0.24222  0.20478  1.0000
  C   C124      1.0  0.54548  0.02454  0.35030  1.0000
  C   C125      1.0  0.52709  0.04246  0.35015  1.0000
  C   C126      1.0  0.99079  0.02460  0.35030  1.0000
  C   C127      1.0  0.97287  0.48831  0.35018  1.0000
  C   C128      1.0  0.99074  0.46988  0.35032  1.0000
  C   C129      1.0  0.52705  0.48825  0.35022  1.0000
  H   H40       1.0  0.94657  0.47519  0.34879  1.0000
  H   H41       1.0  0.54019  0.47509  0.34879  1.0000
  H   H42       1.0  0.54026  0.06875  0.34875  1.0000
  C   C130      1.0  0.74469  0.09656  0.34708  1.0000
  C   C131      1.0  0.76238  0.13276  0.34778  1.0000
  C   C132      1.0  0.74482  0.15141  0.34902  1.0000
  C   C133      1.0  0.70856  0.13319  0.34985  1.0000
  C   C134      1.0  0.69013  0.09679  0.34906  1.0000
  C   C135      1.0  0.70842  0.07868  0.34765  1.0000
  H   H43       1.0  0.69559  0.14651  0.35127  1.0000
  H   H44       1.0  0.69535  0.05240  0.34748  1.0000
  H   H45       1.0  0.78876  0.14590  0.34795  1.0000
  C   C136      1.0  0.91904  0.15203  0.34696  1.0000
  C   C137      1.0  0.88282  0.13351  0.34765  1.0000
  C   C138      1.0  0.86417  0.09732  0.34910  1.0000
  C   C139      1.0  0.88240  0.07929  0.35006  1.0000
  C   C140      1.0  0.91881  0.09726  0.34916  1.0000
  C   C141      1.0  0.93693  0.13365  0.34756  1.0000
  H   H46       1.0  0.86908  0.05302  0.35160  1.0000
  H   H47       1.0  0.96322  0.14686  0.34725  1.0000
  H   H48       1.0  0.86967  0.14674  0.34772  1.0000
  C   C142      1.0  0.86347  0.27076  0.34706  1.0000
  C   C143      1.0  0.88199  0.25306  0.34779  1.0000
  C   C144      1.0  0.91820  0.27059  0.34918  1.0000
  C   C145      1.0  0.93624  0.30684  0.35008  1.0000
  C   C146      1.0  0.91827  0.32528  0.34915  1.0000
  C   C147      1.0  0.88186  0.30701  0.34757  1.0000
  H   H49       1.0  0.96252  0.31979  0.35159  1.0000
  H   H50       1.0  0.86865  0.32009  0.34722  1.0000
  H   H51       1.0  0.86875  0.22669  0.34787  1.0000
  N   N46       1.0  0.59972  0.05169  0.42595  1.0000
  C   C148      1.0  0.63458  0.06913  0.43071  1.0000
  H   H52       1.0  0.64634  0.07504  0.49255  1.0000
  N   N47       1.0  0.96364  0.05168  0.42598  1.0000
  C   C149      1.0  0.94629  0.06918  0.43077  1.0000
  H   H53       1.0  0.94035  0.07500  0.49262  1.0000
  N   N48       1.0  0.96368  0.41566  0.42598  1.0000
  C   C150      1.0  0.94624  0.38082  0.43076  1.0000
  H   H54       1.0  0.94041  0.36907  0.49261  1.0000
  C   C151      1.0  0.82782  0.08136  0.35174  1.0000
  C   C152      1.0  0.76483  0.08045  0.34742  1.0000
  N   N49       1.0  0.78082  0.08142  0.42650  1.0000
  C   C153      1.0  0.81026  0.08007  0.43289  1.0000
  C   C154      1.0  0.82354  0.08389  0.51333  1.0000
  N   N50       1.0  0.83546  0.08747  0.58407  1.0000
  C   C155      1.0  0.93419  0.25021  0.35182  1.0000
  C   C156      1.0  0.93517  0.18829  0.34682  1.0000
  N   N51       1.0  0.93411  0.20313  0.42614  1.0000
  C   C157      1.0  0.93547  0.23392  0.43287  1.0000
  C   C158      1.0  0.93149  0.24322  0.51334  1.0000
  N   N52       1.0  0.92778  0.25143  0.58411  1.0000
  C   C159      1.0  0.76521  0.18776  0.35162  1.0000
  C   C160      1.0  0.82720  0.25066  0.34688  1.0000
  N   N53       1.0  0.81232  0.23472  0.42612  1.0000
  C   C161      1.0  0.78151  0.20533  0.43272  1.0000
  C   C162      1.0  0.77220  0.19202  0.51316  1.0000
  N   N54       1.0  0.76398  0.18008  0.58391  1.0000
  C   C163      1.0  0.58193  0.54274  0.34662  1.0000
  C   C164      1.0  0.65379  0.57869  0.34975  1.0000
  N   N55       1.0  0.63610  0.56980  0.27035  1.0000
  C   C165      1.0  0.60122  0.55236  0.26513  1.0000
  C   C166      1.0  0.58740  0.54546  0.18495  1.0000
  N   N56       1.0  0.57503  0.53930  0.11439  1.0000
  C   C167      1.0  0.97261  0.54286  0.34664  1.0000
  C   C168      1.0  0.93690  0.57901  0.34983  1.0000
  N   N57       1.0  0.94581  0.57024  0.27042  1.0000
  C   C169      1.0  0.96315  0.55270  0.26517  1.0000
  C   C170      1.0  0.97008  0.54581  0.18498  1.0000
  N   N58       1.0  0.97625  0.53963  0.11440  1.0000
  C   C171      1.0  0.97250  0.93345  0.34665  1.0000
  C   C172      1.0  0.93651  0.86161  0.34981  1.0000
  N   N59       1.0  0.94528  0.87929  0.27042  1.0000
  C   C173      1.0  0.96276  0.91416  0.26517  1.0000
  C   C174      1.0  0.96965  0.92796  0.18499  1.0000
  N   N60       1.0  0.97585  0.94032  0.11441  1.0000
  N   N61       1.0  0.81252  0.58183  0.27267  1.0000
  C   C175      1.0  0.78135  0.57963  0.26693  1.0000
  H   H55       1.0  0.77320  0.58303  0.20519  1.0000
  N   N62       1.0  0.93373  0.73458  0.27251  1.0000
  C   C176      1.0  0.93596  0.70566  0.26649  1.0000
  H   H56       1.0  0.93255  0.69414  0.20471  1.0000
  N   N63       1.0  0.78093  0.70304  0.27248  1.0000
  C   C177      1.0  0.80978  0.73427  0.26643  1.0000
  H   H57       1.0  0.82145  0.74222  0.20478  1.0000
  C   C178      1.0  0.54548  0.52454  0.35030  1.0000
  C   C179      1.0  0.52709  0.54246  0.35015  1.0000
  C   C180      1.0  0.99079  0.52460  0.35030  1.0000
  C   C181      1.0  0.97287  0.98831  0.35018  1.0000
  C   C182      1.0  0.99074  0.96988  0.35032  1.0000
  C   C183      1.0  0.52705  0.98825  0.35022  1.0000
  H   H58       1.0  0.94657  0.97519  0.34879  1.0000
  H   H59       1.0  0.54019  0.97509  0.34879  1.0000
  H   H60       1.0  0.54026  0.56875  0.34875  1.0000
  C   C184      1.0  0.74469  0.59656  0.34708  1.0000
  C   C185      1.0  0.76238  0.63276  0.34778  1.0000
  C   C186      1.0  0.74482  0.65141  0.34902  1.0000
  C   C187      1.0  0.70856  0.63319  0.34985  1.0000
  C   C188      1.0  0.69013  0.59679  0.34906  1.0000
  C   C189      1.0  0.70842  0.57868  0.34765  1.0000
  H   H61       1.0  0.69559  0.64651  0.35127  1.0000
  H   H62       1.0  0.69535  0.55240  0.34748  1.0000
  H   H63       1.0  0.78876  0.64590  0.34795  1.0000
  C   C190      1.0  0.91904  0.65203  0.34696  1.0000
  C   C191      1.0  0.88282  0.63351  0.34765  1.0000
  C   C192      1.0  0.86417  0.59732  0.34910  1.0000
  C   C193      1.0  0.88241  0.57929  0.35006  1.0000
  C   C194      1.0  0.91881  0.59726  0.34916  1.0000
  C   C195      1.0  0.93693  0.63365  0.34756  1.0000
  H   H64       1.0  0.86908  0.55302  0.35160  1.0000
  H   H65       1.0  0.96322  0.64686  0.34725  1.0000
  H   H66       1.0  0.86967  0.64673  0.34772  1.0000
  C   C196      1.0  0.86347  0.77076  0.34706  1.0000
  C   C197      1.0  0.88199  0.75306  0.34779  1.0000
  C   C198      1.0  0.91820  0.77059  0.34918  1.0000
  C   C199      1.0  0.93624  0.80684  0.35008  1.0000
  C   C200      1.0  0.91827  0.82528  0.34915  1.0000
  C   C201      1.0  0.88186  0.80701  0.34757  1.0000
  H   H67       1.0  0.96252  0.81978  0.35159  1.0000
  H   H68       1.0  0.86865  0.82009  0.34722  1.0000
  H   H69       1.0  0.86875  0.72669  0.34787  1.0000
  N   N64       1.0  0.59972  0.55169  0.42595  1.0000
  C   C202      1.0  0.63458  0.56913  0.43071  1.0000
  H   H70       1.0  0.64634  0.57503  0.49255  1.0000
  N   N65       1.0  0.96364  0.55168  0.42598  1.0000
  C   C203      1.0  0.94629  0.56918  0.43077  1.0000
  H   H71       1.0  0.94035  0.57500  0.49262  1.0000
  N   N66       1.0  0.96368  0.91566  0.42598  1.0000
  C   C204      1.0  0.94624  0.88082  0.43076  1.0000
  H   H72       1.0  0.94041  0.86906  0.49261  1.0000
  C   C205      1.0  0.82782  0.58136  0.35174  1.0000
  C   C206      1.0  0.76484  0.58045  0.34742  1.0000
  N   N67       1.0  0.78082  0.58142  0.42650  1.0000
  C   C207      1.0  0.81026  0.58007  0.43289  1.0000
  C   C208      1.0  0.82354  0.58389  0.51333  1.0000
  N   N68       1.0  0.83546  0.58747  0.58407  1.0000
  C   C209      1.0  0.93419  0.75021  0.35182  1.0000
  C   C210      1.0  0.93517  0.68828  0.34682  1.0000
  N   N69       1.0  0.93411  0.70313  0.42614  1.0000
  C   C211      1.0  0.93547  0.73391  0.43287  1.0000
  C   C212      1.0  0.93149  0.74322  0.51334  1.0000
  N   N70       1.0  0.92778  0.75143  0.58411  1.0000
  C   C213      1.0  0.76522  0.68776  0.35162  1.0000
  C   C214      1.0  0.82720  0.75066  0.34688  1.0000
  N   N71       1.0  0.81232  0.73472  0.42612  1.0000
  C   C215      1.0  0.78151  0.70533  0.43272  1.0000
  C   C216      1.0  0.77220  0.69202  0.51316  1.0000
  N   N72       1.0  0.76398  0.68008  0.58391  1.0000
