data_image0
_chemical_formula_structural       C3N2O4CHC3N2O4CHC3N2O4CHC3H2CHC3H2CHC3H2CHC3N2O4CHC3N2O4CHC3N2O4CHC3N2O4CHC3N2O4CHC3N2O4CHC3H2CHC3H2CHC3H2CHC3H2CHC3H2CHC3H2CHC3N2O4CHC3N2O4CHC3N2O4CHC3N2O4CHC3N2O4CHC3N2O4CHC6H3N3C6H3N3C6H3N3C6H3N3C6H3N3C6H3N3C6H3N3C6H3N3C6H3N3C6H3N3C6H3N3C6H3N3C6H3N3C6H3N3C6H3N3C6H3N3C3H2CHC3H2CHC3H2CHC3N2O4CHC3N2O4CHC3N2O4CHC3H2CHC3H2CHC3H2CHC3H2CHC3H2CHC3H2CHC3N2O4CHC3N2O4CHC3N2O4CHC3N2O4CHC3N2O4CHC3N2O4CHC3H2CHC3H2CHC3H2CHC3H2CHC3H2CHC3H2CH
_chemical_formula_sum              "C288 N96 O96 H144"
_cell_length_a       64.3639
_cell_length_b       64.3639
_cell_length_c       14.6858
_cell_angle_alpha    90
_cell_angle_beta     90
_cell_angle_gamma    120

_space_group_name_H-M_alt    "P 1"
_space_group_IT_number       1

loop_
  _space_group_symop_operation_xyz
  'x, y, z'

loop_
  _atom_site_type_symbol
  _atom_site_label
  _atom_site_symmetry_multiplicity
  _atom_site_fract_x
  _atom_site_fract_y
  _atom_site_fract_z
  _atom_site_occupancy
  C   C1        1.0  0.01069  0.13340  0.35141  1.0000
  C   C2        1.0  0.01489  0.12308  0.27252  1.0000
  C   C3        1.0  0.01511  0.10079  0.27808  1.0000
  N   N1        1.0  0.01789  0.13577  0.19010  1.0000
  N   N2        1.0  0.01823  0.08922  0.20151  1.0000
  O   O1        1.0  0.03809  0.14342  0.15405  1.0000
  O   O2        1.0  0.03839  0.10112  0.16442  1.0000
  O   O3        1.0  0.00147  0.12457  0.13320  1.0000
  O   O4        1.0  0.00179  0.08250  0.14353  1.0000
  C   C4        1.0  0.00468  0.15167  0.34627  1.0000
  H   H1        1.0  0.98750  0.14620  0.33487  1.0000
  C   C5        1.0  0.89335  0.88268  0.35164  1.0000
  C   C6        1.0  0.90363  0.89716  0.27264  1.0000
  C   C7        1.0  0.92592  0.91967  0.27804  1.0000
  N   N3        1.0  0.89093  0.88740  0.19028  1.0000
  N   N4        1.0  0.93747  0.93431  0.20132  1.0000
  O   O5        1.0  0.88326  0.89992  0.15409  1.0000
  O   O6        1.0  0.92556  0.94254  0.16406  1.0000
  O   O7        1.0  0.90214  0.88216  0.13346  1.0000
  O   O8        1.0  0.94420  0.92457  0.14350  1.0000
  C   C8        1.0  0.87509  0.85838  0.34674  1.0000
  H   H2        1.0  0.88059  0.84666  0.33615  1.0000
  C   C9        1.0  0.14405  0.01607  0.35206  1.0000
  C   C10       1.0  0.12959  0.01180  0.27298  1.0000
  C   C11       1.0  0.10707  0.01157  0.27815  1.0000
  N   N5        1.0  0.13935  0.00875  0.19084  1.0000
  N   N6        1.0  0.09244  0.00842  0.20135  1.0000
  O   O9        1.0  0.12682  0.98852  0.15496  1.0000
  O   O10       1.0  0.08421  0.98824  0.16438  1.0000
  O   O11       1.0  0.14458  0.02512  0.13369  1.0000
  O   O12       1.0  0.10219  0.02484  0.14332  1.0000
  C   C12       1.0  0.16836  0.02214  0.34757  1.0000
  H   H3        1.0  0.18012  0.03943  0.33879  1.0000
  C   C13       1.0  0.08589  0.30270  0.34524  1.0000
  C   C14       1.0  0.09761  0.31776  0.26972  1.0000
  C   C15       1.0  0.11598  0.34177  0.28068  1.0000
  H   H4        1.0  0.12278  0.35225  0.22377  1.0000
  H   H5        1.0  0.09189  0.31172  0.20484  1.0000
  C   C16       1.0  0.06453  0.28105  0.32868  1.0000
  H   H6        1.0  0.05268  0.28215  0.28839  1.0000
  C   C17       1.0  0.72405  0.78860  0.34532  1.0000
  C   C18       1.0  0.70900  0.78520  0.26973  1.0000
  C   C19       1.0  0.68498  0.77956  0.28063  1.0000
  H   H7        1.0  0.67450  0.77585  0.22370  1.0000
  H   H8        1.0  0.71503  0.78549  0.20487  1.0000
  C   C20       1.0  0.74569  0.78887  0.32879  1.0000
  H   H9        1.0  0.74458  0.77590  0.28856  1.0000
  C   C21       1.0  0.23808  0.94081  0.34525  1.0000
  C   C22       1.0  0.24148  0.92915  0.26965  1.0000
  C   C23       1.0  0.24712  0.91077  0.28049  1.0000
  H   H10       1.0  0.25091  0.90407  0.22355  1.0000
  H   H11       1.0  0.24125  0.93494  0.20482  1.0000
  C   C24       1.0  0.23787  0.96221  0.32877  1.0000
  H   H12       1.0  0.25090  0.97409  0.28883  1.0000
  C   C25       1.0  0.35636  0.11842  0.33786  1.0000
  C   C26       1.0  0.34138  0.10599  0.26233  1.0000
  C   C27       1.0  0.31685  0.08775  0.27542  1.0000
  N   N7        1.0  0.35207  0.11221  0.17458  1.0000
  N   N8        1.0  0.30385  0.07569  0.19615  1.0000
  O   O13       1.0  0.34213  0.12038  0.12383  1.0000
  O   O14       1.0  0.28643  0.07890  0.18159  1.0000
  O   O15       1.0  0.35247  0.09501  0.13578  1.0000
  O   O16       1.0  0.29700  0.05367  0.19644  1.0000
  C   C28       1.0  0.38131  0.13282  0.32809  1.0000
  H   H13       1.0  0.38955  0.12587  0.29268  1.0000
  C   C29       1.0  0.78335  0.67037  0.33777  1.0000
  C   C30       1.0  0.78590  0.68537  0.26228  1.0000
  C   C31       1.0  0.79219  0.70989  0.27546  1.0000
  N   N9        1.0  0.78145  0.67470  0.17448  1.0000
  N   N10       1.0  0.79314  0.72291  0.19624  1.0000
  O   O17       1.0  0.79957  0.68466  0.12377  1.0000
  O   O18       1.0  0.81377  0.74031  0.18166  1.0000
  O   O19       1.0  0.76386  0.67431  0.13566  1.0000
  O   O20       1.0  0.77798  0.72977  0.19656  1.0000
  C   C32       1.0  0.77285  0.64542  0.32783  1.0000
  H   H14       1.0  0.75772  0.63718  0.29204  1.0000
  C   C33       1.0  0.90829  0.24329  0.33792  1.0000
  C   C34       1.0  0.92073  0.24074  0.26240  1.0000
  C   C35       1.0  0.93897  0.23445  0.27548  1.0000
  N   N11       1.0  0.91450  0.24519  0.17462  1.0000
  N   N12       1.0  0.95103  0.23351  0.19622  1.0000
  O   O21       1.0  0.90633  0.22706  0.12393  1.0000
  O   O22       1.0  0.94783  0.21289  0.18165  1.0000
  O   O23       1.0  0.93168  0.26277  0.13576  1.0000
  O   O24       1.0  0.97305  0.24869  0.19648  1.0000
  C   C36       1.0  0.89388  0.25382  0.32806  1.0000
  H   H15       1.0  0.90080  0.26899  0.29251  1.0000
  C   C37       1.0  0.28310  0.47729  0.34044  1.0000
  C   C38       1.0  0.29896  0.48699  0.26469  1.0000
  C   C39       1.0  0.32381  0.49396  0.27390  1.0000
  N   N13       1.0  0.28864  0.48885  0.18182  1.0000
  N   N14       1.0  0.34040  0.50307  0.20070  1.0000
  O   O25       1.0  0.29673  0.50998  0.15460  1.0000
  O   O26       1.0  0.34381  0.52272  0.16999  1.0000
  O   O27       1.0  0.28888  0.47571  0.11921  1.0000
  O   O28       1.0  0.33583  0.48828  0.13753  1.0000
  C   C40       1.0  0.25960  0.47303  0.33612  1.0000
  H   H16       1.0  0.25759  0.48633  0.31191  1.0000
  C   C41       1.0  0.54943  0.81118  0.34057  1.0000
  C   C42       1.0  0.53975  0.81736  0.26481  1.0000
  C   C43       1.0  0.53278  0.83523  0.27401  1.0000
  N   N15       1.0  0.53789  0.80517  0.18196  1.0000
  N   N16       1.0  0.52369  0.84272  0.20081  1.0000
  O   O29       1.0  0.51675  0.79213  0.15473  1.0000
  O   O30       1.0  0.50404  0.82649  0.17005  1.0000
  O   O31       1.0  0.55102  0.81853  0.11934  1.0000
  O   O32       1.0  0.53849  0.85294  0.13766  1.0000
  C   C44       1.0  0.55369  0.79194  0.33629  1.0000
  H   H17       1.0  0.54039  0.77663  0.31214  1.0000
  C   C45       1.0  0.21559  0.74362  0.34058  1.0000
  C   C46       1.0  0.20941  0.72775  0.26489  1.0000
  C   C47       1.0  0.19154  0.70291  0.27418  1.0000
  N   N17       1.0  0.22160  0.73805  0.18200  1.0000
  N   N18       1.0  0.18406  0.68630  0.20105  1.0000
  O   O33       1.0  0.23463  0.72994  0.15484  1.0000
  O   O34       1.0  0.20029  0.68287  0.17043  1.0000
  O   O35       1.0  0.20823  0.73780  0.11935  1.0000
  O   O36       1.0  0.17385  0.69086  0.13781  1.0000
  C   C48       1.0  0.23480  0.76714  0.33613  1.0000
  H   H18       1.0  0.25011  0.76918  0.31171  1.0000
  C   C49       1.0  0.49723  0.32773  0.34885  1.0000
  C   C50       1.0  0.48717  0.31158  0.27508  1.0000
  C   C51       1.0  0.48013  0.28718  0.28408  1.0000
  H   H19       1.0  0.47363  0.27634  0.22792  1.0000
  H   H20       1.0  0.48509  0.31755  0.21286  1.0000
  C   C52       1.0  0.50265  0.35150  0.33611  1.0000
  H   H21       1.0  0.49041  0.35416  0.30525  1.0000
  C   C53       1.0  0.85170  0.52939  0.34890  1.0000
  C   C54       1.0  0.84560  0.53945  0.27512  1.0000
  C   C55       1.0  0.82827  0.54653  0.28416  1.0000
  H   H22       1.0  0.82390  0.55298  0.22796  1.0000
  H   H23       1.0  0.85359  0.54147  0.21284  1.0000
  C   C56       1.0  0.87003  0.52396  0.33613  1.0000
  H   H24       1.0  0.88492  0.53618  0.30518  1.0000
  C   C57       1.0  0.69896  0.17484  0.34896  1.0000
  C   C58       1.0  0.71511  0.18093  0.27519  1.0000
  C   C59       1.0  0.73952  0.19828  0.28420  1.0000
  H   H25       1.0  0.75035  0.20264  0.22801  1.0000
  H   H26       1.0  0.70914  0.17292  0.21294  1.0000
  C   C60       1.0  0.67520  0.15650  0.33621  1.0000
  H   H27       1.0  0.67253  0.14160  0.30538  1.0000
  C   C61       1.0  0.15432  0.53761  0.35081  1.0000
  C   C62       1.0  0.15694  0.52551  0.27513  1.0000
  C   C63       1.0  0.16669  0.51036  0.28459  1.0000
  H   H28       1.0  0.16874  0.50240  0.22751  1.0000
  H   H29       1.0  0.15174  0.52765  0.21145  1.0000
  C   C64       1.0  0.14235  0.55039  0.33728  1.0000
  H   H30       1.0  0.12646  0.54173  0.30664  1.0000
  C   C65       1.0  0.48913  0.62208  0.35132  1.0000
  C   C66       1.0  0.50121  0.63678  0.27561  1.0000
  C   C67       1.0  0.51636  0.66169  0.28504  1.0000
  H   H31       1.0  0.52431  0.67169  0.22792  1.0000
  H   H32       1.0  0.49907  0.62944  0.21193  1.0000
  C   C68       1.0  0.47636  0.59732  0.33779  1.0000
  H   H33       1.0  0.48503  0.59010  0.30717  1.0000
  C   C69       1.0  0.40466  0.87241  0.35130  1.0000
  C   C70       1.0  0.38996  0.86980  0.27560  1.0000
  C   C71       1.0  0.36506  0.86006  0.28501  1.0000
  H   H34       1.0  0.35505  0.85799  0.22789  1.0000
  H   H35       1.0  0.39730  0.87499  0.21192  1.0000
  C   C72       1.0  0.42942  0.88441  0.33779  1.0000
  H   H36       1.0  0.43664  0.90031  0.30718  1.0000
  C   C73       1.0  0.51104  0.16832  0.33761  1.0000
  C   C74       1.0  0.52293  0.16573  0.26049  1.0000
  C   C75       1.0  0.53844  0.15595  0.27016  1.0000
  N   N19       1.0  0.51834  0.17282  0.17465  1.0000
  N   N20       1.0  0.54883  0.15319  0.18917  1.0000
  O   O37       1.0  0.50832  0.15557  0.11994  1.0000
  O   O38       1.0  0.54329  0.13182  0.17398  1.0000
  O   O39       1.0  0.53701  0.18949  0.13908  1.0000
  O   O40       1.0  0.57120  0.16656  0.18716  1.0000
  C   C76       1.0  0.49765  0.17985  0.33096  1.0000
  H   H37       1.0  0.50565  0.19598  0.30212  1.0000
  C   C77       1.0  0.67859  0.51569  0.33760  1.0000
  C   C78       1.0  0.66410  0.50377  0.26051  1.0000
  C   C79       1.0  0.63881  0.48824  0.27022  1.0000
  N   N21       1.0  0.67577  0.50831  0.17467  1.0000
  N   N22       1.0  0.62566  0.47781  0.18927  1.0000
  O   O41       1.0  0.66853  0.51831  0.11985  1.0000
  O   O42       1.0  0.60982  0.48333  0.17396  1.0000
  O   O43       1.0  0.67377  0.48963  0.13924  1.0000
  O   O44       1.0  0.61667  0.45544  0.18739  1.0000
  C   C80       1.0  0.70350  0.52910  0.33088  1.0000
  H   H38       1.0  0.71163  0.52114  0.30177  1.0000
  C   C81       1.0  0.85832  0.34802  0.33777  1.0000
  C   C82       1.0  0.86090  0.36251  0.26065  1.0000
  C   C83       1.0  0.87065  0.38780  0.27034  1.0000
  N   N23       1.0  0.85382  0.35084  0.17481  1.0000
  N   N24       1.0  0.87340  0.40094  0.18937  1.0000
  O   O45       1.0  0.87108  0.35808  0.12009  1.0000
  O   O46       1.0  0.89476  0.41679  0.17417  1.0000
  O   O47       1.0  0.83714  0.35281  0.13924  1.0000
  O   O48       1.0  0.86001  0.40992  0.18736  1.0000
  C   C84       1.0  0.84681  0.32311  0.33107  1.0000
  H   H39       1.0  0.83070  0.31497  0.30215  1.0000
  C   C85       1.0  0.99010  0.53270  0.33175  1.0000
  C   C86       1.0  0.00610  0.54162  0.25640  1.0000
  C   C87       1.0  0.03145  0.55432  0.27054  1.0000
  N   N25       1.0  0.99581  0.53681  0.16784  1.0000
  N   N26       1.0  0.04593  0.56140  0.19116  1.0000
  O   O49       1.0  0.00110  0.55566  0.12466  1.0000
  O   O50       1.0  0.05842  0.58378  0.18336  1.0000
  O   O51       1.0  0.00132  0.52384  0.12161  1.0000
  O   O52       1.0  0.05880  0.55189  0.18420  1.0000
  C   C88       1.0  0.96579  0.51649  0.31909  1.0000
  H   H40       1.0  0.96151  0.50323  0.27485  1.0000
  C   C89       1.0  0.49388  0.46286  0.33335  1.0000
  C   C90       1.0  0.48435  0.46947  0.25850  1.0000
  C   C91       1.0  0.47165  0.48217  0.27392  1.0000
  N   N27       1.0  0.48855  0.46313  0.17059  1.0000
  N   N28       1.0  0.46287  0.49041  0.20212  1.0000
  O   O53       1.0  0.46980  0.44844  0.12948  1.0000
  O   O54       1.0  0.44680  0.47390  0.15522  1.0000
  O   O55       1.0  0.50167  0.48070  0.12072  1.0000
  O   O56       1.0  0.47895  0.50596  0.15226  1.0000
  C   C92       1.0  0.51007  0.45475  0.31996  1.0000
  H   H41       1.0  0.52326  0.46374  0.27547  1.0000
  C   C93       1.0  0.56381  0.03640  0.33337  1.0000
  C   C94       1.0  0.55719  0.02025  0.25852  1.0000
  C   C95       1.0  0.54450  0.99486  0.27397  1.0000
  N   N29       1.0  0.56353  0.03078  0.17059  1.0000
  N   N30       1.0  0.53625  0.97783  0.20219  1.0000
  O   O57       1.0  0.57822  0.02672  0.12951  1.0000
  O   O58       1.0  0.55275  0.97825  0.15528  1.0000
  O   O59       1.0  0.54596  0.02632  0.12071  1.0000
  O   O60       1.0  0.52069  0.97835  0.15235  1.0000
  C   C96       1.0  0.57195  0.06070  0.31988  1.0000
  H   H42       1.0  0.56299  0.06492  0.27529  1.0000
  C   C97       1.0  0.03776  0.00944  0.34819  1.0000
  C   C98       1.0  0.01480  0.98836  0.34769  1.0000
  C   C99       1.0  0.99299  0.98898  0.34829  1.0000
  C   C100      1.0  0.99488  0.01194  0.34763  1.0000
  C   C101      1.0  0.01731  0.03375  0.34822  1.0000
  C   C102      1.0  0.03838  0.03186  0.34757  1.0000
  H   H43       1.0  0.97943  0.01278  0.34552  1.0000
  H   H44       1.0  0.05467  0.04732  0.34539  1.0000
  H   H45       1.0  0.01396  0.97207  0.34564  1.0000
  N   N31       1.0  0.05763  0.00704  0.34487  1.0000
  N   N32       1.0  0.97073  0.96911  0.34486  1.0000
  N   N33       1.0  0.01969  0.05600  0.34464  1.0000
  C   C103      1.0  0.99349  0.21550  0.35076  1.0000
  C   C104      1.0  0.99482  0.19414  0.34883  1.0000
  C   C105      1.0  0.01707  0.19436  0.35286  1.0000
  C   C106      1.0  0.03832  0.21716  0.35719  1.0000
  C   C107      1.0  0.03800  0.23904  0.35531  1.0000
  C   C108      1.0  0.01533  0.23766  0.35321  1.0000
  H   H46       1.0  0.05456  0.21788  0.36106  1.0000
  H   H47       1.0  0.01468  0.25321  0.35465  1.0000
  H   H48       1.0  0.97915  0.17808  0.34697  1.0000
  N   N34       1.0  0.97196  0.21447  0.34850  1.0000
  N   N35       1.0  0.01941  0.17448  0.35499  1.0000
  N   N36       1.0  0.05864  0.26028  0.36283  1.0000
  C   C109      1.0  0.81124  0.78336  0.35083  1.0000
  C   C110      1.0  0.83260  0.80607  0.34888  1.0000
  C   C111      1.0  0.83238  0.82809  0.35279  1.0000
  C   C112      1.0  0.80959  0.82655  0.35711  1.0000
  C   C113      1.0  0.78771  0.80435  0.35529  1.0000
  C   C114      1.0  0.78908  0.78306  0.35329  1.0000
  H   H49       1.0  0.80887  0.84207  0.36093  1.0000
  H   H50       1.0  0.77353  0.76686  0.35479  1.0000
  H   H51       1.0  0.84866  0.80645  0.34692  1.0000
  N   N37       1.0  0.81226  0.76287  0.34859  1.0000
  N   N38       1.0  0.85227  0.85032  0.35481  1.0000
  N   N39       1.0  0.76647  0.80376  0.36283  1.0000
  C   C115      1.0  0.24337  0.03325  0.35076  1.0000
  C   C116      1.0  0.22067  0.03193  0.34865  1.0000
  C   C117      1.0  0.19864  0.00969  0.35250  1.0000
  C   C118      1.0  0.20017  0.98842  0.35676  1.0000
  C   C119      1.0  0.22237  0.98874  0.35513  1.0000
  C   C120      1.0  0.24367  0.01140  0.35324  1.0000
  H   H52       1.0  0.18465  0.97219  0.36044  1.0000
  H   H53       1.0  0.25986  0.01205  0.35482  1.0000
  H   H54       1.0  0.22029  0.04760  0.34665  1.0000
  N   N40       1.0  0.26387  0.05478  0.34857  1.0000
  N   N41       1.0  0.17641  0.00734  0.35427  1.0000
  N   N42       1.0  0.22294  0.96808  0.36259  1.0000
  C   C121      1.0  0.18419  0.45554  0.35378  1.0000
  C   C122      1.0  0.16755  0.43066  0.34996  1.0000
  C   C123      1.0  0.17495  0.41325  0.35117  1.0000
  C   C124      1.0  0.19991  0.42153  0.35308  1.0000
  C   C125      1.0  0.21728  0.44629  0.35514  1.0000
  C   C126      1.0  0.20893  0.46291  0.35636  1.0000
  H   H55       1.0  0.20559  0.40923  0.35263  1.0000
  H   H56       1.0  0.22111  0.48082  0.35830  1.0000
  H   H57       1.0  0.14965  0.42514  0.34595  1.0000
  N   N43       1.0  0.17584  0.47096  0.35156  1.0000
  N   N44       1.0  0.15947  0.38942  0.34673  1.0000
  N   N45       1.0  0.24075  0.45295  0.35715  1.0000
  C   C127      1.0  0.57119  0.73403  0.35414  1.0000
  C   C128      1.0  0.59607  0.74226  0.35026  1.0000
  C   C129      1.0  0.61348  0.76708  0.35136  1.0000
  C   C130      1.0  0.60519  0.78376  0.35331  1.0000
  C   C131      1.0  0.58044  0.77636  0.35540  1.0000
  C   C132      1.0  0.56381  0.75138  0.35666  1.0000
  H   H58       1.0  0.61749  0.80173  0.35281  1.0000
  H   H59       1.0  0.54591  0.74567  0.35863  1.0000
  H   H60       1.0  0.60159  0.72989  0.34626  1.0000
  N   N46       1.0  0.55578  0.71026  0.35198  1.0000
  N   N47       1.0  0.63731  0.77544  0.34695  1.0000
  N   N48       1.0  0.57377  0.79317  0.35734  1.0000
  C   C133      1.0  0.29271  0.84254  0.35407  1.0000
  C   C134      1.0  0.28447  0.85918  0.35021  1.0000
  C   C135      1.0  0.25966  0.85178  0.35141  1.0000
  C   C136      1.0  0.24298  0.82681  0.35336  1.0000
  C   C137      1.0  0.25038  0.80945  0.35542  1.0000
  C   C138      1.0  0.27536  0.81781  0.35667  1.0000
  H   H61       1.0  0.22500  0.82113  0.35290  1.0000
  H   H62       1.0  0.28107  0.80562  0.35865  1.0000
  H   H63       1.0  0.29685  0.87708  0.34618  1.0000
  N   N49       1.0  0.31648  0.85090  0.35190  1.0000
  N   N50       1.0  0.25129  0.86724  0.34697  1.0000
  N   N51       1.0  0.23358  0.78598  0.35744  1.0000
  C   C139      1.0  0.46017  0.17873  0.35374  1.0000
  C   C140      1.0  0.43525  0.16217  0.35703  1.0000
  C   C141      1.0  0.41794  0.16970  0.35580  1.0000
  C   C142      1.0  0.42635  0.19469  0.35429  1.0000
  C   C143      1.0  0.45114  0.21197  0.35269  1.0000
  C   C144      1.0  0.46766  0.20349  0.35162  1.0000
  H   H64       1.0  0.41412  0.20046  0.35472  1.0000
  H   H65       1.0  0.48558  0.21562  0.35006  1.0000
  H   H66       1.0  0.42962  0.14425  0.36072  1.0000
  N   N52       1.0  0.47553  0.17030  0.35614  1.0000
  N   N53       1.0  0.39408  0.15430  0.35997  1.0000
  N   N54       1.0  0.45794  0.23549  0.35086  1.0000
  C   C145      1.0  0.73985  0.56657  0.35382  1.0000
  C   C146      1.0  0.74821  0.59149  0.35709  1.0000
  C   C147      1.0  0.77306  0.60880  0.35580  1.0000
  C   C148      1.0  0.78964  0.60038  0.35436  1.0000
  C   C149      1.0  0.78212  0.57559  0.35275  1.0000
  C   C150      1.0  0.75712  0.55907  0.35166  1.0000
  H   H67       1.0  0.80763  0.61261  0.35479  1.0000
  H   H68       1.0  0.75132  0.54115  0.35012  1.0000
  H   H69       1.0  0.73592  0.59712  0.36079  1.0000
  N   N55       1.0  0.71606  0.55120  0.35625  1.0000
  N   N56       1.0  0.78152  0.63266  0.36007  1.0000
  N   N57       1.0  0.79882  0.56877  0.35091  1.0000
  C   C151      1.0  0.84796  0.28676  0.35380  1.0000
  C   C152      1.0  0.86452  0.27841  0.35707  1.0000
  C   C153      1.0  0.85700  0.25357  0.35584  1.0000
  C   C154      1.0  0.83201  0.23698  0.35435  1.0000
  C   C155      1.0  0.81473  0.24448  0.35274  1.0000
  C   C156      1.0  0.82320  0.26948  0.35168  1.0000
  H   H70       1.0  0.82625  0.21899  0.35478  1.0000
  H   H71       1.0  0.81107  0.27527  0.35013  1.0000
  H   H72       1.0  0.88245  0.29071  0.36078  1.0000
  N   N58       1.0  0.85638  0.31055  0.35625  1.0000
  N   N59       1.0  0.87240  0.24511  0.36005  1.0000
  N   N60       1.0  0.79121  0.22777  0.35095  1.0000
  C   C157      1.0  0.10633  0.59327  0.35288  1.0000
  C   C158      1.0  0.12229  0.61827  0.34932  1.0000
  C   C159      1.0  0.14751  0.62807  0.35303  1.0000
  C   C160      1.0  0.15654  0.61201  0.35600  1.0000
  C   C161      1.0  0.14115  0.58681  0.35633  1.0000
  C   C162      1.0  0.11609  0.57786  0.35583  1.0000
  H   H73       1.0  0.17472  0.61881  0.35724  1.0000
  H   H74       1.0  0.10467  0.55974  0.35662  1.0000
  H   H75       1.0  0.11537  0.62948  0.34358  1.0000
  N   N61       1.0  0.08273  0.58490  0.34545  1.0000
  N   N62       1.0  0.16320  0.65172  0.34810  1.0000
  N   N63       1.0  0.15068  0.57244  0.36157  1.0000
  C   C163      1.0  0.43345  0.51844  0.35258  1.0000
  C   C164      1.0  0.40846  0.50939  0.34868  1.0000
  C   C165      1.0  0.39867  0.52482  0.35264  1.0000
  C   C166      1.0  0.41473  0.54990  0.35606  1.0000
  C   C167      1.0  0.43993  0.55970  0.35663  1.0000
  C   C168      1.0  0.44888  0.54359  0.35598  1.0000
  H   H76       1.0  0.40795  0.56129  0.35744  1.0000
  H   H77       1.0  0.46700  0.55024  0.35706  1.0000
  H   H78       1.0  0.39726  0.49127  0.34265  1.0000
  N   N64       1.0  0.44193  0.50330  0.34492  1.0000
  N   N65       1.0  0.37502  0.51686  0.34774  1.0000
  N   N66       1.0  0.45431  0.58361  0.36200  1.0000
  C   C169      1.0  0.50830  0.92040  0.35255  1.0000
  C   C170      1.0  0.51736  0.90446  0.34873  1.0000
  C   C171      1.0  0.50193  0.87924  0.35278  1.0000
  C   C172      1.0  0.47685  0.87022  0.35611  1.0000
  C   C173      1.0  0.46705  0.88562  0.35662  1.0000
  C   C174      1.0  0.48315  0.91067  0.35597  1.0000
  H   H79       1.0  0.46546  0.85203  0.35751  1.0000
  H   H80       1.0  0.47650  0.92214  0.35701  1.0000
  H   H81       1.0  0.53548  0.91138  0.34271  1.0000
  N   N67       1.0  0.52342  0.94402  0.34488  1.0000
  N   N68       1.0  0.50989  0.86355  0.34786  1.0000
  N   N69       1.0  0.44314  0.87608  0.36199  1.0000
  C   C175      1.0  0.59834  0.10134  0.35773  1.0000
  C   C176      1.0  0.62335  0.11726  0.36091  1.0000
  C   C177      1.0  0.63316  0.14248  0.35691  1.0000
  C   C178      1.0  0.61711  0.15152  0.35384  1.0000
  C   C179      1.0  0.59190  0.13615  0.35358  1.0000
  C   C180      1.0  0.58294  0.11109  0.35446  1.0000
  H   H82       1.0  0.62392  0.16971  0.35225  1.0000
  H   H83       1.0  0.56482  0.09963  0.35305  1.0000
  H   H84       1.0  0.63454  0.11031  0.36611  1.0000
  N   N70       1.0  0.58987  0.07768  0.36283  1.0000
  N   N71       1.0  0.65683  0.15812  0.36135  1.0000
  N   N72       1.0  0.57749  0.14565  0.34786  1.0000
  C   C181      1.0  0.52431  0.42834  0.35772  1.0000
  C   C182      1.0  0.51523  0.40334  0.36084  1.0000
  C   C183      1.0  0.53065  0.39354  0.35679  1.0000
  C   C184      1.0  0.55575  0.40960  0.35382  1.0000
  C   C185      1.0  0.56557  0.43481  0.35363  1.0000
  C   C186      1.0  0.54946  0.44376  0.35446  1.0000
  H   H85       1.0  0.56713  0.40280  0.35222  1.0000
  H   H86       1.0  0.55611  0.46187  0.35307  1.0000
  H   H87       1.0  0.49709  0.39214  0.36601  1.0000
  N   N73       1.0  0.50911  0.43681  0.36278  1.0000
  N   N74       1.0  0.52263  0.36987  0.36125  1.0000
  N   N75       1.0  0.58947  0.44922  0.34787  1.0000
  C   C187      1.0  0.92520  0.50229  0.35755  1.0000
  C   C188      1.0  0.90928  0.51137  0.36075  1.0000
  C   C189      1.0  0.88406  0.49595  0.35696  1.0000
  C   C190      1.0  0.87502  0.47086  0.35403  1.0000
  C   C191      1.0  0.89040  0.46103  0.35375  1.0000
  C   C192      1.0  0.91545  0.47713  0.35446  1.0000
  H   H88       1.0  0.85683  0.45948  0.35254  1.0000
  H   H89       1.0  0.92692  0.47048  0.35297  1.0000
  H   H90       1.0  0.91623  0.52951  0.36575  1.0000
  N   N76       1.0  0.94887  0.51751  0.36216  1.0000
  N   N77       1.0  0.86842  0.50399  0.36139  1.0000
  N   N78       1.0  0.88091  0.43712  0.34804  1.0000
  C   C193      1.0  0.01086  0.08835  0.36259  1.0000
  C   C194      1.0  0.00717  0.09924  0.44006  1.0000
  C   C195      1.0  0.00705  0.12106  0.43470  1.0000
  H   H91       1.0  0.00287  0.12722  0.49226  1.0000
  H   H92       1.0  0.00325  0.09061  0.50168  1.0000
  C   C196      1.0  0.00607  0.06438  0.37100  1.0000
  H   H93       1.0  0.99081  0.05300  0.40202  1.0000
  C   C197      1.0  0.93837  0.92794  0.36247  1.0000
  C   C198      1.0  0.92752  0.91340  0.44004  1.0000
  C   C199      1.0  0.90570  0.89144  0.43488  1.0000
  H   H94       1.0  0.89960  0.88111  0.49246  1.0000
  H   H95       1.0  0.93620  0.91810  0.50156  1.0000
  C   C200      1.0  0.96237  0.94707  0.37063  1.0000
  H   H96       1.0  0.97377  0.94312  0.40101  1.0000
  C   C201      1.0  0.09881  0.01588  0.36239  1.0000
  C   C202      1.0  0.11336  0.01967  0.44003  1.0000
  C   C203      1.0  0.13532  0.01981  0.43510  1.0000
  H   H97       1.0  0.14564  0.02411  0.49273  1.0000
  H   H98       1.0  0.10866  0.02373  0.50139  1.0000
  C   C204      1.0  0.07970  0.02077  0.37023  1.0000
  H   H99       1.0  0.08368  0.03619  0.40011  1.0000
  C   C205      1.0  0.12345  0.35192  0.36810  1.0000
  C   C206      1.0  0.11245  0.33697  0.44517  1.0000
  C   C207      1.0  0.09382  0.31254  0.43416  1.0000
  N   N79       1.0  0.12037  0.34763  0.53232  1.0000
  N   N80       1.0  0.08319  0.29954  0.51511  1.0000
  O   O61       1.0  0.12926  0.33752  0.57821  1.0000
  O   O62       1.0  0.08625  0.28187  0.52474  1.0000
  O   O63       1.0  0.10403  0.34820  0.57717  1.0000
  O   O64       1.0  0.06132  0.29307  0.52201  1.0000
  C   C208      1.0  0.13785  0.37683  0.37740  1.0000
  H   H100      1.0  0.13082  0.38512  0.41207  1.0000
  C   C209      1.0  0.67482  0.77694  0.36800  1.0000
  C   C210      1.0  0.68977  0.78092  0.44510  1.0000
  C   C211      1.0  0.71421  0.78672  0.43419  1.0000
  N   N81       1.0  0.67909  0.77818  0.53221  1.0000
  N   N82       1.0  0.72719  0.78909  0.51518  1.0000
  O   O65       1.0  0.68920  0.79719  0.57808  1.0000
  O   O66       1.0  0.74487  0.80981  0.52477  1.0000
  O   O67       1.0  0.67852  0.76128  0.57712  1.0000
  O   O68       1.0  0.73364  0.77368  0.52216  1.0000
  C   C212      1.0  0.64991  0.76638  0.37723  1.0000
  H   H101      1.0  0.64163  0.75101  0.41159  1.0000
  C   C213      1.0  0.24978  0.90326  0.36784  1.0000
  C   C214      1.0  0.24582  0.91423  0.44497  1.0000
  C   C215      1.0  0.24000  0.93285  0.43408  1.0000
  N   N83       1.0  0.24860  0.90631  0.53206  1.0000
  N   N84       1.0  0.23766  0.94348  0.51509  1.0000
  O   O69       1.0  0.22960  0.89740  0.57803  1.0000
  O   O70       1.0  0.21695  0.94046  0.52474  1.0000
  O   O71       1.0  0.26550  0.92264  0.57688  1.0000
  O   O72       1.0  0.25308  0.96534  0.52204  1.0000
  C   C216      1.0  0.26037  0.88893  0.37702  1.0000
  H   H102      1.0  0.27576  0.89605  0.41120  1.0000
  C   C217      1.0  0.30685  0.08163  0.36493  1.0000
  C   C218      1.0  0.32198  0.09479  0.43862  1.0000
  C   C219      1.0  0.34607  0.11274  0.42564  1.0000
  H   H103      1.0  0.35649  0.12061  0.48194  1.0000
  H   H104      1.0  0.31587  0.09052  0.50426  1.0000
  C   C220      1.0  0.28478  0.06098  0.38534  1.0000
  H   H105      1.0  0.28445  0.05177  0.44038  1.0000
  C   C221      1.0  0.79604  0.71985  0.36502  1.0000
  C   C222      1.0  0.79414  0.70474  0.43864  1.0000
  C   C223      1.0  0.78798  0.68064  0.42557  1.0000
  H   H106      1.0  0.78552  0.67023  0.48180  1.0000
  H   H107      1.0  0.79605  0.71086  0.50429  1.0000
  C   C224      1.0  0.79756  0.74197  0.38545  1.0000
  H   H108      1.0  0.78875  0.74231  0.44070  1.0000
  C   C225      1.0  0.94512  0.23063  0.36500  1.0000
  C   C226      1.0  0.93196  0.23259  0.43871  1.0000
  C   C227      1.0  0.91400  0.23872  0.42571  1.0000
  H   H109      1.0  0.90608  0.24121  0.48197  1.0000
  H   H110      1.0  0.93620  0.23070  0.50435  1.0000
  C   C228      1.0  0.96574  0.22915  0.38545  1.0000
  H   H111      1.0  0.97495  0.23802  0.44051  1.0000
  C   C229      1.0  0.33289  0.49161  0.35941  1.0000
  C   C230      1.0  0.31673  0.48167  0.43322  1.0000
  C   C231      1.0  0.29238  0.47483  0.42424  1.0000
  H   H112      1.0  0.28154  0.46845  0.48044  1.0000
  H   H113      1.0  0.32266  0.47958  0.49548  1.0000
  C   C232      1.0  0.35658  0.49686  0.37218  1.0000
  H   H114      1.0  0.35915  0.48453  0.40276  1.0000
  C   C233      1.0  0.53513  0.84666  0.35952  1.0000
  C   C234      1.0  0.54506  0.84043  0.43335  1.0000
  C   C235      1.0  0.55189  0.82292  0.42439  1.0000
  H   H115      1.0  0.55827  0.81846  0.48060  1.0000
  H   H116      1.0  0.54715  0.84845  0.49561  1.0000
  C   C236      1.0  0.52989  0.86511  0.37230  1.0000
  H   H117      1.0  0.54222  0.88001  0.40289  1.0000
  C   C237      1.0  0.18009  0.69386  0.35969  1.0000
  C   C238      1.0  0.18633  0.71003  0.43345  1.0000
  C   C239      1.0  0.20384  0.73438  0.42440  1.0000
  H   H118      1.0  0.20829  0.74524  0.48054  1.0000
  H   H119      1.0  0.17829  0.70413  0.49570  1.0000
  C   C240      1.0  0.16165  0.67016  0.37255  1.0000
  H   H120      1.0  0.14676  0.66761  0.40320  1.0000
  C   C241      1.0  0.48252  0.27784  0.36785  1.0000
  C   C242      1.0  0.49236  0.29371  0.44352  1.0000
  C   C243      1.0  0.49953  0.31860  0.43432  1.0000
  N   N85       1.0  0.49418  0.28334  0.52635  1.0000
  N   N86       1.0  0.50877  0.33518  0.50750  1.0000
  O   O73       1.0  0.51531  0.29130  0.55338  1.0000
  O   O74       1.0  0.52839  0.33846  0.53805  1.0000
  O   O75       1.0  0.48114  0.28371  0.58909  1.0000
  O   O76       1.0  0.49403  0.33074  0.57076  1.0000
  C   C244      1.0  0.47807  0.25427  0.37217  1.0000
  H   H121      1.0  0.49128  0.25213  0.39647  1.0000
  C   C245      1.0  0.81657  0.54418  0.36798  1.0000
  C   C246      1.0  0.82262  0.53436  0.44368  1.0000
  C   C247      1.0  0.84032  0.52717  0.43444  1.0000
  N   N87       1.0  0.81048  0.53261  0.52657  1.0000
  N   N88       1.0  0.84769  0.51796  0.50765  1.0000
  O   O77       1.0  0.79730  0.51149  0.55376  1.0000
  O   O78       1.0  0.83135  0.49837  0.53841  1.0000
  O   O79       1.0  0.82392  0.54566  0.58919  1.0000
  O   O80       1.0  0.85803  0.53273  0.57076  1.0000
  C   C248      1.0  0.79747  0.54865  0.37234  1.0000
  H   H122      1.0  0.78212  0.53546  0.39678  1.0000
  C   C249      1.0  0.74886  0.21000  0.36800  1.0000
  C   C250      1.0  0.73300  0.20396  0.44369  1.0000
  C   C251      1.0  0.70810  0.18624  0.43447  1.0000
  N   N89       1.0  0.74337  0.21613  0.52653  1.0000
  N   N90       1.0  0.69152  0.17888  0.50767  1.0000
  O   O81       1.0  0.73542  0.22930  0.55362  1.0000
  O   O82       1.0  0.68826  0.19521  0.53836  1.0000
  O   O83       1.0  0.74300  0.20271  0.58924  1.0000
  O   O84       1.0  0.69597  0.16856  0.57083  1.0000
  C   C252      1.0  0.77243  0.22911  0.37230  1.0000
  H   H123      1.0  0.77457  0.24446  0.39659  1.0000
  C   C253      1.0  0.17384  0.50639  0.37063  1.0000
  C   C254      1.0  0.17116  0.51817  0.44792  1.0000
  C   C255      1.0  0.16124  0.53357  0.43847  1.0000
  N   N91       1.0  0.17830  0.51360  0.53367  1.0000
  N   N92       1.0  0.15844  0.54389  0.51958  1.0000
  O   O85       1.0  0.16105  0.50347  0.58836  1.0000
  O   O86       1.0  0.13705  0.53825  0.53491  1.0000
  O   O87       1.0  0.19490  0.53229  0.56938  1.0000
  O   O88       1.0  0.17174  0.56627  0.52173  1.0000
  C   C256      1.0  0.18541  0.49304  0.37712  1.0000
  H   H124      1.0  0.20149  0.50098  0.40631  1.0000
  C   C257      1.0  0.52036  0.67282  0.37106  1.0000
  C   C258      1.0  0.50859  0.65836  0.44838  1.0000
  C   C259      1.0  0.49319  0.63304  0.43897  1.0000
  N   N93       1.0  0.51318  0.67008  0.53412  1.0000
  N   N94       1.0  0.48290  0.61993  0.52010  1.0000
  O   O89       1.0  0.52333  0.66297  0.58876  1.0000
  O   O90       1.0  0.48854  0.60418  0.53540  1.0000
  O   O91       1.0  0.49450  0.66799  0.56989  1.0000
  O   O92       1.0  0.46051  0.61083  0.52229  1.0000
  C   C260      1.0  0.53370  0.69773  0.37751  1.0000
  H   H125      1.0  0.52574  0.70587  0.40659  1.0000
  C   C261      1.0  0.35392  0.85292  0.37102  1.0000
  C   C262      1.0  0.36838  0.85562  0.44835  1.0000
  C   C263      1.0  0.39370  0.86553  0.43895  1.0000
  N   N95       1.0  0.35666  0.84850  0.53409  1.0000
  N   N96       1.0  0.40680  0.86835  0.52009  1.0000
  O   O93       1.0  0.36377  0.86576  0.58872  1.0000
  O   O94       1.0  0.42255  0.88975  0.53537  1.0000
  O   O95       1.0  0.35874  0.83191  0.56990  1.0000
  O   O96       1.0  0.41590  0.85506  0.52232  1.0000
  C   C264      1.0  0.32901  0.84135  0.37746  1.0000
  H   H126      1.0  0.32087  0.82526  0.40659  1.0000
  C   C265      1.0  0.54255  0.14915  0.35792  1.0000
  C   C266      1.0  0.53033  0.15166  0.43343  1.0000
  C   C267      1.0  0.51504  0.16125  0.42373  1.0000
  H   H127      1.0  0.50703  0.16326  0.48074  1.0000
  H   H128      1.0  0.53248  0.14651  0.49717  1.0000
  C   C268      1.0  0.55541  0.13726  0.37171  1.0000
  H   H129      1.0  0.54675  0.12136  0.40229  1.0000
  C   C269      1.0  0.62790  0.48420  0.35797  1.0000
  C   C270      1.0  0.64263  0.49643  0.43345  1.0000
  C   C271      1.0  0.66751  0.51172  0.42371  1.0000
  H   H130      1.0  0.67753  0.51976  0.48068  1.0000
  H   H131      1.0  0.63533  0.49430  0.49719  1.0000
  C   C272      1.0  0.60315  0.47131  0.37179  1.0000
  H   H132      1.0  0.59590  0.47994  0.40245  1.0000
  C   C273      1.0  0.87746  0.39870  0.35811  1.0000
  C   C274      1.0  0.87495  0.38397  0.43362  1.0000
  C   C275      1.0  0.86538  0.35910  0.42390  1.0000
  H   H133      1.0  0.86338  0.34908  0.48089  1.0000
  H   H134      1.0  0.88009  0.39128  0.49738  1.0000
  C   C276      1.0  0.88931  0.42345  0.37194  1.0000
  H   H135      1.0  0.90521  0.43070  0.40252  1.0000
  C   C277      1.0  0.04093  0.55819  0.36082  1.0000
  C   C278      1.0  0.02467  0.54983  0.43473  1.0000
  C   C279      1.0  0.99974  0.53738  0.42062  1.0000
  H   H136      1.0  0.98872  0.53037  0.47609  1.0000
  H   H137      1.0  0.03082  0.55154  0.50027  1.0000
  C   C280      1.0  0.06492  0.56591  0.37981  1.0000
  H   H138      1.0  0.06828  0.55554  0.42042  1.0000
  C   C281      1.0  0.46848  0.48813  0.36438  1.0000
  C   C282      1.0  0.47745  0.48066  0.43763  1.0000
  C   C283      1.0  0.48991  0.46826  0.42254  1.0000
  H   H139      1.0  0.49732  0.46452  0.47743  1.0000
  H   H140      1.0  0.47609  0.48530  0.50326  1.0000
  C   C284      1.0  0.46021  0.50399  0.38392  1.0000
  H   H141      1.0  0.46965  0.51710  0.42829  1.0000
  C   C285      1.0  0.53854  0.98574  0.36446  1.0000
  C   C286      1.0  0.54604  0.00217  0.43770  1.0000
  C   C287      1.0  0.55843  0.02703  0.42256  1.0000
  H   H142      1.0  0.56225  0.03821  0.47745  1.0000
  H   H143      1.0  0.54147  0.99618  0.50336  1.0000
  C   C288      1.0  0.52273  0.96159  0.38404  1.0000
  H   H144      1.0  0.50965  0.95790  0.42853  1.0000
