data_image0
_chemical_formula_structural       C3NC3NC5NC5NC36H26C4H4C3HC4HN2H2O2NC3HC4HN2H2O2NC16H16C5H2NH2NO2NC5H2NH2NO2N
_chemical_formula_sum              "C96 N16 H62 O8"
_cell_length_a       38.4217
_cell_length_b       38.4215
_cell_length_c       14.9081
_cell_angle_alpha    90
_cell_angle_beta     90
_cell_angle_gamma    90.1533

_space_group_name_H-M_alt    "P 1"
_space_group_IT_number       1

loop_
  _space_group_symop_operation_xyz
  'x, y, z'

loop_
  _atom_site_type_symbol
  _atom_site_label
  _atom_site_symmetry_multiplicity
  _atom_site_fract_x
  _atom_site_fract_y
  _atom_site_fract_z
  _atom_site_occupancy
  C   C1        1.0  0.09351  0.07009  0.31816  1.0000
  C   C2        1.0  0.06767  0.09499  0.31672  1.0000
  C   C3        1.0  0.03545  0.07803  0.31755  1.0000
  N   N1        1.0  0.04301  0.04355  0.31926  1.0000
  C   C4        1.0  0.07775  0.03726  0.31924  1.0000
  C   C5        1.0  0.09595  0.00501  0.31995  1.0000
  C   C6        1.0  0.07976  0.97171  0.32027  1.0000
  N   N2        1.0  0.04533  0.96430  0.32051  1.0000
  C   C7        1.0  0.03917  0.92963  0.31985  1.0000
  C   C8        1.0  0.07183  0.91375  0.31937  1.0000
  C   C9        1.0  0.09682  0.93965  0.31942  1.0000
  C   C10       1.0  0.00648  0.91223  0.31950  1.0000
  C   C11       1.0  0.97357  0.92919  0.31889  1.0000
  N   N3        1.0  0.96599  0.96367  0.31806  1.0000
  C   C12       1.0  0.93125  0.96995  0.31685  1.0000
  C   C13       1.0  0.91551  0.93711  0.31755  1.0000
  C   C14       1.0  0.94136  0.91221  0.31852  1.0000
  C   C15       1.0  0.91305  0.00221  0.31544  1.0000
  C   C16       1.0  0.92925  0.03550  0.31545  1.0000
  N   N4        1.0  0.96368  0.04292  0.31658  1.0000
  C   C17       1.0  0.96985  0.07759  0.31561  1.0000
  C   C18       1.0  0.93718  0.09346  0.31410  1.0000
  C   C19       1.0  0.91221  0.06756  0.31357  1.0000
  C   C20       1.0  0.00254  0.09501  0.31598  1.0000
  C   C21       1.0  0.00219  0.13218  0.31324  1.0000
  C   C22       1.0  0.99724  0.14985  0.23119  1.0000
  C   C23       1.0  0.99588  0.18644  0.22870  1.0000
  C   C24       1.0  0.99961  0.20658  0.30781  1.0000
  C   C25       1.0  0.99710  0.24377  0.30532  1.0000
  C   C26       1.0  0.99129  0.31842  0.30054  1.0000
  C   C27       1.0  0.96779  0.29685  0.25278  1.0000
  C   C28       1.0  0.97066  0.26034  0.25500  1.0000
  C   C29       1.0  0.87589  0.00116  0.31254  1.0000
  C   C30       1.0  0.85836  0.99558  0.23053  1.0000
  C   C31       1.0  0.82177  0.99395  0.22770  1.0000
  C   C32       1.0  0.80149  0.99804  0.30640  1.0000
  C   C33       1.0  0.76428  0.99546  0.30351  1.0000
  C   C34       1.0  0.74770  0.96877  0.25377  1.0000
  C   C35       1.0  0.71119  0.96587  0.25099  1.0000
  C   C36       1.0  0.68960  0.98958  0.29764  1.0000
  C   C37       1.0  0.00687  0.87507  0.31748  1.0000
  C   C38       1.0  0.00915  0.80060  0.31249  1.0000
  C   C39       1.0  0.01017  0.82064  0.23263  1.0000
  C   C40       1.0  0.00906  0.85724  0.23491  1.0000
  C   C41       1.0  0.01064  0.76330  0.30941  1.0000
  C   C42       1.0  0.03343  0.74602  0.24954  1.0000
  C   C43       1.0  0.03380  0.70949  0.24271  1.0000
  C   C44       1.0  0.01163  0.68872  0.29636  1.0000
  C   C45       1.0  0.13311  0.00606  0.31793  1.0000
  C   C46       1.0  0.15089  0.01051  0.23585  1.0000
  C   C47       1.0  0.18749  0.01190  0.23362  1.0000
  C   C48       1.0  0.20757  0.00879  0.31301  1.0000
  C   C49       1.0  0.24485  0.01032  0.30997  1.0000
  C   C50       1.0  0.31939  0.01149  0.29634  1.0000
  C   C51       1.0  0.29875  0.03539  0.24787  1.0000
  C   C52       1.0  0.26223  0.03492  0.25498  1.0000
  H   H1        1.0  0.31013  0.05325  0.20604  1.0000
  H   H2        1.0  0.24837  0.05281  0.21890  1.0000
  H   H3        1.0  0.19938  0.01464  0.17260  1.0000
  H   H4        1.0  0.13730  0.01278  0.17708  1.0000
  H   H5        1.0  0.11956  0.07556  0.31776  1.0000
  H   H6        1.0  0.07218  0.12121  0.31500  1.0000
  H   H7        1.0  0.02565  0.02555  0.31998  1.0000
  H   H8        1.0  0.98335  0.98168  0.31748  1.0000
  H   H9        1.0  0.12305  0.93537  0.31859  1.0000
  H   H10       1.0  0.07707  0.88768  0.31868  1.0000
  H   H11       1.0  0.00993  0.87080  0.17583  1.0000
  H   H12       1.0  0.01125  0.80872  0.17132  1.0000
  H   H13       1.0  0.93689  0.88597  0.31895  1.0000
  H   H14       1.0  0.88946  0.93163  0.31731  1.0000
  H   H15       1.0  0.93193  0.11951  0.31320  1.0000
  H   H16       1.0  0.88597  0.07185  0.31210  1.0000
  H   H17       1.0  0.87215  0.99248  0.17232  1.0000
  H   H18       1.0  0.81002  0.99009  0.16690  1.0000
  H   H19       1.0  0.70052  0.94595  0.21442  1.0000
  H   H20       1.0  0.76213  0.95060  0.22015  1.0000
  H   H21       1.0  0.95264  0.24592  0.22064  1.0000
  H   H22       1.0  0.94805  0.30751  0.21578  1.0000
  H   H23       1.0  0.99239  0.19830  0.16792  1.0000
  H   H24       1.0  0.99432  0.13616  0.17274  1.0000
  H   H25       1.0  0.05008  0.75994  0.20964  1.0000
  H   H26       1.0  0.05030  0.69820  0.19732  1.0000
  C   C53       1.0  0.98743  0.35454  0.29698  1.0000
  C   C54       1.0  0.65347  0.98569  0.29355  1.0000
  C   C55       1.0  0.01068  0.65294  0.28344  1.0000
  C   C56       1.0  0.35514  0.01080  0.28289  1.0000
  H   H27       1.0  0.96725  0.36431  0.26342  1.0000
  H   H28       1.0  0.36415  0.01501  0.22115  1.0000
  H   H29       1.0  0.01326  0.64389  0.22115  1.0000
  H   H30       1.0  0.64367  0.96554  0.25970  1.0000
  C   C57       1.0  0.00358  0.52220  0.34067  1.0000
  C   C58       1.0  0.98068  0.54219  0.28582  1.0000
  C   C59       1.0  0.98302  0.57900  0.28857  1.0000
  H   H31       1.0  0.96649  0.59354  0.24992  1.0000
  C   C60       1.0  0.00455  0.48495  0.33913  1.0000
  C   C61       1.0  0.00704  0.41071  0.33621  1.0000
  C   C62       1.0  0.01235  0.42996  0.25604  1.0000
  C   C63       1.0  0.01128  0.46677  0.25871  1.0000
  H   H32       1.0  0.01547  0.48041  0.20070  1.0000
  N   N5        1.0  0.01885  0.41197  0.17484  1.0000
  N   N6        1.0  0.95576  0.52760  0.23271  1.0000
  H   H33       1.0  0.93986  0.54191  0.19779  1.0000
  H   H34       1.0  0.95103  0.50279  0.23348  1.0000
  O   O1        1.0  0.99578  0.41826  0.11732  1.0000
  O   O2        1.0  0.04800  0.41992  0.14249  1.0000
  N   N7        1.0  0.00848  0.37598  0.33550  1.0000
  C   C64       1.0  0.48578  0.00189  0.33744  1.0000
  C   C65       1.0  0.46547  0.97919  0.28250  1.0000
  C   C66       1.0  0.42868  0.98159  0.28590  1.0000
  H   H35       1.0  0.41390  0.96522  0.24717  1.0000
  C   C67       1.0  0.52304  0.00268  0.33572  1.0000
  C   C68       1.0  0.59731  0.00511  0.33280  1.0000
  C   C69       1.0  0.57809  0.01046  0.25265  1.0000
  C   C70       1.0  0.54127  0.00944  0.25532  1.0000
  H   H36       1.0  0.52765  0.01373  0.19735  1.0000
  N   N8        1.0  0.59611  0.01700  0.17149  1.0000
  N   N9        1.0  0.47973  0.95433  0.22884  1.0000
  H   H37       1.0  0.46522  0.93862  0.19369  1.0000
  H   H38       1.0  0.50452  0.94958  0.22889  1.0000
  O   O3        1.0  0.58969  0.99398  0.11387  1.0000
  O   O4        1.0  0.58835  0.04618  0.13925  1.0000
  N   N10       1.0  0.63205  0.00659  0.33224  1.0000
  C   C71       1.0  0.00508  0.18859  0.38958  1.0000
  C   C72       1.0  0.00619  0.15196  0.39244  1.0000
  C   C73       1.0  0.02056  0.26529  0.35340  1.0000
  C   C74       1.0  0.01780  0.30186  0.35088  1.0000
  C   C75       1.0  0.81934  0.00406  0.38816  1.0000
  C   C76       1.0  0.85597  0.00547  0.39136  1.0000
  C   C77       1.0  0.70617  0.01633  0.34742  1.0000
  C   C78       1.0  0.74274  0.01912  0.35049  1.0000
  C   C79       1.0  0.00558  0.85547  0.39754  1.0000
  C   C80       1.0  0.00659  0.81881  0.39493  1.0000
  C   C81       1.0  0.98932  0.70570  0.35773  1.0000
  C   C82       1.0  0.98890  0.74232  0.36416  1.0000
  C   C83       1.0  0.15278  0.00275  0.39750  1.0000
  C   C84       1.0  0.18943  0.00398  0.39490  1.0000
  C   C85       1.0  0.26570  0.98680  0.35958  1.0000
  C   C86       1.0  0.30231  0.98732  0.35288  1.0000
  H   H39       1.0  0.31630  0.96906  0.38743  1.0000
  H   H40       1.0  0.25434  0.96804  0.39862  1.0000
  H   H41       1.0  0.20276  0.00208  0.45410  1.0000
  H   H42       1.0  0.14053  0.99959  0.45793  1.0000
  H   H43       1.0  0.00416  0.86777  0.45833  1.0000
  H   H44       1.0  0.00631  0.80554  0.45442  1.0000
  H   H45       1.0  0.86802  0.00941  0.45176  1.0000
  H   H46       1.0  0.80582  0.00657  0.44694  1.0000
  H   H47       1.0  0.75353  0.03912  0.38639  1.0000
  H   H48       1.0  0.69176  0.03415  0.38226  1.0000
  H   H49       1.0  0.00959  0.13979  0.45289  1.0000
  H   H50       1.0  0.00723  0.20200  0.44863  1.0000
  H   H51       1.0  0.03544  0.31627  0.38657  1.0000
  H   H52       1.0  0.04036  0.25450  0.38983  1.0000
  H   H53       1.0  0.97143  0.75357  0.40699  1.0000
  H   H54       1.0  0.97234  0.69161  0.39634  1.0000
  C   C87       1.0  0.00674  0.59651  0.34532  1.0000
  C   C88       1.0  0.02840  0.57675  0.40238  1.0000
  C   C89       1.0  0.02686  0.53997  0.39851  1.0000
  C   C90       1.0  0.00018  0.46532  0.41850  1.0000
  C   C91       1.0  0.00157  0.42848  0.41871  1.0000
  H   H55       1.0  0.99557  0.47815  0.47754  1.0000
  H   H56       1.0  0.04350  0.52606  0.43836  1.0000
  N   N11       1.0  0.99728  0.41127  0.49778  1.0000
  H   H57       1.0  0.99358  0.42376  0.55378  1.0000
  H   H58       1.0  0.99804  0.38602  0.50126  1.0000
  N   N12       1.0  0.05155  0.59431  0.46088  1.0000
  O   O5        1.0  0.04528  0.58694  0.54140  1.0000
  O   O6        1.0  0.08268  0.58673  0.44419  1.0000
  N   N13       1.0  0.00783  0.63124  0.34884  1.0000
  C   C92       1.0  0.41152  0.00520  0.34336  1.0000
  C   C93       1.0  0.43156  0.02672  0.40034  1.0000
  C   C94       1.0  0.46832  0.02512  0.39581  1.0000
  C   C95       1.0  0.54266  0.99820  0.41504  1.0000
  C   C96       1.0  0.57951  0.99957  0.41527  1.0000
  H   H59       1.0  0.52980  0.99359  0.47407  1.0000
  H   H60       1.0  0.48245  0.04164  0.43570  1.0000
  N   N14       1.0  0.59668  0.99524  0.49434  1.0000
  H   H61       1.0  0.58415  0.99150  0.55030  1.0000
  H   H62       1.0  0.62193  0.99597  0.49785  1.0000
  N   N15       1.0  0.41430  0.04977  0.45942  1.0000
  O   O7        1.0  0.42185  0.04335  0.53974  1.0000
  O   O8        1.0  0.42203  0.08092  0.44296  1.0000
  N   N16       1.0  0.37683  0.00621  0.34758  1.0000
