data_image0
_chemical_formula_structural       HNHNCNCNH2CHCNCNH2CHNCH2NCH2CNCNH2CHCNCNH2CHNCH2NCH2NCNH3NCNH3C6HNC6NH7N4C6HNC6NH7N4C6HNC6NH7N4C6HNC6NH6N3C6HNC6NH6N4C2HCHNC2HCHC2NCNH2CHC3NCNH2CHCNC2HCHNC2HCHC2NCNH2CHC3NCNH2CHC2NC2HC2HCNC2HC2H
_chemical_formula_sum              "H90 N60 C120"
_cell_length_a       32.5516
_cell_length_b       40.743
_cell_length_c       14.739
_cell_angle_alpha    88.3638
_cell_angle_beta     91.281
_cell_angle_gamma    89.6991

_space_group_name_H-M_alt    "P 1"
_space_group_IT_number       1

loop_
  _space_group_symop_operation_xyz
  'x, y, z'

loop_
  _atom_site_type_symbol
  _atom_site_label
  _atom_site_symmetry_multiplicity
  _atom_site_fract_x
  _atom_site_fract_y
  _atom_site_fract_z
  _atom_site_occupancy
  H   H1        1.0  0.78854  0.36231  0.35823  1.0000
  N   N1        1.0  0.86185  0.33508  0.37739  1.0000
  H   H2        1.0  0.16249  0.66889  0.40539  1.0000
  N   N2        1.0  0.09135  0.69306  0.38568  1.0000
  C   C1        1.0  0.16803  0.18296  0.34745  1.0000
  N   N3        1.0  0.13137  0.13562  0.29996  1.0000
  C   C2        1.0  0.15389  0.16265  0.27645  1.0000
  N   N4        1.0  0.15920  0.16919  0.18689  1.0000
  H   H3        1.0  0.17374  0.18853  0.16535  1.0000
  H   H4        1.0  0.14790  0.15465  0.14155  1.0000
  C   C3        1.0  0.18939  0.21269  0.33708  1.0000
  H   H5        1.0  0.20672  0.21757  0.28141  1.0000
  C   C4        1.0  0.78494  0.84908  0.35140  1.0000
  N   N5        1.0  0.81968  0.89757  0.30129  1.0000
  C   C5        1.0  0.79750  0.87043  0.27921  1.0000
  N   N6        1.0  0.79100  0.86492  0.18984  1.0000
  H   H6        1.0  0.77658  0.84567  0.16903  1.0000
  H   H7        1.0  0.80125  0.88022  0.14386  1.0000
  C   C6        1.0  0.76417  0.81909  0.34250  1.0000
  H   H8        1.0  0.74830  0.81366  0.28438  1.0000
  N   N7        1.0  0.83006  0.18422  0.39286  1.0000
  C   C7        1.0  0.85741  0.16019  0.37721  1.0000
  H   H9        1.0  0.88513  0.16629  0.35036  1.0000
  H   H10       1.0  0.90188  0.10820  0.35422  1.0000
  N   N8        1.0  0.12237  0.84909  0.36319  1.0000
  C   C8        1.0  0.09460  0.87361  0.35337  1.0000
  H   H11       1.0  0.06659  0.86891  0.32388  1.0000
  H   H12       1.0  0.04934  0.92601  0.34290  1.0000
  C   C9        1.0  0.25302  0.48522  0.33588  1.0000
  N   N9        1.0  0.25530  0.54306  0.30926  1.0000
  C   C10       1.0  0.25389  0.51252  0.27383  1.0000
  N   N10       1.0  0.25558  0.51034  0.18246  1.0000
  H   H13       1.0  0.25643  0.48933  0.15312  1.0000
  H   H14       1.0  0.25710  0.53007  0.14394  1.0000
  C   C11       1.0  0.24970  0.45217  0.31264  1.0000
  H   H15       1.0  0.23706  0.44592  0.25146  1.0000
  C   C12       1.0  0.69815  0.54848  0.33195  1.0000
  N   N11       1.0  0.69439  0.49145  0.30240  1.0000
  C   C13       1.0  0.69482  0.52293  0.26862  1.0000
  N   N12       1.0  0.68990  0.52764  0.17767  1.0000
  H   H16       1.0  0.68799  0.54945  0.14959  1.0000
  H   H17       1.0  0.68668  0.50899  0.13839  1.0000
  C   C14       1.0  0.70094  0.58210  0.30989  1.0000
  H   H18       1.0  0.71165  0.58990  0.24831  1.0000
  N   N13       1.0  0.00506  0.36304  0.36727  1.0000
  C   C15       1.0  0.96536  0.37154  0.34447  1.0000
  H   H19       1.0  0.95991  0.39018  0.29785  1.0000
  H   H20       1.0  0.88127  0.37886  0.32204  1.0000
  N   N14       1.0  0.94283  0.68787  0.33605  1.0000
  C   C16       1.0  0.98156  0.68857  0.30297  1.0000
  H   H21       1.0  0.98513  0.69069  0.23433  1.0000
  H   H22       1.0  0.05865  0.70595  0.27044  1.0000
  N   N15       1.0  0.50475  0.32835  0.31095  1.0000
  C   C17       1.0  0.46416  0.32894  0.28441  1.0000
  N   N16       1.0  0.45601  0.32820  0.19390  1.0000
  H   H23       1.0  0.42817  0.32674  0.16945  1.0000
  H   H24       1.0  0.47829  0.32690  0.15118  1.0000
  H   H25       1.0  0.38473  0.34907  0.27248  1.0000
  N   N17       1.0  0.44508  0.70538  0.31614  1.0000
  C   C18       1.0  0.48485  0.70536  0.28774  1.0000
  N   N18       1.0  0.49031  0.70777  0.19688  1.0000
  H   H26       1.0  0.51739  0.71005  0.17130  1.0000
  H   H27       1.0  0.46676  0.71011  0.15529  1.0000
  H   H28       1.0  0.56397  0.68572  0.27241  1.0000
  C   C19       1.0  0.99729  0.01780  0.33685  1.0000
  C   C20       1.0  0.02178  0.98966  0.35755  1.0000
  C   C21       1.0  0.06473  0.99080  0.37430  1.0000
  C   C22       1.0  0.08479  0.02175  0.37588  1.0000
  C   C23       1.0  0.06163  0.05051  0.35012  1.0000
  C   C24       1.0  0.01944  0.04765  0.32638  1.0000
  H   H29       1.0  0.00768  0.96779  0.36920  1.0000
  N   N19       1.0  0.12631  0.02293  0.39108  1.0000
  C   C25       1.0  0.95316  0.01595  0.33658  1.0000
  C   C26       1.0  0.93081  0.98636  0.32538  1.0000
  C   C27       1.0  0.88905  0.98295  0.34867  1.0000
  C   C28       1.0  0.86640  0.01114  0.37467  1.0000
  C   C29       1.0  0.88653  0.04208  0.37489  1.0000
  C   C30       1.0  0.92913  0.04362  0.35804  1.0000
  N   N20       1.0  0.82515  0.00960  0.38921  1.0000
  H   H30       1.0  0.94354  0.06512  0.37072  1.0000
  H   H31       1.0  0.80926  0.99027  0.37570  1.0000
  H   H32       1.0  0.80920  0.02888  0.40395  1.0000
  H   H33       1.0  0.14196  0.04264  0.37903  1.0000
  H   H34       1.0  0.14250  0.00333  0.40596  1.0000
  H   H35       1.0  0.00403  0.06869  0.30678  1.0000
  H   H36       1.0  0.94586  0.96575  0.30571  1.0000
  N   N21       1.0  0.86420  0.06983  0.38869  1.0000
  N   N22       1.0  0.87402  0.95180  0.34672  1.0000
  N   N23       1.0  0.07679  0.08164  0.34757  1.0000
  N   N24       1.0  0.08754  0.96273  0.38465  1.0000
  C   C31       1.0  0.20527  0.32506  0.36730  1.0000
  C   C32       1.0  0.20476  0.29019  0.36392  1.0000
  C   C33       1.0  0.16845  0.27164  0.37198  1.0000
  C   C34       1.0  0.12968  0.28743  0.37940  1.0000
  C   C35       1.0  0.12805  0.32237  0.38482  1.0000
  C   C36       1.0  0.16544  0.34003  0.37532  1.0000
  H   H37       1.0  0.23123  0.27736  0.35462  1.0000
  N   N25       1.0  0.09465  0.26943  0.36616  1.0000
  C   C37       1.0  0.24352  0.34319  0.36504  1.0000
  C   C38       1.0  0.28361  0.32910  0.38241  1.0000
  C   C39       1.0  0.32079  0.34741  0.38071  1.0000
  C   C40       1.0  0.31786  0.38233  0.37528  1.0000
  C   C41       1.0  0.27904  0.39718  0.35506  1.0000
  C   C42       1.0  0.24362  0.37757  0.34532  1.0000
  N   N26       1.0  0.35144  0.40145  0.39205  1.0000
  H   H38       1.0  0.21680  0.38960  0.32937  1.0000
  H   H39       1.0  0.37685  0.39216  0.41727  1.0000
  H   H40       1.0  0.34973  0.42527  0.39086  1.0000
  H   H41       1.0  0.06965  0.28000  0.34320  1.0000
  H   H42       1.0  0.09524  0.24584  0.35870  1.0000
  H   H43       1.0  0.16323  0.36476  0.38300  1.0000
  H   H44       1.0  0.28666  0.30445  0.39477  1.0000
  N   N27       1.0  0.27585  0.43041  0.35391  1.0000
  N   N28       1.0  0.35824  0.33158  0.38722  1.0000
  N   N29       1.0  0.09196  0.33949  0.39750  1.0000
  N   N30       1.0  0.16819  0.23853  0.36675  1.0000
  C   C43       1.0  0.74604  0.70778  0.36724  1.0000
  C   C44       1.0  0.74694  0.74264  0.36972  1.0000
  C   C45       1.0  0.78302  0.76036  0.39056  1.0000
  C   C46       1.0  0.82104  0.74380  0.40944  1.0000
  C   C47       1.0  0.82290  0.70930  0.39573  1.0000
  C   C48       1.0  0.78598  0.69263  0.37261  1.0000
  H   H45       1.0  0.72080  0.75601  0.35669  1.0000
  N   N31       1.0  0.85567  0.76199  0.42479  1.0000
  C   C49       1.0  0.70769  0.68983  0.36149  1.0000
  C   C50       1.0  0.66804  0.70352  0.37976  1.0000
  C   C51       1.0  0.63084  0.68521  0.37849  1.0000
  C   C52       1.0  0.63363  0.65040  0.37296  1.0000
  C   C53       1.0  0.67194  0.63599  0.35193  1.0000
  C   C54       1.0  0.70704  0.65589  0.34128  1.0000
  N   N32       1.0  0.60057  0.63088  0.39069  1.0000
  H   H46       1.0  0.73342  0.64415  0.32512  1.0000
  H   H47       1.0  0.57565  0.63958  0.41598  1.0000
  H   H48       1.0  0.60217  0.60708  0.38888  1.0000
  H   H49       1.0  0.88302  0.75306  0.42059  1.0000
  H   H50       1.0  0.85468  0.78552  0.43348  1.0000
  H   H51       1.0  0.78872  0.66780  0.36876  1.0000
  H   H52       1.0  0.66532  0.72787  0.39270  1.0000
  N   N33       1.0  0.67532  0.60277  0.35123  1.0000
  N   N34       1.0  0.59360  0.70088  0.38619  1.0000
  N   N35       1.0  0.85900  0.69165  0.39682  1.0000
  N   N36       1.0  0.78439  0.79357  0.38334  1.0000
  C   C55       1.0  0.74698  0.32297  0.38733  1.0000
  C   C56       1.0  0.74813  0.28842  0.40439  1.0000
  C   C57       1.0  0.78526  0.27038  0.41131  1.0000
  C   C58       1.0  0.82381  0.28626  0.40359  1.0000
  C   C59       1.0  0.82433  0.32063  0.38515  1.0000
  C   C60       1.0  0.78646  0.33797  0.37545  1.0000
  H   H53       1.0  0.72169  0.27560  0.41420  1.0000
  N   N37       1.0  0.85972  0.26865  0.41202  1.0000
  C   C61       1.0  0.70851  0.34101  0.38344  1.0000
  C   C62       1.0  0.66863  0.32678  0.37017  1.0000
  C   C63       1.0  0.63125  0.34518  0.36942  1.0000
  C   C64       1.0  0.63369  0.38012  0.36818  1.0000
  C   C65       1.0  0.67240  0.39506  0.38397  1.0000
  C   C66       1.0  0.70813  0.37547  0.39581  1.0000
  N   N38       1.0  0.59976  0.39926  0.34941  1.0000
  H   H54       1.0  0.73487  0.38745  0.40926  1.0000
  H   H55       1.0  0.57419  0.38996  0.32738  1.0000
  H   H56       1.0  0.60113  0.42308  0.34634  1.0000
  H   H57       1.0  0.88644  0.27878  0.40566  1.0000
  H   H58       1.0  0.86023  0.24531  0.42672  1.0000
  H   H59       1.0  0.66597  0.30206  0.36303  1.0000
  N   N39       1.0  0.67527  0.42829  0.37997  1.0000
  N   N40       1.0  0.59399  0.32948  0.36562  1.0000
  N   N41       1.0  0.78551  0.23736  0.42159  1.0000
  C   C67       1.0  0.20488  0.70876  0.39709  1.0000
  C   C68       1.0  0.20345  0.74366  0.39177  1.0000
  C   C69       1.0  0.16646  0.76160  0.37967  1.0000
  C   C70       1.0  0.12802  0.74547  0.36956  1.0000
  C   C71       1.0  0.12718  0.71067  0.38197  1.0000
  C   C72       1.0  0.16502  0.69371  0.39907  1.0000
  H   H60       1.0  0.22959  0.75706  0.39902  1.0000
  N   N42       1.0  0.09273  0.76381  0.36057  1.0000
  C   C73       1.0  0.24366  0.69089  0.39875  1.0000
  C   C74       1.0  0.28315  0.70538  0.38280  1.0000
  C   C75       1.0  0.32064  0.68723  0.38124  1.0000
  C   C76       1.0  0.31843  0.65234  0.37988  1.0000
  C   C77       1.0  0.28033  0.63695  0.39762  1.0000
  C   C78       1.0  0.24500  0.65618  0.41249  1.0000
  N   N43       1.0  0.35180  0.63378  0.35869  1.0000
  H   H61       1.0  0.21884  0.64350  0.42480  1.0000
  H   H62       1.0  0.37654  0.64368  0.33510  1.0000
  H   H63       1.0  0.35041  0.61003  0.35534  1.0000
  H   H64       1.0  0.06575  0.75457  0.36908  1.0000
  H   H65       1.0  0.09305  0.78742  0.35209  1.0000
  H   H66       1.0  0.28576  0.73019  0.37488  1.0000
  N   N44       1.0  0.27721  0.60388  0.39087  1.0000
  N   N45       1.0  0.35765  0.70314  0.37507  1.0000
  N   N46       1.0  0.16579  0.79455  0.38678  1.0000
  N   N47       1.0  0.15898  0.17355  0.43400  1.0000
  C   C79       1.0  0.13866  0.14566  0.45650  1.0000
  C   C80       1.0  0.12307  0.12596  0.38676  1.0000
  H   H67       1.0  0.13352  0.14015  0.52338  1.0000
  C   C81       1.0  0.10309  0.09618  0.40622  1.0000
  H   H68       1.0  0.10572  0.08620  0.47071  1.0000
  N   N48       1.0  0.79481  0.85789  0.43753  1.0000
  C   C82       1.0  0.81476  0.88585  0.45846  1.0000
  C   C83       1.0  0.82895  0.90648  0.38761  1.0000
  H   H69       1.0  0.82057  0.89079  0.52513  1.0000
  C   C84       1.0  0.84879  0.93623  0.40554  1.0000
  H   H70       1.0  0.84705  0.94534  0.46944  1.0000
  C   C85       1.0  0.79206  0.17956  0.42752  1.0000
  C   C86       1.0  0.84635  0.12747  0.39674  1.0000
  N   N49       1.0  0.80855  0.12228  0.43204  1.0000
  C   C87       1.0  0.78082  0.14657  0.44893  1.0000
  N   N50       1.0  0.74508  0.13758  0.48749  1.0000
  H   H71       1.0  0.72479  0.15363  0.50482  1.0000
  H   H72       1.0  0.73981  0.11462  0.50290  1.0000
  C   C88       1.0  0.76760  0.20797  0.43574  1.0000
  H   H73       1.0  0.73731  0.20692  0.45184  1.0000
  C   C89       1.0  0.87403  0.10196  0.38012  1.0000
  C   C90       1.0  0.16080  0.85190  0.40030  1.0000
  C   C91       1.0  0.10567  0.90503  0.38213  1.0000
  N   N51       1.0  0.14393  0.90840  0.41992  1.0000
  C   C92       1.0  0.17205  0.88346  0.43123  1.0000
  N   N52       1.0  0.20813  0.89035  0.47385  1.0000
  H   H74       1.0  0.22890  0.87361  0.48695  1.0000
  H   H75       1.0  0.21343  0.91230  0.49554  1.0000
  C   C93       1.0  0.18495  0.82302  0.40425  1.0000
  H   H76       1.0  0.21462  0.82262  0.42808  1.0000
  C   C94       1.0  0.07753  0.93106  0.37096  1.0000
  N   N53       1.0  0.25150  0.49143  0.42601  1.0000
  C   C95       1.0  0.25009  0.52201  0.45971  1.0000
  C   C96       1.0  0.25335  0.54921  0.39930  1.0000
  H   H77       1.0  0.24866  0.52478  0.52827  1.0000
  C   C97       1.0  0.25135  0.58169  0.42772  1.0000
  H   H78       1.0  0.23982  0.58674  0.48984  1.0000
  N   N54       1.0  0.70287  0.53975  0.42146  1.0000
  C   C98       1.0  0.70520  0.50822  0.45327  1.0000
  C   C99       1.0  0.69957  0.48275  0.39169  1.0000
  H   H79       1.0  0.70911  0.50349  0.52140  1.0000
  C   C100      1.0  0.70191  0.44946  0.41782  1.0000
  H   H80       1.0  0.71585  0.44242  0.47828  1.0000
  C   C101      1.0  0.01601  0.33841  0.42797  1.0000
  C   C102      1.0  0.93259  0.35286  0.37994  1.0000
  N   N55       1.0  0.94374  0.32867  0.44085  1.0000
  C   C103      1.0  0.98288  0.32084  0.46868  1.0000
  N   N56       1.0  0.98609  0.29645  0.53323  1.0000
  H   H81       1.0  0.01199  0.29035  0.56277  1.0000
  H   H82       1.0  0.96151  0.28637  0.55784  1.0000
  C   C104      1.0  0.05773  0.32857  0.44107  1.0000
  H   H83       1.0  0.06281  0.30833  0.48198  1.0000
  C   C105      1.0  0.89038  0.35834  0.35874  1.0000
  C   C106      1.0  0.93418  0.68688  0.42609  1.0000
  C   C107      1.0  0.01594  0.68838  0.36347  1.0000
  N   N57       1.0  0.00734  0.68663  0.45330  1.0000
  C   C108      1.0  0.96866  0.68588  0.48781  1.0000
  N   N58       1.0  0.96608  0.68467  0.57951  1.0000
  H   H84       1.0  0.93998  0.68254  0.60957  1.0000
  H   H85       1.0  0.99087  0.68382  0.61771  1.0000
  C   C109      1.0  0.89317  0.69303  0.45178  1.0000
  H   H86       1.0  0.88911  0.70308  0.51370  1.0000
  C   C110      1.0  0.05613  0.69534  0.33392  1.0000
  C   C111      1.0  0.43351  0.33015  0.35225  1.0000
  N   N59       1.0  0.44760  0.33023  0.43997  1.0000
  C   C112      1.0  0.48821  0.33003  0.46500  1.0000
  C   C113      1.0  0.51885  0.32932  0.39831  1.0000
  H   H87       1.0  0.49598  0.33150  0.53232  1.0000
  C   C114      1.0  0.39136  0.33740  0.33347  1.0000
  C   C115      1.0  0.56091  0.33508  0.41894  1.0000
  H   H88       1.0  0.56724  0.34571  0.47983  1.0000
  C   C116      1.0  0.51750  0.70293  0.35418  1.0000
  N   N60       1.0  0.50606  0.70123  0.44251  1.0000
  C   C117      1.0  0.46625  0.70088  0.46944  1.0000
  C   C118      1.0  0.43366  0.70275  0.40416  1.0000
  H   H89       1.0  0.46049  0.69821  0.53713  1.0000
  C   C119      1.0  0.55906  0.69615  0.33358  1.0000
  C   C120      1.0  0.39227  0.69661  0.42697  1.0000
  H   H90       1.0  0.38780  0.68486  0.48834  1.0000
