data_image0
_chemical_formula_structural       C3NC3NC5NC5NC36H26N4C3NC3NC5NC5NC36H26N4C3NC3NC5NC5NC36H26N5C3NCHNC3NCHNC3NCHNC3NCHNC3NCHNC3NCHC16H16C16H16C16H16CNC2NCHCNC2NCHCNC2NCHCNC2NCHCNC2NCHCNC2NCH
_chemical_formula_sum              "C252 N48 H138"
_cell_length_a       67.5182
_cell_length_b       67.5182
_cell_length_c       14.8881
_cell_angle_alpha    89.8352
_cell_angle_beta     90.1648
_cell_angle_gamma    120

_space_group_name_H-M_alt    "P 1"
_space_group_IT_number       1

loop_
  _space_group_symop_operation_xyz
  'x, y, z'

loop_
  _atom_site_type_symbol
  _atom_site_label
  _atom_site_symmetry_multiplicity
  _atom_site_fract_x
  _atom_site_fract_y
  _atom_site_fract_z
  _atom_site_occupancy
  C   C1        1.0  0.02561  0.62242  0.31898  1.0000
  C   C2        1.0  0.04926  0.63432  0.31996  1.0000
  C   C3        1.0  0.05685  0.61849  0.32098  1.0000
  N   N1        1.0  0.03756  0.59767  0.32069  1.0000
  C   C4        1.0  0.01818  0.59904  0.31954  1.0000
  C   C5        1.0  0.99490  0.58121  0.31923  1.0000
  C   C6        1.0  0.98754  0.55746  0.32024  1.0000
  N   N2        1.0  0.00053  0.54737  0.32067  1.0000
  C   C7        1.0  0.98768  0.52428  0.32180  1.0000
  C   C8        1.0  0.96493  0.51925  0.32226  1.0000
  C   C9        1.0  0.96485  0.53963  0.32105  1.0000
  C   C10       1.0  0.99519  0.50800  0.32230  1.0000
  C   C11       1.0  0.01852  0.51363  0.32147  1.0000
  N   N3        1.0  0.03781  0.53445  0.32107  1.0000
  C   C12       1.0  0.05718  0.53308  0.32002  1.0000
  C   C13       1.0  0.04975  0.50969  0.31964  1.0000
  C   C14       1.0  0.02611  0.49780  0.32066  1.0000
  C   C15       1.0  0.08047  0.55090  0.31965  1.0000
  C   C16       1.0  0.08782  0.57465  0.32050  1.0000
  N   N4        1.0  0.07484  0.58474  0.32059  1.0000
  C   C17       1.0  0.08769  0.60783  0.32167  1.0000
  C   C18       1.0  0.11044  0.61285  0.32250  1.0000
  C   C19       1.0  0.11052  0.59247  0.32150  1.0000
  C   C20       1.0  0.08019  0.62411  0.32187  1.0000
  C   C21       1.0  0.09751  0.64770  0.32320  1.0000
  C   C22       1.0  0.13643  0.69298  0.32758  1.0000
  C   C23       1.0  0.12736  0.68144  0.24516  1.0000
  C   C24       1.0  0.10829  0.65915  0.24288  1.0000
  C   C25       1.0  0.15672  0.71510  0.32987  1.0000
  C   C26       1.0  0.16046  0.73227  0.26616  1.0000
  C   C27       1.0  0.18064  0.75378  0.26713  1.0000
  C   C28       1.0  0.19794  0.75889  0.33173  1.0000
  C   C29       1.0  0.09789  0.54478  0.31824  1.0000
  C   C30       1.0  0.13664  0.53816  0.31531  1.0000
  C   C31       1.0  0.12634  0.53984  0.23468  1.0000
  C   C32       1.0  0.10733  0.54315  0.23596  1.0000
  C   C33       1.0  0.15673  0.53599  0.31404  1.0000
  C   C34       1.0  0.19745  0.53250  0.31408  1.0000
  C   C35       1.0  0.19482  0.54707  0.25324  1.0000
  C   C36       1.0  0.17490  0.54887  0.25342  1.0000
  C   C37       1.0  0.97787  0.48441  0.32380  1.0000
  C   C38       1.0  0.96729  0.47286  0.24343  1.0000
  C   C39       1.0  0.94836  0.45050  0.24572  1.0000
  C   C40       1.0  0.93923  0.43898  0.32819  1.0000
  C   C41       1.0  0.91912  0.41672  0.33041  1.0000
  C   C42       1.0  0.87830  0.37261  0.33229  1.0000
  C   C43       1.0  0.89577  0.37789  0.26859  1.0000
  C   C44       1.0  0.91575  0.39956  0.26761  1.0000
  C   C45       1.0  0.97745  0.58731  0.31770  1.0000
  C   C46       1.0  0.96806  0.58913  0.23533  1.0000
  C   C47       1.0  0.93846  0.59353  0.31436  1.0000
  C   C48       1.0  0.94893  0.59225  0.23385  1.0000
  C   C49       1.0  0.91820  0.59542  0.31289  1.0000
  C   C50       1.0  0.90015  0.58259  0.25161  1.0000
  C   C51       1.0  0.88005  0.58406  0.25133  1.0000
  C   C52       1.0  0.87711  0.59824  0.31279  1.0000
  H   H1        1.0  0.86734  0.57436  0.20647  1.0000
  H   H2        1.0  0.90120  0.57156  0.20753  1.0000
  H   H3        1.0  0.94258  0.59339  0.17278  1.0000
  H   H4        1.0  0.97470  0.58756  0.17580  1.0000
  H   H5        1.0  0.01566  0.62989  0.31820  1.0000
  H   H6        1.0  0.05911  0.65175  0.31972  1.0000
  H   H7        1.0  0.03762  0.58348  0.32157  1.0000
  H   H8        1.0  0.03775  0.54864  0.32183  1.0000
  H   H9        1.0  0.95040  0.54092  0.32109  1.0000
  H   H10       1.0  0.95055  0.50346  0.32316  1.0000
  H   H11       1.0  0.97281  0.48095  0.18279  1.0000
  H   H12       1.0  0.94062  0.44311  0.18618  1.0000
  H   H13       1.0  0.01626  0.48037  0.32054  1.0000
  H   H14       1.0  0.05970  0.50222  0.31895  1.0000
  H   H15       1.0  0.12482  0.62864  0.32355  1.0000
  H   H16       1.0  0.12496  0.59117  0.32191  1.0000
  H   H17       1.0  0.10078  0.54495  0.17637  1.0000
  H   H18       1.0  0.13270  0.53882  0.17367  1.0000
  H   H19       1.0  0.17406  0.56016  0.20978  1.0000
  H   H20       1.0  0.20761  0.55680  0.20880  1.0000
  H   H21       1.0  0.10285  0.65102  0.18235  1.0000
  H   H22       1.0  0.13525  0.68872  0.18573  1.0000
  H   H23       1.0  0.18248  0.76575  0.22063  1.0000
  H   H24       1.0  0.14830  0.72941  0.21887  1.0000
  H   H25       1.0  0.92806  0.40254  0.22107  1.0000
  H   H26       1.0  0.89421  0.36593  0.22283  1.0000
  N   N5        1.0  0.21741  0.77891  0.33698  1.0000
  N   N6        1.0  0.85758  0.59875  0.30849  1.0000
  N   N7        1.0  0.85901  0.35242  0.33750  1.0000
  N   N8        1.0  0.21679  0.53167  0.30969  1.0000
  C   C53       1.0  0.47991  0.49483  0.32089  1.0000
  C   C54       1.0  0.46801  0.50658  0.32179  1.0000
  C   C55       1.0  0.48384  0.53000  0.32275  1.0000
  N   N9        1.0  0.50466  0.53152  0.32255  1.0000
  C   C56       1.0  0.50329  0.51078  0.32144  1.0000
  C   C57       1.0  0.52112  0.50532  0.32116  1.0000
  C   C58       1.0  0.54487  0.52172  0.32216  1.0000
  N   N10       1.0  0.55496  0.54479  0.32264  1.0000
  C   C59       1.0  0.57805  0.55502  0.32375  1.0000
  C   C60       1.0  0.58308  0.53731  0.32411  1.0000
  C   C61       1.0  0.56270  0.51684  0.32290  1.0000
  C   C62       1.0  0.59433  0.57881  0.32429  1.0000
  C   C63       1.0  0.58871  0.59652  0.32348  1.0000
  N   N11       1.0  0.56789  0.59499  0.32300  1.0000
  C   C64       1.0  0.56926  0.61574  0.32200  1.0000
  C   C65       1.0  0.59265  0.63169  0.32174  1.0000
  C   C66       1.0  0.60454  0.61994  0.32279  1.0000
  C   C67       1.0  0.55144  0.62120  0.32159  1.0000
  C   C68       1.0  0.52769  0.60481  0.32234  1.0000
  N   N12       1.0  0.51759  0.58173  0.32242  1.0000
  C   C69       1.0  0.49451  0.57150  0.32337  1.0000
  C   C70       1.0  0.48949  0.58922  0.32410  1.0000
  C   C71       1.0  0.50987  0.60969  0.32322  1.0000
  C   C72       1.0  0.47822  0.54771  0.32354  1.0000
  C   C73       1.0  0.45463  0.54145  0.32470  1.0000
  C   C74       1.0  0.40936  0.53508  0.32866  1.0000
  C   C75       1.0  0.42094  0.53765  0.24635  1.0000
  C   C76       1.0  0.44321  0.54084  0.24425  1.0000
  C   C77       1.0  0.38723  0.53323  0.33075  1.0000
  C   C78       1.0  0.37009  0.51987  0.26698  1.0000
  C   C79       1.0  0.34858  0.51853  0.26772  1.0000
  C   C80       1.0  0.34344  0.53065  0.33216  1.0000
  C   C81       1.0  0.55756  0.64475  0.32022  1.0000
  C   C82       1.0  0.56418  0.69012  0.31733  1.0000
  C   C83       1.0  0.56254  0.67826  0.23669  1.0000
  C   C84       1.0  0.55924  0.65594  0.23795  1.0000
  C   C85       1.0  0.56634  0.71238  0.31608  1.0000
  C   C86       1.0  0.56984  0.75659  0.31611  1.0000
  C   C87       1.0  0.55530  0.73947  0.25514  1.0000
  C   C88       1.0  0.55349  0.71776  0.25538  1.0000
  C   C89       1.0  0.61792  0.58509  0.32578  1.0000
  C   C90       1.0  0.62951  0.58632  0.24532  1.0000
  C   C91       1.0  0.65187  0.58973  0.24751  1.0000
  C   C92       1.0  0.66336  0.59188  0.32993  1.0000
  C   C93       1.0  0.68563  0.59405  0.33200  1.0000
  C   C94       1.0  0.72974  0.59736  0.33335  1.0000
  C   C95       1.0  0.72448  0.60978  0.27033  1.0000
  C   C96       1.0  0.70282  0.60809  0.26961  1.0000
  C   C97       1.0  0.51501  0.48177  0.31967  1.0000
  C   C98       1.0  0.51320  0.47065  0.23734  1.0000
  C   C99       1.0  0.50878  0.43656  0.31647  1.0000
  C   C100      1.0  0.51007  0.44840  0.23592  1.0000
  C   C101      1.0  0.50691  0.41442  0.31506  1.0000
  C   C102      1.0  0.51975  0.40927  0.25384  1.0000
  C   C103      1.0  0.51828  0.38770  0.25363  1.0000
  C   C104      1.0  0.50409  0.37051  0.31508  1.0000
  H   H27       1.0  0.52799  0.38476  0.20880  1.0000
  H   H28       1.0  0.53078  0.42141  0.20976  1.0000
  H   H29       1.0  0.50894  0.44099  0.17487  1.0000
  H   H30       1.0  0.51477  0.47893  0.17778  1.0000
  H   H31       1.0  0.47243  0.47741  0.32008  1.0000
  H   H32       1.0  0.45058  0.49900  0.32146  1.0000
  H   H33       1.0  0.51886  0.54577  0.32332  1.0000
  H   H34       1.0  0.55370  0.58074  0.32363  1.0000
  H   H35       1.0  0.56140  0.50110  0.32287  1.0000
  H   H36       1.0  0.59887  0.53871  0.32492  1.0000
  H   H37       1.0  0.62144  0.58394  0.18468  1.0000
  H   H38       1.0  0.65930  0.58962  0.18787  1.0000
  H   H39       1.0  0.62197  0.62752  0.32275  1.0000
  H   H40       1.0  0.60013  0.64911  0.32114  1.0000
  H   H41       1.0  0.47370  0.58782  0.32502  1.0000
  H   H42       1.0  0.51117  0.62543  0.32354  1.0000
  H   H43       1.0  0.55746  0.64768  0.17836  1.0000
  H   H44       1.0  0.56359  0.68574  0.17569  1.0000
  H   H45       1.0  0.54224  0.70570  0.21161  1.0000
  H   H46       1.0  0.54558  0.74260  0.21064  1.0000
  H   H47       1.0  0.45137  0.54359  0.18379  1.0000
  H   H48       1.0  0.41366  0.53827  0.18682  1.0000
  H   H49       1.0  0.33662  0.50843  0.22123  1.0000
  H   H50       1.0  0.37296  0.51059  0.21985  1.0000
  H   H51       1.0  0.69985  0.61758  0.22349  1.0000
  H   H52       1.0  0.73646  0.62036  0.22486  1.0000
  N   N13       1.0  0.32341  0.53010  0.33717  1.0000
  N   N14       1.0  0.50360  0.35049  0.31082  1.0000
  N   N15       1.0  0.74992  0.59821  0.33824  1.0000
  N   N16       1.0  0.57067  0.77677  0.31171  1.0000
  C   C105      1.0  0.60751  0.07673  0.32216  1.0000
  C   C106      1.0  0.59576  0.05308  0.32311  1.0000
  C   C107      1.0  0.57235  0.04549  0.32416  1.0000
  N   N17       1.0  0.57082  0.06478  0.32394  1.0000
  C   C108      1.0  0.59156  0.08416  0.32277  1.0000
  C   C109      1.0  0.59702  0.10745  0.32249  1.0000
  C   C110      1.0  0.58062  0.11480  0.32359  1.0000
  N   N18       1.0  0.55754  0.10181  0.32406  1.0000
  C   C111      1.0  0.54731  0.11466  0.32525  1.0000
  C   C112      1.0  0.56502  0.13741  0.32571  1.0000
  C   C113      1.0  0.58549  0.13749  0.32439  1.0000
  C   C114      1.0  0.52352  0.10715  0.32575  1.0000
  C   C115      1.0  0.50581  0.08382  0.32478  1.0000
  N   N19       1.0  0.50734  0.06453  0.32425  1.0000
  C   C116      1.0  0.48660  0.04515  0.32308  1.0000
  C   C117      1.0  0.47065  0.05258  0.32274  1.0000
  C   C118      1.0  0.48240  0.07623  0.32392  1.0000
  C   C119      1.0  0.48114  0.02187  0.32259  1.0000
  C   C120      1.0  0.49754  0.01452  0.32348  1.0000
  N   N20       1.0  0.52062  0.02750  0.32367  1.0000
  C   C121      1.0  0.53085  0.01465  0.32474  1.0000
  C   C122      1.0  0.51313  0.99190  0.32543  1.0000
  C   C123      1.0  0.49266  0.99182  0.32440  1.0000
  C   C124      1.0  0.55464  0.02216  0.32499  1.0000
  C   C125      1.0  0.56090  0.00483  0.32621  1.0000
  C   C126      1.0  0.56728  0.96592  0.33040  1.0000
  C   C127      1.0  0.56473  0.97503  0.24803  1.0000
  C   C128      1.0  0.56154  0.99411  0.24583  1.0000
  C   C129      1.0  0.56912  0.94563  0.33258  1.0000
  C   C130      1.0  0.58252  0.94194  0.26893  1.0000
  C   C131      1.0  0.58385  0.92177  0.26976  1.0000
  C   C132      1.0  0.57169  0.90441  0.33411  1.0000
  C   C133      1.0  0.45759  0.00444  0.32097  1.0000
  C   C134      1.0  0.41223  0.96571  0.31756  1.0000
  C   C135      1.0  0.42416  0.97603  0.23705  1.0000
  C   C136      1.0  0.44648  0.99504  0.23857  1.0000
  C   C137      1.0  0.38996  0.94561  0.31604  1.0000
  C   C138      1.0  0.34575  0.90491  0.31553  1.0000
  C   C139      1.0  0.36293  0.90755  0.25491  1.0000
  C   C140      1.0  0.38464  0.92747  0.25538  1.0000
  C   C141      1.0  0.51724  0.12446  0.32734  1.0000
  C   C142      1.0  0.51599  0.13492  0.24691  1.0000
  C   C143      1.0  0.51259  0.15387  0.24915  1.0000
  C   C144      1.0  0.51044  0.16309  0.33161  1.0000
  C   C145      1.0  0.50828  0.18320  0.33372  1.0000
  C   C146      1.0  0.50498  0.22401  0.33521  1.0000
  C   C147      1.0  0.49257  0.20642  0.27212  1.0000
  C   C148      1.0  0.49426  0.18645  0.27132  1.0000
  C   C149      1.0  0.62056  0.12489  0.32087  1.0000
  C   C150      1.0  0.63163  0.13429  0.23842  1.0000
  C   C151      1.0  0.66577  0.16389  0.31725  1.0000
  C   C152      1.0  0.65387  0.15342  0.23681  1.0000
  C   C153      1.0  0.68791  0.18416  0.31563  1.0000
  C   C154      1.0  0.69300  0.20221  0.25441  1.0000
  C   C155      1.0  0.71457  0.22231  0.25398  1.0000
  C   C156      1.0  0.73182  0.22525  0.31515  1.0000
  H   H53       1.0  0.71748  0.23501  0.20912  1.0000
  H   H54       1.0  0.68082  0.20115  0.21051  1.0000
  H   H55       1.0  0.66124  0.15978  0.17569  1.0000
  H   H56       1.0  0.62331  0.12766  0.17894  1.0000
  H   H57       1.0  0.62493  0.08668  0.32134  1.0000
  H   H58       1.0  0.60335  0.04323  0.32280  1.0000
  H   H59       1.0  0.55657  0.06472  0.32482  1.0000
  H   H60       1.0  0.52159  0.06458  0.32500  1.0000
  H   H61       1.0  0.60123  0.15194  0.32442  1.0000
  H   H62       1.0  0.56361  0.15179  0.32655  1.0000
  H   H63       1.0  0.51840  0.12934  0.18626  1.0000
  H   H64       1.0  0.51273  0.16151  0.18954  1.0000
  H   H65       1.0  0.47481  0.08608  0.32392  1.0000
  H   H66       1.0  0.45322  0.04264  0.32204  1.0000
  H   H67       1.0  0.51453  0.97752  0.32643  1.0000
  H   H68       1.0  0.47692  0.97737  0.32470  1.0000
  H   H69       1.0  0.45480  0.00160  0.17907  1.0000
  H   H70       1.0  0.41674  0.96969  0.17596  1.0000
  H   H71       1.0  0.39675  0.92832  0.21190  1.0000
  H   H72       1.0  0.35985  0.89478  0.21048  1.0000
  H   H73       1.0  0.55880  0.99959  0.18532  1.0000
  H   H74       1.0  0.56413  0.96720  0.18853  1.0000
  H   H75       1.0  0.59397  0.91997  0.22333  1.0000
  H   H76       1.0  0.59181  0.95415  0.22183  1.0000
  H   H77       1.0  0.48478  0.17406  0.22519  1.0000
  H   H78       1.0  0.48200  0.20790  0.22666  1.0000
  N   N21       1.0  0.57223  0.88493  0.33918  1.0000
  N   N22       1.0  0.75183  0.24477  0.31060  1.0000
  N   N23       1.0  0.50412  0.24332  0.34017  1.0000
  N   N24       1.0  0.32557  0.88557  0.31089  1.0000
  N   N25       1.0  0.25519  0.52960  0.26045  1.0000
  C   C157      1.0  0.27470  0.53030  0.23289  1.0000
  C   C158      1.0  0.28821  0.52679  0.29728  1.0000
  C   C159      1.0  0.27982  0.53445  0.14814  1.0000
  N   N26       1.0  0.28454  0.53818  0.07355  1.0000
  C   C160      1.0  0.30817  0.52645  0.27721  1.0000
  H   H79       1.0  0.31095  0.52380  0.21403  1.0000
  N   N27       1.0  0.57281  0.81734  0.26246  1.0000
  C   C161      1.0  0.57214  0.83620  0.23489  1.0000
  C   C162      1.0  0.57558  0.85310  0.29934  1.0000
  C   C163      1.0  0.56808  0.83732  0.15007  1.0000
  N   N28       1.0  0.56444  0.83845  0.07542  1.0000
  C   C164      1.0  0.57592  0.87343  0.27927  1.0000
  H   H80       1.0  0.57861  0.87896  0.21612  1.0000
  N   N29       1.0  0.28509  0.84717  0.26111  1.0000
  C   C165      1.0  0.26629  0.82766  0.23332  1.0000
  C   C166      1.0  0.24927  0.81414  0.29745  1.0000
  C   C167      1.0  0.26531  0.82254  0.14859  1.0000
  N   N30       1.0  0.26431  0.81783  0.07403  1.0000
  C   C168      1.0  0.22898  0.79417  0.27714  1.0000
  H   H81       1.0  0.22353  0.79141  0.21388  1.0000
  N   N31       1.0  0.81886  0.60052  0.26017  1.0000
  C   C169      1.0  0.79922  0.59968  0.23307  1.0000
  C   C170      1.0  0.78547  0.60246  0.29816  1.0000
  C   C171      1.0  0.79418  0.59608  0.14806  1.0000
  N   N32       1.0  0.78947  0.59281  0.07329  1.0000
  C   C172      1.0  0.76536  0.60261  0.27855  1.0000
  H   H82       1.0  0.76265  0.60574  0.21580  1.0000
  N   N33       1.0  0.50198  0.31014  0.26242  1.0000
  C   C173      1.0  0.50285  0.29140  0.23523  1.0000
  C   C174      1.0  0.49992  0.27470  0.30016  1.0000
  C   C175      1.0  0.50664  0.29019  0.15032  1.0000
  N   N34       1.0  0.51006  0.28895  0.07564  1.0000
  C   C176      1.0  0.49979  0.25447  0.28046  1.0000
  H   H83       1.0  0.49674  0.24878  0.21762  1.0000
  N   N35       1.0  0.79203  0.28356  0.26121  1.0000
  C   C177      1.0  0.81069  0.30323  0.23356  1.0000
  C   C178      1.0  0.82756  0.31691  0.29796  1.0000
  C   C179      1.0  0.81166  0.30833  0.14872  1.0000
  N   N36       1.0  0.81267  0.31305  0.07406  1.0000
  C   C180      1.0  0.84771  0.33705  0.27781  1.0000
  H   H84       1.0  0.85326  0.33982  0.21475  1.0000
  C   C181      1.0  0.10608  0.65917  0.40562  1.0000
  C   C182      1.0  0.12516  0.68145  0.40759  1.0000
  C   C183      1.0  0.19418  0.74204  0.39630  1.0000
  C   C184      1.0  0.17403  0.72053  0.39509  1.0000
  C   C185      1.0  0.10775  0.54276  0.39905  1.0000
  C   C186      1.0  0.12675  0.53943  0.39744  1.0000
  C   C187      1.0  0.15937  0.52116  0.37417  1.0000
  C   C188      1.0  0.17928  0.51937  0.37410  1.0000
  C   C189      1.0  0.95029  0.45062  0.40830  1.0000
  C   C190      1.0  0.96924  0.47298  0.40632  1.0000
  C   C191      1.0  0.90163  0.41113  0.39468  1.0000
  C   C192      1.0  0.88168  0.38945  0.39592  1.0000
  C   C193      1.0  0.96744  0.58896  0.39841  1.0000
  C   C194      1.0  0.94833  0.59211  0.39661  1.0000
  C   C195      1.0  0.89516  0.61134  0.37342  1.0000
  C   C196      1.0  0.91526  0.60988  0.37358  1.0000
  H   H85       1.0  0.89395  0.62225  0.41761  1.0000
  H   H86       1.0  0.92797  0.61986  0.41789  1.0000
  H   H87       1.0  0.94103  0.59229  0.45652  1.0000
  H   H88       1.0  0.97349  0.58706  0.45903  1.0000
  H   H89       1.0  0.97631  0.48109  0.46570  1.0000
  H   H90       1.0  0.94451  0.44298  0.46949  1.0000
  H   H91       1.0  0.10166  0.54451  0.45964  1.0000
  H   H92       1.0  0.13392  0.53895  0.45745  1.0000
  H   H93       1.0  0.18027  0.50820  0.41783  1.0000
  H   H94       1.0  0.14656  0.51114  0.41801  1.0000
  H   H95       1.0  0.17241  0.70861  0.44153  1.0000
  H   H96       1.0  0.20634  0.74520  0.44411  1.0000
  H   H97       1.0  0.13089  0.68911  0.46874  1.0000
  H   H98       1.0  0.09889  0.65113  0.46499  1.0000
  H   H99       1.0  0.90299  0.42303  0.44045  1.0000
  H   H100      1.0  0.86940  0.38618  0.44305  1.0000
  C   C197      1.0  0.44314  0.53846  0.40704  1.0000
  C   C198      1.0  0.42086  0.53526  0.40880  1.0000
  C   C199      1.0  0.36026  0.54369  0.39675  1.0000
  C   C200      1.0  0.38179  0.54508  0.39573  1.0000
  C   C201      1.0  0.55952  0.65650  0.40104  1.0000
  C   C202      1.0  0.56286  0.67883  0.39947  1.0000
  C   C203      1.0  0.58115  0.72976  0.37631  1.0000
  C   C204      1.0  0.58294  0.75147  0.37623  1.0000
  C   C205      1.0  0.65167  0.59102  0.41014  1.0000
  C   C206      1.0  0.62931  0.58762  0.40828  1.0000
  C   C207      1.0  0.69119  0.58192  0.39566  1.0000
  C   C208      1.0  0.71287  0.58365  0.39663  1.0000
  C   C209      1.0  0.51335  0.47001  0.40041  1.0000
  C   C210      1.0  0.51020  0.44776  0.39869  1.0000
  C   C211      1.0  0.49099  0.37539  0.37566  1.0000
  C   C212      1.0  0.49245  0.39695  0.37576  1.0000
  H   H101      1.0  0.48008  0.36322  0.41985  1.0000
  H   H102      1.0  0.48246  0.39963  0.42003  1.0000
  H   H103      1.0  0.51002  0.44021  0.45861  1.0000
  H   H104      1.0  0.51526  0.47790  0.46103  1.0000
  H   H105      1.0  0.62117  0.58637  0.46770  1.0000
  H   H106      1.0  0.65928  0.59269  0.47132  1.0000
  H   H107      1.0  0.55777  0.64858  0.46162  1.0000
  H   H108      1.0  0.56333  0.68641  0.45947  1.0000
  H   H109      1.0  0.59409  0.76356  0.42004  1.0000
  H   H110      1.0  0.59115  0.72691  0.42021  1.0000
  H   H111      1.0  0.39369  0.55532  0.44222  1.0000
  H   H112      1.0  0.35709  0.55266  0.44442  1.0000
  H   H113      1.0  0.41318  0.53327  0.46988  1.0000
  H   H114      1.0  0.45117  0.53927  0.46647  1.0000
  H   H115      1.0  0.67926  0.57120  0.44107  1.0000
  H   H116      1.0  0.71612  0.57446  0.44325  1.0000
  C   C213      1.0  0.56388  0.99622  0.40861  1.0000
  C   C214      1.0  0.56707  0.97714  0.41048  1.0000
  C   C215      1.0  0.55863  0.90812  0.39861  1.0000
  C   C216      1.0  0.55726  0.92827  0.39755  1.0000
  C   C217      1.0  0.44576  0.99456  0.40166  1.0000
  C   C218      1.0  0.42343  0.97558  0.39982  1.0000
  C   C219      1.0  0.37252  0.94297  0.37593  1.0000
  C   C220      1.0  0.35081  0.92305  0.37558  1.0000
  C   C221      1.0  0.51131  0.15216  0.41179  1.0000
  C   C222      1.0  0.51472  0.13321  0.40986  1.0000
  C   C223      1.0  0.52041  0.20079  0.39745  1.0000
  C   C224      1.0  0.51868  0.22074  0.39849  1.0000
  C   C225      1.0  0.63237  0.13491  0.40149  1.0000
  C   C226      1.0  0.65463  0.15401  0.39957  1.0000
  C   C227      1.0  0.72699  0.20721  0.37574  1.0000
  C   C228      1.0  0.70543  0.18711  0.37608  1.0000
  H   H117      1.0  0.73919  0.20842  0.41977  1.0000
  H   H118      1.0  0.70278  0.17440  0.42037  1.0000
  H   H119      1.0  0.66221  0.16131  0.45943  1.0000
  H   H120      1.0  0.62453  0.12885  0.46217  1.0000
  H   H121      1.0  0.51595  0.12622  0.46926  1.0000
  H   H122      1.0  0.50964  0.15802  0.47298  1.0000
  H   H123      1.0  0.45363  0.00064  0.46234  1.0000
  H   H124      1.0  0.41580  0.96838  0.45973  1.0000
  H   H125      1.0  0.33867  0.92205  0.41915  1.0000
  H   H126      1.0  0.37533  0.95576  0.41976  1.0000
  H   H127      1.0  0.54698  0.92985  0.44392  1.0000
  H   H128      1.0  0.54964  0.89592  0.44623  1.0000
  H   H129      1.0  0.56903  0.97136  0.47161  1.0000
  H   H130      1.0  0.56302  0.00336  0.46802  1.0000
  H   H131      1.0  0.53112  0.19952  0.44286  1.0000
  H   H132      1.0  0.52787  0.23312  0.44515  1.0000
  C   C229      1.0  0.24730  0.52566  0.34648  1.0000
  N   N37       1.0  0.28034  0.52284  0.38329  1.0000
  C   C230      1.0  0.26083  0.52213  0.41083  1.0000
  C   C231      1.0  0.25581  0.51806  0.49569  1.0000
  N   N38       1.0  0.25118  0.51438  0.57037  1.0000
  C   C232      1.0  0.22674  0.52492  0.36588  1.0000
  H   H133      1.0  0.21970  0.51931  0.42580  1.0000
  C   C233      1.0  0.57665  0.81323  0.34857  1.0000
  N   N39       1.0  0.57942  0.84902  0.38543  1.0000
  C   C234      1.0  0.58009  0.83016  0.41297  1.0000
  C   C235      1.0  0.58406  0.82905  0.49791  1.0000
  N   N40       1.0  0.58764  0.82795  0.57266  1.0000
  C   C236      1.0  0.57737  0.79337  0.36797  1.0000
  H   H134      1.0  0.58293  0.79184  0.42796  1.0000
  C   C237      1.0  0.28906  0.85505  0.34716  1.0000
  N   N41       1.0  0.25321  0.82200  0.38348  1.0000
  C   C238      1.0  0.27202  0.84151  0.41125  1.0000
  C   C239      1.0  0.27297  0.84652  0.49609  1.0000
  N   N42       1.0  0.27393  0.85113  0.57076  1.0000
  C   C240      1.0  0.30888  0.87561  0.36680  1.0000
  H   H135      1.0  0.31032  0.88264  0.42669  1.0000
  C   C241      1.0  0.82665  0.60392  0.34642  1.0000
  N   N43       1.0  0.79323  0.60588  0.38439  1.0000
  C   C242      1.0  0.81287  0.60670  0.41148  1.0000
  C   C243      1.0  0.81779  0.61021  0.49661  1.0000
  N   N44       1.0  0.82240  0.61341  0.57148  1.0000
  C   C244      1.0  0.84736  0.60489  0.36545  1.0000
  H   H136      1.0  0.85429  0.61015  0.42581  1.0000
  C   C245      1.0  0.49839  0.31431  0.34857  1.0000
  N   N45       1.0  0.49632  0.27883  0.38629  1.0000
  C   C246      1.0  0.49545  0.29758  0.41346  1.0000
  C   C247      1.0  0.49175  0.29876  0.49849  1.0000
  N   N46       1.0  0.48838  0.29995  0.57327  1.0000
  C   C248      1.0  0.49741  0.33402  0.36766  1.0000
  H   H137      1.0  0.49206  0.33556  0.42792  1.0000
  C   C249      1.0  0.78809  0.27568  0.34736  1.0000
  N   N47       1.0  0.82365  0.30906  0.38410  1.0000
  C   C250      1.0  0.80499  0.28939  0.41172  1.0000
  C   C251      1.0  0.80404  0.28441  0.49669  1.0000
  N   N48       1.0  0.80308  0.27979  0.57144  1.0000
  C   C252      1.0  0.76844  0.25497  0.36689  1.0000
  H   H138      1.0  0.76705  0.24799  0.42702  1.0000
