data_image0
_chemical_formula_structural       C2NH2NH2CNH2C6H3C3H3C3NH2NH2NCNC2NH2NC2NH2NH2CNH2C6H3C3H3C3NH2NH2NCNC2NH2NC3NH2NH2NCNC6H3C3H2C2NH2NH2C3NH2NH2NCNC6H3C3H2C2NH2NH2C2NH2NHCNH2C2NH2NHCNH2CHCHCHCHC3NH2NH2NC3NH2NH2NC2NH2NHNC6H3C3H3C6H3C3H3C3NH2NH2NC3NH2NH2NC2NH2NHNC3NH2NH2NC3NH2NH2NC2NH2NHNC6H3C3H3C6H3C3H3C3NH2NH2NC3NH2NH2NC2NH2NHN
_chemical_formula_sum              "C144 N72 H144"
_cell_length_a       46.1172
_cell_length_b       46.1172
_cell_length_c       14.663
_cell_angle_alpha    90
_cell_angle_beta     90
_cell_angle_gamma    120

_space_group_name_H-M_alt    "P 1"
_space_group_IT_number       1

loop_
  _space_group_symop_operation_xyz
  'x, y, z'

loop_
  _atom_site_type_symbol
  _atom_site_label
  _atom_site_symmetry_multiplicity
  _atom_site_fract_x
  _atom_site_fract_y
  _atom_site_fract_z
  _atom_site_occupancy
  C   C1        1.0  0.25045  0.02951  0.33689  1.0000
  C   C2        1.0  0.23395  0.49391  0.32367  1.0000
  N   N1        1.0  0.23359  0.04660  0.32323  1.0000
  H   H1        1.0  0.24385  0.07041  0.33556  1.0000
  H   H2        1.0  0.20939  0.03497  0.31873  1.0000
  N   N2        1.0  0.20550  0.47820  0.27197  1.0000
  H   H3        1.0  0.19877  0.45671  0.24418  1.0000
  H   H4        1.0  0.19657  0.49058  0.24088  1.0000
  C   C3        1.0  0.03483  0.24580  0.32364  1.0000
  N   N3        1.0  0.05056  0.23302  0.27213  1.0000
  H   H5        1.0  0.07194  0.24801  0.24398  1.0000
  H   H6        1.0  0.03822  0.21177  0.24091  1.0000
  C   C4        1.0  0.20922  0.33523  0.35778  1.0000
  C   C5        1.0  0.21786  0.36950  0.35784  1.0000
  C   C6        1.0  0.19351  0.37974  0.35782  1.0000
  C   C7        1.0  0.15925  0.35411  0.35791  1.0000
  C   C8        1.0  0.14901  0.31953  0.35784  1.0000
  C   C9        1.0  0.17464  0.31089  0.35787  1.0000
  H   H7        1.0  0.14117  0.36081  0.35708  1.0000
  H   H8        1.0  0.16793  0.28611  0.35699  1.0000
  H   H9        1.0  0.24264  0.38757  0.35698  1.0000
  C   C10       1.0  0.20209  0.41399  0.35578  1.0000
  C   C11       1.0  0.11475  0.29385  0.35576  1.0000
  C   C12       1.0  0.23490  0.32666  0.35569  1.0000
  H   H10       1.0  0.25909  0.34593  0.35722  1.0000
  H   H11       1.0  0.10985  0.26966  0.35728  1.0000
  H   H12       1.0  0.18281  0.41890  0.35743  1.0000
  C   C13       1.0  0.24870  0.27899  0.35162  1.0000
  C   C14       1.0  0.23244  0.24471  0.37916  1.0000
  C   C15       1.0  0.25154  0.22821  0.39230  1.0000
  N   N4        1.0  0.23878  0.19972  0.44388  1.0000
  H   H13       1.0  0.21747  0.19071  0.47492  1.0000
  H   H14       1.0  0.25361  0.19309  0.47178  1.0000
  N   N5        1.0  0.19850  0.22788  0.39283  1.0000
  H   H15       1.0  0.18491  0.23816  0.38125  1.0000
  H   H16       1.0  0.18583  0.20370  0.39822  1.0000
  N   N6        1.0  0.23030  0.29503  0.35728  1.0000
  C   C16       1.0  0.24974  0.47546  0.35167  1.0000
  N   N7        1.0  0.23371  0.44102  0.35732  1.0000
  C   C17       1.0  0.05329  0.28004  0.35168  1.0000
  C   C18       1.0  0.03526  0.29630  0.37922  1.0000
  N   N8        1.0  0.05237  0.33024  0.39288  1.0000
  H   H17       1.0  0.07623  0.34382  0.38131  1.0000
  H   H18       1.0  0.04086  0.34290  0.39828  1.0000
  N   N9        1.0  0.08773  0.29844  0.35735  1.0000
  C   C19       1.0  0.25045  0.52950  0.33689  1.0000
  C   C20       1.0  0.23395  0.99391  0.32367  1.0000
  N   N10       1.0  0.23359  0.54660  0.32323  1.0000
  H   H19       1.0  0.24385  0.57041  0.33556  1.0000
  H   H20       1.0  0.20939  0.53497  0.31873  1.0000
  N   N11       1.0  0.20550  0.97820  0.27197  1.0000
  H   H21       1.0  0.19877  0.95671  0.24418  1.0000
  H   H22       1.0  0.19657  0.99058  0.24088  1.0000
  C   C21       1.0  0.03483  0.74580  0.32364  1.0000
  N   N12       1.0  0.05056  0.73302  0.27213  1.0000
  H   H23       1.0  0.07194  0.74801  0.24398  1.0000
  H   H24       1.0  0.03822  0.71177  0.24091  1.0000
  C   C22       1.0  0.20922  0.83523  0.35778  1.0000
  C   C23       1.0  0.21786  0.86950  0.35784  1.0000
  C   C24       1.0  0.19351  0.87974  0.35782  1.0000
  C   C25       1.0  0.15925  0.85411  0.35791  1.0000
  C   C26       1.0  0.14901  0.81952  0.35784  1.0000
  C   C27       1.0  0.17464  0.81088  0.35787  1.0000
  H   H25       1.0  0.14117  0.86081  0.35708  1.0000
  H   H26       1.0  0.16793  0.78611  0.35699  1.0000
  H   H27       1.0  0.24264  0.88757  0.35698  1.0000
  C   C28       1.0  0.20208  0.91399  0.35578  1.0000
  C   C29       1.0  0.11475  0.79385  0.35576  1.0000
  C   C30       1.0  0.23490  0.82665  0.35569  1.0000
  H   H28       1.0  0.25909  0.84593  0.35722  1.0000
  H   H29       1.0  0.10984  0.76966  0.35728  1.0000
  H   H30       1.0  0.18281  0.91889  0.35743  1.0000
  C   C31       1.0  0.24870  0.77899  0.35162  1.0000
  C   C32       1.0  0.23244  0.74471  0.37916  1.0000
  C   C33       1.0  0.25154  0.72821  0.39230  1.0000
  N   N13       1.0  0.23878  0.69972  0.44388  1.0000
  H   H31       1.0  0.21747  0.69071  0.47492  1.0000
  H   H32       1.0  0.25361  0.69309  0.47178  1.0000
  N   N14       1.0  0.19850  0.72788  0.39283  1.0000
  H   H33       1.0  0.18491  0.73816  0.38125  1.0000
  H   H34       1.0  0.18583  0.70370  0.39822  1.0000
  N   N15       1.0  0.23030  0.79503  0.35728  1.0000
  C   C34       1.0  0.24974  0.97546  0.35167  1.0000
  N   N16       1.0  0.23370  0.94101  0.35732  1.0000
  C   C35       1.0  0.05328  0.78004  0.35168  1.0000
  C   C36       1.0  0.03526  0.79630  0.37922  1.0000
  N   N17       1.0  0.05237  0.83024  0.39288  1.0000
  H   H35       1.0  0.07623  0.84383  0.38131  1.0000
  H   H36       1.0  0.04086  0.84290  0.39828  1.0000
  N   N18       1.0  0.08773  0.79844  0.35735  1.0000
  C   C37       1.0  0.28578  0.24399  0.36433  1.0000
  C   C38       1.0  0.30203  0.27827  0.33676  1.0000
  C   C39       1.0  0.28294  0.29477  0.32358  1.0000
  N   N19       1.0  0.33598  0.29511  0.32314  1.0000
  H   H37       1.0  0.34957  0.28483  0.33476  1.0000
  H   H38       1.0  0.34864  0.31928  0.31773  1.0000
  N   N20       1.0  0.29572  0.32328  0.27207  1.0000
  H   H39       1.0  0.28073  0.32967  0.24391  1.0000
  H   H40       1.0  0.31697  0.33219  0.24085  1.0000
  N   N21       1.0  0.30418  0.22795  0.35863  1.0000
  C   C40       1.0  0.28474  0.04753  0.36442  1.0000
  N   N22       1.0  0.30078  0.08197  0.35868  1.0000
  C   C41       1.0  0.32527  0.18776  0.35810  1.0000
  C   C42       1.0  0.31663  0.15349  0.35803  1.0000
  C   C43       1.0  0.34098  0.14325  0.35814  1.0000
  C   C44       1.0  0.37524  0.16888  0.35810  1.0000
  C   C45       1.0  0.38548  0.20346  0.35813  1.0000
  C   C46       1.0  0.35985  0.21210  0.35806  1.0000
  H   H41       1.0  0.39332  0.16217  0.35898  1.0000
  H   H42       1.0  0.36656  0.23688  0.35889  1.0000
  H   H43       1.0  0.29185  0.13542  0.35887  1.0000
  C   C47       1.0  0.33240  0.10900  0.36024  1.0000
  C   C48       1.0  0.41974  0.22914  0.36021  1.0000
  C   C49       1.0  0.29959  0.19633  0.36014  1.0000
  H   H44       1.0  0.27540  0.17705  0.35853  1.0000
  H   H45       1.0  0.35168  0.10409  0.35878  1.0000
  C   C50       1.0  0.28403  0.49349  0.37920  1.0000
  C   C51       1.0  0.30053  0.02909  0.39244  1.0000
  N   N23       1.0  0.32906  0.04484  0.44392  1.0000
  H   H46       1.0  0.33776  0.03234  0.47532  1.0000
  H   H47       1.0  0.33538  0.06617  0.47214  1.0000
  N   N24       1.0  0.30088  0.47639  0.39266  1.0000
  H   H48       1.0  0.29061  0.45253  0.38098  1.0000
  H   H49       1.0  0.32506  0.48791  0.39796  1.0000
  C   C52       1.0  0.28578  0.74399  0.36433  1.0000
  C   C53       1.0  0.30203  0.77827  0.33676  1.0000
  C   C54       1.0  0.28294  0.79477  0.32358  1.0000
  N   N25       1.0  0.33598  0.79511  0.32314  1.0000
  H   H50       1.0  0.34956  0.78483  0.33476  1.0000
  H   H51       1.0  0.34864  0.81928  0.31773  1.0000
  N   N26       1.0  0.29572  0.82328  0.27207  1.0000
  H   H52       1.0  0.28073  0.82967  0.24391  1.0000
  H   H53       1.0  0.31697  0.83220  0.24085  1.0000
  N   N27       1.0  0.30418  0.72795  0.35863  1.0000
  C   C55       1.0  0.28473  0.54753  0.36442  1.0000
  N   N28       1.0  0.30078  0.58197  0.35868  1.0000
  C   C56       1.0  0.32527  0.68775  0.35810  1.0000
  C   C57       1.0  0.31663  0.65349  0.35803  1.0000
  C   C58       1.0  0.34098  0.64325  0.35814  1.0000
  C   C59       1.0  0.37524  0.66888  0.35810  1.0000
  C   C60       1.0  0.38548  0.70346  0.35813  1.0000
  C   C61       1.0  0.35985  0.71210  0.35806  1.0000
  H   H54       1.0  0.39331  0.66217  0.35898  1.0000
  H   H55       1.0  0.36656  0.73688  0.35889  1.0000
  H   H56       1.0  0.29185  0.63542  0.35887  1.0000
  C   C62       1.0  0.33240  0.60900  0.36024  1.0000
  C   C63       1.0  0.41973  0.72914  0.36021  1.0000
  C   C64       1.0  0.29959  0.69633  0.36014  1.0000
  H   H57       1.0  0.27540  0.67705  0.35853  1.0000
  H   H58       1.0  0.35168  0.60409  0.35878  1.0000
  C   C65       1.0  0.28403  0.99349  0.37920  1.0000
  C   C66       1.0  0.30053  0.52909  0.39244  1.0000
  N   N29       1.0  0.32906  0.54483  0.44392  1.0000
  H   H59       1.0  0.33776  0.53234  0.47532  1.0000
  H   H60       1.0  0.33538  0.56617  0.47214  1.0000
  N   N30       1.0  0.30088  0.97639  0.39266  1.0000
  H   H61       1.0  0.29061  0.95253  0.38098  1.0000
  H   H62       1.0  0.32506  0.98791  0.39796  1.0000
  C   C67       1.0  0.48120  0.24296  0.36439  1.0000
  C   C68       1.0  0.49923  0.22670  0.33682  1.0000
  N   N31       1.0  0.48213  0.19276  0.32320  1.0000
  H   H63       1.0  0.45827  0.17917  0.33481  1.0000
  H   H64       1.0  0.49364  0.18010  0.31779  1.0000
  N   N32       1.0  0.44676  0.22455  0.35870  1.0000
  H   H65       1.0  0.42464  0.25333  0.35860  1.0000
  C   C69       1.0  0.49966  0.27719  0.39236  1.0000
  N   N33       1.0  0.48394  0.28995  0.44394  1.0000
  H   H66       1.0  0.49623  0.31126  0.47498  1.0000
  H   H67       1.0  0.46247  0.27512  0.47184  1.0000
  C   C70       1.0  0.48120  0.74295  0.36439  1.0000
  C   C71       1.0  0.49923  0.72670  0.33682  1.0000
  N   N34       1.0  0.48213  0.69276  0.32320  1.0000
  H   H68       1.0  0.45827  0.67917  0.33481  1.0000
  H   H69       1.0  0.49364  0.68010  0.31779  1.0000
  N   N35       1.0  0.44676  0.72455  0.35870  1.0000
  H   H70       1.0  0.42464  0.75333  0.35860  1.0000
  C   C72       1.0  0.49966  0.77719  0.39236  1.0000
  N   N36       1.0  0.48394  0.78995  0.44394  1.0000
  H   H71       1.0  0.49623  0.81126  0.47498  1.0000
  H   H72       1.0  0.46247  0.77512  0.47184  1.0000
  C   C73       1.0  0.53483  0.24580  0.32364  1.0000
  H   H73       1.0  0.53822  0.21177  0.24091  1.0000
  C   C74       1.0  0.53526  0.29630  0.37922  1.0000
  H   H74       1.0  0.54086  0.34290  0.39828  1.0000
  C   C75       1.0  0.53483  0.74580  0.32364  1.0000
  H   H75       1.0  0.53822  0.71177  0.24091  1.0000
  C   C76       1.0  0.53526  0.79630  0.37922  1.0000
  H   H76       1.0  0.54086  0.84290  0.39828  1.0000
  C   C77       1.0  0.78578  0.24399  0.36433  1.0000
  C   C78       1.0  0.80203  0.27827  0.33676  1.0000
  C   C79       1.0  0.78294  0.29477  0.32358  1.0000
  N   N37       1.0  0.83598  0.29511  0.32314  1.0000
  H   H77       1.0  0.84957  0.28483  0.33476  1.0000
  H   H78       1.0  0.84864  0.31928  0.31773  1.0000
  N   N38       1.0  0.79572  0.32328  0.27207  1.0000
  H   H79       1.0  0.78073  0.32967  0.24391  1.0000
  H   H80       1.0  0.81697  0.33219  0.24085  1.0000
  N   N39       1.0  0.80418  0.22795  0.35863  1.0000
  C   C80       1.0  0.78474  0.04753  0.36442  1.0000
  C   C81       1.0  0.75045  0.02951  0.33689  1.0000
  C   C82       1.0  0.73396  0.49391  0.32367  1.0000
  N   N40       1.0  0.73359  0.04660  0.32323  1.0000
  H   H81       1.0  0.74386  0.07041  0.33556  1.0000
  H   H82       1.0  0.70939  0.03497  0.31873  1.0000
  N   N41       1.0  0.70550  0.47820  0.27197  1.0000
  H   H83       1.0  0.69877  0.45671  0.24418  1.0000
  H   H84       1.0  0.69657  0.49058  0.24088  1.0000
  N   N42       1.0  0.80078  0.08197  0.35868  1.0000
  C   C83       1.0  0.98120  0.24296  0.36439  1.0000
  C   C84       1.0  0.99924  0.22670  0.33682  1.0000
  N   N43       1.0  0.98213  0.19276  0.32320  1.0000
  H   H85       1.0  0.95827  0.17917  0.33481  1.0000
  H   H86       1.0  0.99364  0.18010  0.31779  1.0000
  N   N44       1.0  0.55056  0.23302  0.27213  1.0000
  H   H87       1.0  0.57194  0.24801  0.24398  1.0000
  N   N45       1.0  0.94676  0.22455  0.35870  1.0000
  C   C85       1.0  0.70922  0.33523  0.35778  1.0000
  C   C86       1.0  0.71786  0.36950  0.35784  1.0000
  C   C87       1.0  0.69351  0.37974  0.35782  1.0000
  C   C88       1.0  0.65925  0.35411  0.35791  1.0000
  C   C89       1.0  0.64901  0.31953  0.35784  1.0000
  C   C90       1.0  0.67464  0.31089  0.35787  1.0000
  H   H88       1.0  0.64117  0.36081  0.35708  1.0000
  H   H89       1.0  0.66793  0.28611  0.35699  1.0000
  H   H90       1.0  0.74264  0.38757  0.35698  1.0000
  C   C91       1.0  0.70209  0.41399  0.35578  1.0000
  C   C92       1.0  0.61476  0.29385  0.35576  1.0000
  C   C93       1.0  0.73490  0.32666  0.35569  1.0000
  H   H91       1.0  0.75909  0.34593  0.35722  1.0000
  H   H92       1.0  0.60985  0.26966  0.35728  1.0000
  H   H93       1.0  0.68281  0.41890  0.35743  1.0000
  C   C94       1.0  0.82527  0.18776  0.35810  1.0000
  C   C95       1.0  0.81663  0.15349  0.35803  1.0000
  C   C96       1.0  0.84098  0.14325  0.35814  1.0000
  C   C97       1.0  0.87524  0.16888  0.35810  1.0000
  C   C98       1.0  0.88548  0.20346  0.35813  1.0000
  C   C99       1.0  0.85985  0.21210  0.35806  1.0000
  H   H94       1.0  0.89332  0.16217  0.35898  1.0000
  H   H95       1.0  0.86656  0.23688  0.35889  1.0000
  H   H96       1.0  0.79185  0.13542  0.35887  1.0000
  C   C100      1.0  0.83240  0.10900  0.36024  1.0000
  C   C101      1.0  0.91973  0.22914  0.36021  1.0000
  C   C102      1.0  0.79959  0.19633  0.36014  1.0000
  H   H97       1.0  0.77540  0.17705  0.35853  1.0000
  H   H98       1.0  0.92464  0.25333  0.35860  1.0000
  H   H99       1.0  0.85168  0.10409  0.35878  1.0000
  C   C103      1.0  0.74870  0.27899  0.35162  1.0000
  C   C104      1.0  0.73244  0.24471  0.37916  1.0000
  C   C105      1.0  0.75154  0.22821  0.39230  1.0000
  N   N46       1.0  0.73878  0.19972  0.44388  1.0000
  H   H100      1.0  0.71747  0.19071  0.47492  1.0000
  H   H101      1.0  0.75361  0.19309  0.47178  1.0000
  N   N47       1.0  0.69850  0.22788  0.39283  1.0000
  H   H102      1.0  0.68491  0.23816  0.38125  1.0000
  H   H103      1.0  0.68583  0.20370  0.39822  1.0000
  N   N48       1.0  0.73030  0.29503  0.35728  1.0000
  C   C106      1.0  0.74974  0.47546  0.35167  1.0000
  C   C107      1.0  0.78403  0.49349  0.37920  1.0000
  C   C108      1.0  0.80053  0.02909  0.39244  1.0000
  N   N49       1.0  0.82906  0.04484  0.44392  1.0000
  H   H104      1.0  0.83776  0.03234  0.47532  1.0000
  H   H105      1.0  0.83538  0.06617  0.47214  1.0000
  N   N50       1.0  0.80088  0.47639  0.39266  1.0000
  H   H106      1.0  0.79061  0.45253  0.38098  1.0000
  H   H107      1.0  0.82506  0.48791  0.39796  1.0000
  N   N51       1.0  0.73371  0.44102  0.35732  1.0000
  C   C109      1.0  0.55329  0.28004  0.35168  1.0000
  C   C110      1.0  0.99966  0.27719  0.39236  1.0000
  N   N52       1.0  0.98394  0.28995  0.44394  1.0000
  H   H108      1.0  0.99623  0.31126  0.47498  1.0000
  H   H109      1.0  0.96247  0.27512  0.47184  1.0000
  N   N53       1.0  0.55237  0.33024  0.39288  1.0000
  H   H110      1.0  0.57623  0.34382  0.38131  1.0000
  N   N54       1.0  0.58773  0.29844  0.35735  1.0000
  C   C111      1.0  0.78578  0.74399  0.36433  1.0000
  C   C112      1.0  0.80203  0.77827  0.33676  1.0000
  C   C113      1.0  0.78294  0.79477  0.32358  1.0000
  N   N55       1.0  0.83598  0.79511  0.32314  1.0000
  H   H111      1.0  0.84957  0.78483  0.33476  1.0000
  H   H112      1.0  0.84864  0.81928  0.31773  1.0000
  N   N56       1.0  0.79572  0.82328  0.27207  1.0000
  H   H113      1.0  0.78073  0.82967  0.24391  1.0000
  H   H114      1.0  0.81697  0.83220  0.24085  1.0000
  N   N57       1.0  0.80418  0.72795  0.35863  1.0000
  C   C114      1.0  0.78474  0.54753  0.36442  1.0000
  C   C115      1.0  0.75045  0.52950  0.33689  1.0000
  C   C116      1.0  0.73396  0.99391  0.32367  1.0000
  N   N58       1.0  0.73359  0.54660  0.32323  1.0000
  H   H115      1.0  0.74386  0.57041  0.33556  1.0000
  H   H116      1.0  0.70939  0.53497  0.31873  1.0000
  N   N59       1.0  0.70550  0.97820  0.27197  1.0000
  H   H117      1.0  0.69877  0.95671  0.24418  1.0000
  H   H118      1.0  0.69657  0.99058  0.24088  1.0000
  N   N60       1.0  0.80078  0.58197  0.35868  1.0000
  C   C117      1.0  0.98120  0.74295  0.36439  1.0000
  C   C118      1.0  0.99923  0.72670  0.33682  1.0000
  N   N61       1.0  0.98213  0.69276  0.32320  1.0000
  H   H119      1.0  0.95827  0.67917  0.33481  1.0000
  H   H120      1.0  0.99364  0.68010  0.31779  1.0000
  N   N62       1.0  0.55056  0.73302  0.27213  1.0000
  H   H121      1.0  0.57194  0.74801  0.24398  1.0000
  N   N63       1.0  0.94676  0.72455  0.35870  1.0000
  C   C119      1.0  0.70922  0.83523  0.35778  1.0000
  C   C120      1.0  0.71786  0.86950  0.35784  1.0000
  C   C121      1.0  0.69351  0.87974  0.35782  1.0000
  C   C122      1.0  0.65925  0.85411  0.35791  1.0000
  C   C123      1.0  0.64901  0.81952  0.35784  1.0000
  C   C124      1.0  0.67463  0.81088  0.35787  1.0000
  H   H122      1.0  0.64118  0.86081  0.35708  1.0000
  H   H123      1.0  0.66793  0.78611  0.35699  1.0000
  H   H124      1.0  0.74264  0.88757  0.35698  1.0000
  C   C125      1.0  0.70209  0.91399  0.35578  1.0000
  C   C126      1.0  0.61475  0.79385  0.35576  1.0000
  C   C127      1.0  0.73490  0.82665  0.35569  1.0000
  H   H125      1.0  0.75909  0.84593  0.35722  1.0000
  H   H126      1.0  0.60985  0.76966  0.35728  1.0000
  H   H127      1.0  0.68281  0.91889  0.35743  1.0000
  C   C128      1.0  0.82527  0.68775  0.35810  1.0000
  C   C129      1.0  0.81663  0.65349  0.35803  1.0000
  C   C130      1.0  0.84098  0.64325  0.35814  1.0000
  C   C131      1.0  0.87524  0.66888  0.35810  1.0000
  C   C132      1.0  0.88548  0.70346  0.35813  1.0000
  C   C133      1.0  0.85985  0.71210  0.35806  1.0000
  H   H128      1.0  0.89331  0.66217  0.35898  1.0000
  H   H129      1.0  0.86656  0.73688  0.35889  1.0000
  H   H130      1.0  0.79185  0.63542  0.35887  1.0000
  C   C134      1.0  0.83240  0.60900  0.36024  1.0000
  C   C135      1.0  0.91973  0.72914  0.36021  1.0000
  C   C136      1.0  0.79959  0.69633  0.36014  1.0000
  H   H131      1.0  0.77540  0.67705  0.35853  1.0000
  H   H132      1.0  0.92464  0.75333  0.35860  1.0000
  H   H133      1.0  0.85168  0.60409  0.35878  1.0000
  C   C137      1.0  0.74870  0.77899  0.35162  1.0000
  C   C138      1.0  0.73244  0.74471  0.37916  1.0000
  C   C139      1.0  0.75154  0.72821  0.39230  1.0000
  N   N64       1.0  0.73878  0.69972  0.44388  1.0000
  H   H134      1.0  0.71747  0.69071  0.47492  1.0000
  H   H135      1.0  0.75361  0.69309  0.47178  1.0000
  N   N65       1.0  0.69850  0.72788  0.39283  1.0000
  H   H136      1.0  0.68491  0.73816  0.38125  1.0000
  H   H137      1.0  0.68583  0.70370  0.39822  1.0000
  N   N66       1.0  0.73030  0.79503  0.35728  1.0000
  C   C140      1.0  0.74974  0.97546  0.35167  1.0000
  C   C141      1.0  0.78403  0.99349  0.37920  1.0000
  C   C142      1.0  0.80053  0.52909  0.39244  1.0000
  N   N67       1.0  0.82906  0.54483  0.44392  1.0000
  H   H138      1.0  0.83776  0.53234  0.47532  1.0000
  H   H139      1.0  0.83538  0.56617  0.47214  1.0000
  N   N68       1.0  0.80088  0.97639  0.39266  1.0000
  H   H140      1.0  0.79061  0.95253  0.38098  1.0000
  H   H141      1.0  0.82506  0.98791  0.39796  1.0000
  N   N69       1.0  0.73371  0.94101  0.35732  1.0000
  C   C143      1.0  0.55329  0.78004  0.35168  1.0000
  C   C144      1.0  0.99966  0.77719  0.39236  1.0000
  N   N70       1.0  0.98394  0.78995  0.44394  1.0000
  H   H142      1.0  0.99623  0.81126  0.47498  1.0000
  H   H143      1.0  0.96247  0.77512  0.47184  1.0000
  N   N71       1.0  0.55237  0.83024  0.39288  1.0000
  H   H144      1.0  0.57623  0.84383  0.38131  1.0000
  N   N72       1.0  0.58773  0.79844  0.35735  1.0000
