data_image0
_chemical_formula_structural       HNHNCNCNO2CHCNCNO2CHNCH2NCH2CNCNO2CHCNCNO2CHNCH2NCH2NCNO2HNCNO2HC6HNC6NH7N4C6HNC6NH7N4C6HNC6NH7N4C6HNC6NH6N3C6HNC6NH6N4C2HCHNC2HCHC2NCNO2CHC3NCNO2CHCNC2HCHNC2HCHC2NCNO2CHC3NCNO2CHC2NC2HC2HCNC2HC2H
_chemical_formula_sum              "H70 N60 C120 O20"
_cell_length_a       32.6368
_cell_length_b       40.8513
_cell_length_c       14.7712
_cell_angle_alpha    88.3646
_cell_angle_beta     91.2805
_cell_angle_gamma    90.319

_space_group_name_H-M_alt    "P 1"
_space_group_IT_number       1

loop_
  _space_group_symop_operation_xyz
  'x, y, z'

loop_
  _atom_site_type_symbol
  _atom_site_label
  _atom_site_symmetry_multiplicity
  _atom_site_fract_x
  _atom_site_fract_y
  _atom_site_fract_z
  _atom_site_occupancy
  H   H1        1.0  0.79658  0.36844  0.39033  1.0000
  N   N1        1.0  0.86523  0.34542  0.35015  1.0000
  H   H2        1.0  0.16274  0.68010  0.39016  1.0000
  N   N2        1.0  0.09326  0.70397  0.35036  1.0000
  C   C1        1.0  0.16593  0.19004  0.38221  1.0000
  N   N3        1.0  0.15001  0.13292  0.37377  1.0000
  C   C2        1.0  0.17913  0.15718  0.37617  1.0000
  N   N4        1.0  0.22108  0.14962  0.37198  1.0000
  O   O1        1.0  0.23134  0.13076  0.43706  1.0000
  O   O2        1.0  0.22806  0.13537  0.29975  1.0000
  C   C3        1.0  0.19163  0.21790  0.38450  1.0000
  H   H3        1.0  0.22279  0.21611  0.38187  1.0000
  C   C4        1.0  0.79330  0.85861  0.38210  1.0000
  N   N5        1.0  0.80909  0.91589  0.37353  1.0000
  C   C5        1.0  0.78000  0.89160  0.37599  1.0000
  N   N6        1.0  0.73798  0.89928  0.37185  1.0000
  O   O3        1.0  0.72905  0.91682  0.43691  1.0000
  O   O4        1.0  0.72954  0.91501  0.29960  1.0000
  C   C6        1.0  0.76761  0.83072  0.38453  1.0000
  H   H4        1.0  0.73640  0.83258  0.38174  1.0000
  N   N7        1.0  0.79872  0.17959  0.29784  1.0000
  C   C7        1.0  0.81666  0.15062  0.28068  1.0000
  H   H5        1.0  0.82152  0.14467  0.21505  1.0000
  H   H6        1.0  0.84626  0.08995  0.27806  1.0000
  N   N8        1.0  0.15975  0.87102  0.29754  1.0000
  C   C8        1.0  0.14149  0.90035  0.28051  1.0000
  H   H7        1.0  0.13580  0.90788  0.21486  1.0000
  H   H8        1.0  0.11164  0.96099  0.27832  1.0000
  C   C9        1.0  0.25149  0.55901  0.35295  1.0000
  N   N9        1.0  0.25909  0.50310  0.31521  1.0000
  C   C10       1.0  0.25631  0.53509  0.28657  1.0000
  N   N10       1.0  0.26056  0.54410  0.19445  1.0000
  O   O5        1.0  0.23301  0.53068  0.14759  1.0000
  O   O6        1.0  0.29465  0.53497  0.16685  1.0000
  C   C11       1.0  0.24710  0.59260  0.33379  1.0000
  H   H9        1.0  0.23685  0.60064  0.27112  1.0000
  C   C12       1.0  0.70730  0.49023  0.35352  1.0000
  N   N11       1.0  0.69751  0.54678  0.31608  1.0000
  C   C13       1.0  0.69974  0.51539  0.28745  1.0000
  N   N12       1.0  0.69237  0.50811  0.19581  1.0000
  O   O7        1.0  0.71805  0.52269  0.14690  1.0000
  O   O8        1.0  0.65722  0.51747  0.17071  1.0000
  C   C14       1.0  0.71146  0.45705  0.33436  1.0000
  H   H10       1.0  0.72008  0.45037  0.27136  1.0000
  N   N13       1.0  0.01245  0.35507  0.30175  1.0000
  C   C15       1.0  0.97302  0.35590  0.26932  1.0000
  H   H11       1.0  0.96790  0.35802  0.20089  1.0000
  H   H12       1.0  0.89511  0.34125  0.23150  1.0000
  N   N14       1.0  0.94507  0.69535  0.30187  1.0000
  C   C16       1.0  0.98385  0.69522  0.26949  1.0000
  H   H13       1.0  0.98760  0.69467  0.20103  1.0000
  H   H14       1.0  0.06095  0.71079  0.23183  1.0000
  N   N15       1.0  0.45374  0.34119  0.30898  1.0000
  C   C17       1.0  0.49437  0.34115  0.28688  1.0000
  N   N16       1.0  0.50524  0.34188  0.19499  1.0000
  O   O9        1.0  0.49125  0.36713  0.15513  1.0000
  O   O10       1.0  0.49070  0.31734  0.15601  1.0000
  H   H15       1.0  0.57425  0.35694  0.28003  1.0000
  N   N17       1.0  0.50393  0.70903  0.30893  1.0000
  C   C18       1.0  0.46286  0.70949  0.28688  1.0000
  N   N18       1.0  0.45013  0.71055  0.19499  1.0000
  O   O11       1.0  0.46331  0.68607  0.15534  1.0000
  O   O12       1.0  0.46387  0.73585  0.15579  1.0000
  H   H16       1.0  0.38287  0.69382  0.28014  1.0000
  C   C19       1.0  0.95789  0.02431  0.41068  1.0000
  C   C20       1.0  0.93409  0.99593  0.39287  1.0000
  C   C21       1.0  0.89087  0.99613  0.38183  1.0000
  C   C22       1.0  0.86962  0.02643  0.38245  1.0000
  C   C23       1.0  0.89224  0.05544  0.40203  1.0000
  C   C24       1.0  0.93483  0.05339  0.42124  1.0000
  H   H17       1.0  0.94857  0.97446  0.38283  1.0000
  N   N19       1.0  0.82788  0.02696  0.37331  1.0000
  C   C25       1.0  0.00204  0.02364  0.41072  1.0000
  C   C26       1.0  0.02531  0.99434  0.42103  1.0000
  C   C27       1.0  0.06751  0.99270  0.40184  1.0000
  C   C28       1.0  0.08975  0.02214  0.38265  1.0000
  C   C29       1.0  0.06847  0.05246  0.38212  1.0000
  C   C30       1.0  0.02547  0.05241  0.39315  1.0000
  N   N20       1.0  0.13131  0.02183  0.37365  1.0000
  H   H18       1.0  0.01078  0.07407  0.38304  1.0000
  H   H19       1.0  0.14732  0.00230  0.38672  1.0000
  H   H20       1.0  0.14704  0.04180  0.36331  1.0000
  H   H21       1.0  0.81215  0.04623  0.38633  1.0000
  H   H22       1.0  0.81193  0.00723  0.36270  1.0000
  H   H23       1.0  0.94953  0.07458  0.43798  1.0000
  H   H24       1.0  0.01094  0.97279  0.43756  1.0000
  N   N21       1.0  0.09036  0.08090  0.37544  1.0000
  N   N22       1.0  0.08331  0.96193  0.39993  1.0000
  N   N23       1.0  0.87638  0.08624  0.40040  1.0000
  N   N24       1.0  0.86882  0.96783  0.37515  1.0000
  C   C31       1.0  0.21179  0.33361  0.37002  1.0000
  C   C32       1.0  0.21091  0.29886  0.37951  1.0000
  C   C33       1.0  0.17396  0.28073  0.38336  1.0000
  C   C34       1.0  0.13530  0.29672  0.37937  1.0000
  C   C35       1.0  0.13432  0.33150  0.36987  1.0000
  C   C36       1.0  0.17212  0.34856  0.36019  1.0000
  H   H25       1.0  0.23750  0.28591  0.38598  1.0000
  N   N25       1.0  0.09993  0.27866  0.37386  1.0000
  C   C37       1.0  0.24994  0.35197  0.37123  1.0000
  C   C38       1.0  0.28992  0.33865  0.35782  1.0000
  C   C39       1.0  0.32689  0.35742  0.36195  1.0000
  C   C40       1.0  0.32369  0.39216  0.36614  1.0000
  C   C41       1.0  0.28497  0.40617  0.38290  1.0000
  C   C42       1.0  0.24993  0.38591  0.39006  1.0000
  N   N26       1.0  0.35687  0.41203  0.35160  1.0000
  H   H26       1.0  0.22325  0.39720  0.40474  1.0000
  H   H27       1.0  0.38219  0.40361  0.32852  1.0000
  H   H28       1.0  0.35484  0.43575  0.35190  1.0000
  H   H29       1.0  0.07435  0.28815  0.35211  1.0000
  H   H30       1.0  0.09991  0.25501  0.37781  1.0000
  H   H31       1.0  0.16987  0.37316  0.34758  1.0000
  H   H32       1.0  0.29297  0.31423  0.34730  1.0000
  N   N27       1.0  0.28119  0.43925  0.38392  1.0000
  N   N28       1.0  0.36438  0.34230  0.35817  1.0000
  N   N29       1.0  0.09825  0.34877  0.36548  1.0000
  N   N30       1.0  0.17389  0.24763  0.38443  1.0000
  C   C43       1.0  0.74709  0.71533  0.37000  1.0000
  C   C44       1.0  0.74819  0.74988  0.37954  1.0000
  C   C45       1.0  0.78523  0.76791  0.38348  1.0000
  C   C46       1.0  0.82379  0.75197  0.37964  1.0000
  C   C47       1.0  0.82456  0.71740  0.36998  1.0000
  C   C48       1.0  0.78656  0.70055  0.36023  1.0000
  H   H33       1.0  0.72174  0.76271  0.38596  1.0000
  N   N31       1.0  0.85905  0.77016  0.37436  1.0000
  C   C49       1.0  0.70895  0.69696  0.37116  1.0000
  C   C50       1.0  0.66872  0.71060  0.35769  1.0000
  C   C51       1.0  0.63181  0.69177  0.36186  1.0000
  C   C52       1.0  0.63504  0.65695  0.36624  1.0000
  C   C53       1.0  0.67408  0.64257  0.38303  1.0000
  C   C54       1.0  0.70930  0.66264  0.38998  1.0000
  N   N32       1.0  0.60155  0.63739  0.35177  1.0000
  H   H34       1.0  0.73626  0.65104  0.40480  1.0000
  H   H35       1.0  0.57565  0.64627  0.32930  1.0000
  H   H36       1.0  0.60344  0.61365  0.35276  1.0000
  H   H37       1.0  0.88435  0.76114  0.35337  1.0000
  H   H38       1.0  0.85924  0.79370  0.37909  1.0000
  H   H39       1.0  0.78853  0.67622  0.34749  1.0000
  H   H40       1.0  0.66549  0.73523  0.34710  1.0000
  N   N33       1.0  0.67777  0.60945  0.38443  1.0000
  N   N34       1.0  0.59426  0.70700  0.35798  1.0000
  N   N35       1.0  0.86054  0.70022  0.36548  1.0000
  N   N36       1.0  0.78533  0.80098  0.38452  1.0000
  C   C55       1.0  0.75274  0.33011  0.37315  1.0000
  C   C56       1.0  0.75334  0.29545  0.36737  1.0000
  C   C57       1.0  0.78831  0.27828  0.33984  1.0000
  C   C58       1.0  0.82528  0.29528  0.31828  1.0000
  C   C59       1.0  0.82867  0.32876  0.34285  1.0000
  C   C60       1.0  0.79285  0.34470  0.37210  1.0000
  H   H41       1.0  0.72723  0.28206  0.37628  1.0000
  N   N37       1.0  0.85805  0.27780  0.28996  1.0000
  C   C61       1.0  0.71507  0.34856  0.38019  1.0000
  C   C62       1.0  0.67494  0.33495  0.39457  1.0000
  C   C63       1.0  0.63832  0.35394  0.39419  1.0000
  C   C64       1.0  0.64206  0.38873  0.39293  1.0000
  C   C65       1.0  0.68084  0.40317  0.37554  1.0000
  C   C66       1.0  0.71540  0.38312  0.36484  1.0000
  N   N38       1.0  0.60929  0.40816  0.40991  1.0000
  H   H42       1.0  0.74197  0.39495  0.34931  1.0000
  H   H43       1.0  0.58386  0.39903  0.43246  1.0000
  H   H44       1.0  0.61160  0.43186  0.41117  1.0000
  H   H45       1.0  0.88507  0.28697  0.28382  1.0000
  H   H46       1.0  0.85549  0.25509  0.27263  1.0000
  H   H47       1.0  0.67131  0.31020  0.40081  1.0000
  N   N39       1.0  0.68482  0.43629  0.37504  1.0000
  N   N40       1.0  0.60040  0.33906  0.39720  1.0000
  N   N41       1.0  0.79042  0.24510  0.34460  1.0000
  C   C67       1.0  0.20624  0.71879  0.37307  1.0000
  C   C68       1.0  0.20554  0.75357  0.36724  1.0000
  C   C69       1.0  0.16998  0.77134  0.34010  1.0000
  C   C70       1.0  0.13252  0.75482  0.31878  1.0000
  C   C71       1.0  0.12967  0.72080  0.34308  1.0000
  C   C72       1.0  0.16610  0.70423  0.37204  1.0000
  H   H48       1.0  0.23185  0.76676  0.37592  1.0000
  N   N42       1.0  0.09911  0.77293  0.29122  1.0000
  C   C73       1.0  0.24404  0.70019  0.38014  1.0000
  C   C74       1.0  0.28445  0.71354  0.39451  1.0000
  C   C75       1.0  0.32109  0.69458  0.39419  1.0000
  C   C76       1.0  0.31734  0.65981  0.39305  1.0000
  C   C77       1.0  0.27824  0.64571  0.37552  1.0000
  C   C78       1.0  0.24344  0.66596  0.36465  1.0000
  N   N43       1.0  0.35049  0.64008  0.41018  1.0000
  H   H49       1.0  0.21658  0.65441  0.34921  1.0000
  H   H50       1.0  0.37629  0.64877  0.43308  1.0000
  H   H51       1.0  0.34815  0.61635  0.41181  1.0000
  H   H52       1.0  0.07193  0.76391  0.28557  1.0000
  H   H53       1.0  0.10127  0.79603  0.27425  1.0000
  H   H54       1.0  0.28820  0.73816  0.40076  1.0000
  N   N44       1.0  0.27434  0.61260  0.37487  1.0000
  N   N45       1.0  0.35905  0.70942  0.39714  1.0000
  N   N46       1.0  0.16816  0.80444  0.34453  1.0000
  N   N47       1.0  0.12478  0.19488  0.38486  1.0000
  C   C79       1.0  0.09607  0.17099  0.38222  1.0000
  C   C80       1.0  0.10888  0.13828  0.37649  1.0000
  H   H55       1.0  0.06583  0.17718  0.38509  1.0000
  C   C81       1.0  0.07978  0.11285  0.37621  1.0000
  H   H56       1.0  0.04962  0.11888  0.38166  1.0000
  N   N48       1.0  0.83449  0.85370  0.38469  1.0000
  C   C82       1.0  0.86317  0.87762  0.38197  1.0000
  C   C83       1.0  0.85027  0.91044  0.37622  1.0000
  H   H57       1.0  0.89347  0.87134  0.38479  1.0000
  C   C84       1.0  0.87939  0.93587  0.37591  1.0000
  H   H58       1.0  0.90966  0.92971  0.38124  1.0000
  C   C85       1.0  0.79043  0.18968  0.38249  1.0000
  C   C86       1.0  0.83071  0.13052  0.35400  1.0000
  N   N49       1.0  0.82309  0.14073  0.43882  1.0000
  C   C87       1.0  0.80248  0.16880  0.45665  1.0000
  N   N50       1.0  0.79605  0.17760  0.54679  1.0000
  O   O13       1.0  0.77507  0.15597  0.58656  1.0000
  O   O14       1.0  0.82969  0.18007  0.58911  1.0000
  C   C88       1.0  0.77189  0.22047  0.39077  1.0000
  H   H59       1.0  0.75875  0.22620  0.45045  1.0000
  C   C89       1.0  0.84921  0.10014  0.34049  1.0000
  C   C90       1.0  0.16904  0.85887  0.38223  1.0000
  C   C91       1.0  0.12822  0.91864  0.35383  1.0000
  N   N51       1.0  0.13686  0.90637  0.43865  1.0000
  C   C92       1.0  0.15775  0.87790  0.45650  1.0000
  N   N52       1.0  0.16531  0.86693  0.54662  1.0000
  O   O15       1.0  0.18671  0.88763  0.58783  1.0000
  O   O16       1.0  0.13219  0.86337  0.58755  1.0000
  C   C93       1.0  0.18804  0.82803  0.39033  1.0000
  H   H60       1.0  0.20192  0.82090  0.45031  1.0000
  C   C94       1.0  0.10953  0.94934  0.34042  1.0000
  N   N53       1.0  0.24754  0.54852  0.44061  1.0000
  C   C95       1.0  0.24741  0.51647  0.46734  1.0000
  C   C96       1.0  0.25475  0.49259  0.40272  1.0000
  H   H61       1.0  0.24398  0.51028  0.53430  1.0000
  C   C97       1.0  0.25427  0.45893  0.42382  1.0000
  H   H62       1.0  0.24118  0.45048  0.48237  1.0000
  N   N54       1.0  0.71422  0.49903  0.44069  1.0000
  C   C98       1.0  0.71478  0.53056  0.46723  1.0000
  C   C99       1.0  0.70486  0.55563  0.40308  1.0000
  H   H63       1.0  0.72057  0.53548  0.53377  1.0000
  C   C100      1.0  0.70538  0.58885  0.42425  1.0000
  H   H64       1.0  0.72056  0.59631  0.48152  1.0000
  C   C101      1.0  0.02299  0.35069  0.39096  1.0000
  C   C102      1.0  0.94003  0.35206  0.32947  1.0000
  N   N55       1.0  0.95051  0.34838  0.41879  1.0000
  C   C103      1.0  0.99000  0.34747  0.45220  1.0000
  N   N56       1.0  0.99738  0.34232  0.54597  1.0000
  O   O17       1.0  0.98212  0.31551  0.57239  1.0000
  O   O18       1.0  0.98145  0.36473  0.58952  1.0000
  C   C104      1.0  0.06430  0.34409  0.41690  1.0000
  H   H65       1.0  0.06898  0.33175  0.47753  1.0000
  C   C105      1.0  0.89924  0.34681  0.29826  1.0000
  C   C106      1.0  0.93631  0.69773  0.39113  1.0000
  C   C107      1.0  0.01804  0.69773  0.32970  1.0000
  N   N57       1.0  0.00933  0.69944  0.41904  1.0000
  C   C108      1.0  0.97051  0.69959  0.45243  1.0000
  N   N58       1.0  0.96499  0.70268  0.54624  1.0000
  O   O19       1.0  0.98077  0.72890  0.57298  1.0000
  O   O20       1.0  0.98179  0.67931  0.58954  1.0000
  C   C109      1.0  0.89550  0.70374  0.41704  1.0000
  H   H66       1.0  0.89200  0.71474  0.47780  1.0000
  C   C110      1.0  0.05819  0.70373  0.29851  1.0000
  C   C111      1.0  0.52503  0.34063  0.35717  1.0000
  N   N59       1.0  0.51110  0.34032  0.44342  1.0000
  C   C112      1.0  0.47061  0.34112  0.46449  1.0000
  C   C113      1.0  0.43987  0.34158  0.39508  1.0000
  H   H67       1.0  0.46300  0.34205  0.53110  1.0000
  C   C114      1.0  0.56737  0.34597  0.34106  1.0000
  C   C115      1.0  0.39807  0.34765  0.41286  1.0000
  H   H68       1.0  0.39229  0.35759  0.47419  1.0000
  C   C116      1.0  0.43361  0.70866  0.35721  1.0000
  N   N60       1.0  0.44930  0.70732  0.44344  1.0000
  C   C117      1.0  0.49022  0.70612  0.46449  1.0000
  C   C118      1.0  0.51953  0.70696  0.39503  1.0000
  H   H69       1.0  0.49918  0.70395  0.53112  1.0000
  C   C119      1.0  0.39096  0.70362  0.34108  1.0000
  C   C120      1.0  0.56171  0.70063  0.41288  1.0000
  H   H70       1.0  0.56876  0.68954  0.47432  1.0000
