data_image0
_chemical_formula_structural       C2NC2NC2NC2NC2NC2NC2NC2NC2NC2NC2NC2N2CHNCHNCHNCHNCHNCHNCHNCHNCHNCHNCHNCHC2NC2NC2NC2NC2NC2NC2NC2NC2NC2NC2NC2N2CHNCHNCHNCHNCHNCHNCHNCHNCHNCHNCHNCHCNCNCNCNCNCNCNCNCNCNCNCNCNCNCNCNCNCNCNCNCNCNCNCNCNCNCNCNCNCNCNCNCNCNCNCNCNCNCNCNCNCNCNCNCNCNCNCNCNCNCNCNCNCNCNCNCNCNCNCNCNCNCNCNCNCNCNCNCNCNCNCN2CHNCHNCHNCHNCHNCHC2NC2NC2NC2NC2NC2NC2NC2NC2NC2NC2NC2NC2NC2NC2NC2NC2NC2NC2NC2NC2NC2NC2NC2N2CHNCHNCHNCHNCHNCHC2NC2NC2NC2NC2NC2NC2NC2NC2NC2NC2NC2NC2NC2NC2NC2NC2NC2NC2NC2NC2NC2NC2NC2N
_chemical_formula_sum              "C252 N180 H36"
_cell_length_a       53.3673
_cell_length_b       53.3674
_cell_length_c       14.8504
_cell_angle_alpha    90
_cell_angle_beta     90
_cell_angle_gamma    120

_space_group_name_H-M_alt    "P 1"
_space_group_IT_number       1

loop_
  _space_group_symop_operation_xyz
  'x, y, z'

loop_
  _atom_site_type_symbol
  _atom_site_label
  _atom_site_symmetry_multiplicity
  _atom_site_fract_x
  _atom_site_fract_y
  _atom_site_fract_z
  _atom_site_occupancy
  C   C1        1.0  0.11848  0.39941  0.30499  1.0000
  C   C2        1.0  0.14272  0.45998  0.30616  1.0000
  N   N1        1.0  0.15435  0.44651  0.25844  1.0000
  C   C3        1.0  0.14336  0.41759  0.25302  1.0000
  C   C4        1.0  0.15784  0.40918  0.20324  1.0000
  N   N2        1.0  0.17086  0.40212  0.15898  1.0000
  C   C5        1.0  0.61319  0.72160  0.30450  1.0000
  C   C6        1.0  0.55264  0.68537  0.30574  1.0000
  N   N3        1.0  0.56610  0.71052  0.25827  1.0000
  C   C7        1.0  0.59502  0.72840  0.25286  1.0000
  C   C8        1.0  0.60346  0.75139  0.20350  1.0000
  N   N4        1.0  0.61054  0.77156  0.15966  1.0000
  C   C9        1.0  0.29116  0.89432  0.30466  1.0000
  C   C10       1.0  0.32736  0.86999  0.30559  1.0000
  N   N5        1.0  0.30240  0.85854  0.25721  1.0000
  C   C11       1.0  0.28454  0.86961  0.25191  1.0000
  C   C12       1.0  0.26175  0.85535  0.20156  1.0000
  N   N6        1.0  0.24176  0.84254  0.15680  1.0000
  C   C13       1.0  0.89682  0.61072  0.30458  1.0000
  C   C14       1.0  0.87251  0.55018  0.30555  1.0000
  N   N7        1.0  0.86103  0.56368  0.25729  1.0000
  C   C15       1.0  0.87207  0.59260  0.25203  1.0000
  C   C16       1.0  0.85780  0.60111  0.20162  1.0000
  N   N8        1.0  0.84498  0.60826  0.15679  1.0000
  C   C17       1.0  0.40192  0.28856  0.30465  1.0000
  C   C18       1.0  0.46249  0.32481  0.30608  1.0000
  N   N9        1.0  0.44901  0.29978  0.25798  1.0000
  C   C19       1.0  0.42009  0.28189  0.25251  1.0000
  C   C20       1.0  0.41164  0.25910  0.20224  1.0000
  N   N10       1.0  0.40456  0.23911  0.15753  1.0000
  C   C21       1.0  0.72421  0.11605  0.30448  1.0000
  C   C22       1.0  0.68801  0.14040  0.30601  1.0000
  N   N11       1.0  0.71322  0.15217  0.25881  1.0000
  C   C23       1.0  0.73111  0.14115  0.25337  1.0000
  C   C24       1.0  0.75411  0.15573  0.20412  1.0000
  N   N12       1.0  0.77429  0.16886  0.16037  1.0000
  N   N13       1.0  0.41519  0.10833  0.33442  1.0000
  C   C25       1.0  0.44461  0.12020  0.33484  1.0000
  H   H1        1.0  0.45392  0.11112  0.29655  1.0000
  N   N14       1.0  0.70324  0.59734  0.33403  1.0000
  C   C26       1.0  0.68568  0.56793  0.33451  1.0000
  H   H2        1.0  0.66737  0.55861  0.29589  1.0000
  N   N15       1.0  0.90412  0.30927  0.33447  1.0000
  C   C27       1.0  0.89225  0.32682  0.33512  1.0000
  H   H3        1.0  0.90135  0.34525  0.29704  1.0000
  N   N16       1.0  0.59984  0.90161  0.33440  1.0000
  C   C28       1.0  0.57042  0.88980  0.33510  1.0000
  H   H4        1.0  0.56110  0.89875  0.29633  1.0000
  N   N17       1.0  0.31190  0.41271  0.33444  1.0000
  C   C29       1.0  0.32947  0.44213  0.33504  1.0000
  H   H5        1.0  0.34776  0.45145  0.29631  1.0000
  N   N18       1.0  0.11089  0.70067  0.33428  1.0000
  C   C30       1.0  0.12272  0.68308  0.33481  1.0000
  H   H6        1.0  0.11381  0.66487  0.29576  1.0000
  N   N19       1.0  0.26219  0.54825  0.33669  1.0000
  C   C31       1.0  0.28887  0.55075  0.33830  1.0000
  H   H7        1.0  0.30536  0.56686  0.30224  1.0000
  N   N20       1.0  0.46430  0.71645  0.33643  1.0000
  C   C32       1.0  0.46180  0.74063  0.33817  1.0000
  H   H8        1.0  0.44571  0.74104  0.30208  1.0000
  N   N21       1.0  0.29613  0.75046  0.33574  1.0000
  C   C33       1.0  0.27194  0.72379  0.33735  1.0000
  H   H9        1.0  0.27160  0.70721  0.30187  1.0000
  N   N22       1.0  0.75301  0.46187  0.33564  1.0000
  C   C34       1.0  0.72635  0.45940  0.33724  1.0000
  H   H10       1.0  0.70978  0.44319  0.30169  1.0000
  N   N23       1.0  0.55077  0.29359  0.33640  1.0000
  C   C35       1.0  0.55325  0.26940  0.33797  1.0000
  H   H11       1.0  0.56943  0.26903  0.30225  1.0000
  N   N24       1.0  0.71897  0.25978  0.33645  1.0000
  C   C36       1.0  0.74314  0.28647  0.33835  1.0000
  H   H12       1.0  0.74364  0.30294  0.30186  1.0000
  C   C37       1.0  0.18006  0.61970  0.31608  1.0000
  C   C38       1.0  0.17559  0.56484  0.31731  1.0000
  N   N25       1.0  0.19830  0.58827  0.27902  1.0000
  C   C39       1.0  0.20128  0.61491  0.27408  1.0000
  C   C40       1.0  0.22449  0.63425  0.23288  1.0000
  N   N26       1.0  0.24501  0.65117  0.19643  1.0000
  C   C41       1.0  0.39290  0.56283  0.31629  1.0000
  C   C42       1.0  0.44773  0.61325  0.31745  1.0000
  N   N27       1.0  0.42430  0.61250  0.27903  1.0000
  C   C43       1.0  0.39766  0.58882  0.27420  1.0000
  C   C44       1.0  0.37831  0.59263  0.23282  1.0000
  N   N28       1.0  0.36138  0.59618  0.19622  1.0000
  C   C45       1.0  0.44977  0.83259  0.31629  1.0000
  C   C46       1.0  0.39935  0.83703  0.31753  1.0000
  N   N29       1.0  0.40008  0.81433  0.27920  1.0000
  C   C47       1.0  0.42374  0.81134  0.27440  1.0000
  C   C48       1.0  0.41990  0.78817  0.23309  1.0000
  N   N30       1.0  0.41632  0.76767  0.19654  1.0000
  C   C49       1.0  0.83516  0.39038  0.31628  1.0000
  C   C50       1.0  0.83964  0.44525  0.31737  1.0000
  N   N31       1.0  0.81696  0.42183  0.27892  1.0000
  C   C51       1.0  0.81396  0.39518  0.27416  1.0000
  C   C52       1.0  0.79081  0.37584  0.23273  1.0000
  N   N32       1.0  0.77033  0.35892  0.19608  1.0000
  C   C53       1.0  0.62225  0.44718  0.31639  1.0000
  C   C54       1.0  0.56739  0.39679  0.31768  1.0000
  N   N33       1.0  0.59082  0.39749  0.27942  1.0000
  C   C55       1.0  0.61747  0.42114  0.27456  1.0000
  C   C56       1.0  0.63679  0.41727  0.23325  1.0000
  N   N34       1.0  0.65369  0.41366  0.19670  1.0000
  C   C57       1.0  0.56534  0.17744  0.31632  1.0000
  C   C58       1.0  0.61577  0.17301  0.31720  1.0000
  N   N35       1.0  0.61498  0.19567  0.27875  1.0000
  C   C59       1.0  0.59131  0.19863  0.27400  1.0000
  C   C60       1.0  0.59510  0.22177  0.23254  1.0000
  N   N36       1.0  0.59863  0.24223  0.19586  1.0000
  N   N37       1.0  0.02274  0.27638  0.33663  1.0000
  C   C61       1.0  0.99324  0.25923  0.33700  1.0000
  H   H13       1.0  0.98403  0.23843  0.31401  1.0000
  N   N38       1.0  0.73619  0.74886  0.33672  1.0000
  C   C62       1.0  0.75335  0.73651  0.33726  1.0000
  H   H14       1.0  0.77411  0.74806  0.31393  1.0000
  N   N39       1.0  0.26369  0.98984  0.33702  1.0000
  C   C63       1.0  0.27603  0.01934  0.33748  1.0000
  H   H15       1.0  0.26453  0.02855  0.31375  1.0000
  N   N40       1.0  0.99239  0.73370  0.33685  1.0000
  C   C64       1.0  0.02189  0.75085  0.33735  1.0000
  H   H16       1.0  0.03112  0.77158  0.31368  1.0000
  N   N41       1.0  0.27891  0.26119  0.33664  1.0000
  C   C65       1.0  0.26176  0.27354  0.33710  1.0000
  H   H17       1.0  0.24100  0.26199  0.31370  1.0000
  N   N42       1.0  0.75135  0.02019  0.33650  1.0000
  C   C66       1.0  0.73900  0.99069  0.33700  1.0000
  H   H18       1.0  0.75059  0.98147  0.31397  1.0000
  N   N43       1.0  0.18444  0.33283  0.26727  1.0000
  C   C67       1.0  0.15942  0.33326  0.25665  1.0000
  H   H19       1.0  0.15760  0.34424  0.20300  1.0000
  N   N44       1.0  0.68005  0.85425  0.26702  1.0000
  C   C68       1.0  0.67962  0.82880  0.25640  1.0000
  H   H20       1.0  0.66884  0.81609  0.20237  1.0000
  N   N45       1.0  0.15845  0.82820  0.26756  1.0000
  C   C69       1.0  0.18391  0.85322  0.25696  1.0000
  H   H21       1.0  0.19666  0.85511  0.20309  1.0000
  N   N46       1.0  0.83070  0.67724  0.26736  1.0000
  C   C70       1.0  0.85573  0.67682  0.25663  1.0000
  H   H22       1.0  0.85748  0.66574  0.20318  1.0000
  N   N47       1.0  0.33548  0.15598  0.26739  1.0000
  C   C71       1.0  0.33592  0.18144  0.25659  1.0000
  H   H23       1.0  0.34713  0.19432  0.20335  1.0000
  N   N48       1.0  0.85679  0.18168  0.26687  1.0000
  C   C72       1.0  0.83135  0.15664  0.25614  1.0000
  H   H24       1.0  0.81857  0.15481  0.20241  1.0000
  C   C73       1.0  0.16154  0.48963  0.32457  1.0000
  N   N49       1.0  0.15622  0.51209  0.31749  1.0000
  C   C74       1.0  0.17830  0.54001  0.32882  1.0000
  N   N50       1.0  0.20542  0.54492  0.34812  1.0000
  C   C75       1.0  0.21088  0.52295  0.35950  1.0000
  N   N51       1.0  0.18876  0.49595  0.34508  1.0000
  C   C76       1.0  0.52296  0.67448  0.32397  1.0000
  N   N52       1.0  0.50052  0.64667  0.31721  1.0000
  C   C77       1.0  0.47259  0.64081  0.32865  1.0000
  N   N53       1.0  0.46765  0.66301  0.34792  1.0000
  C   C78       1.0  0.48960  0.69045  0.35906  1.0000
  N   N54       1.0  0.51660  0.69535  0.34451  1.0000
  C   C79       1.0  0.33821  0.85116  0.32353  1.0000
  N   N55       1.0  0.36602  0.85650  0.31716  1.0000
  C   C80       1.0  0.37181  0.83437  0.32847  1.0000
  N   N56       1.0  0.34955  0.80725  0.34741  1.0000
  C   C81       1.0  0.32211  0.80179  0.35827  1.0000
  N   N57       1.0  0.31728  0.82394  0.34376  1.0000
  C   C82       1.0  0.85371  0.52050  0.32352  1.0000
  N   N58       1.0  0.85906  0.49803  0.31710  1.0000
  C   C83       1.0  0.83695  0.47012  0.32844  1.0000
  N   N59       1.0  0.80981  0.46523  0.34735  1.0000
  C   C84       1.0  0.80434  0.48721  0.35819  1.0000
  N   N60       1.0  0.82648  0.51418  0.34373  1.0000
  C   C85       1.0  0.49214  0.33565  0.32444  1.0000
  N   N61       1.0  0.51461  0.36344  0.31761  1.0000
  C   C86       1.0  0.54253  0.36924  0.32893  1.0000
  N   N62       1.0  0.54741  0.34701  0.34805  1.0000
  C   C87       1.0  0.52543  0.31957  0.35922  1.0000
  N   N63       1.0  0.49845  0.31473  0.34477  1.0000
  C   C88       1.0  0.67707  0.15915  0.32430  1.0000
  N   N64       1.0  0.64926  0.15375  0.31729  1.0000
  C   C89       1.0  0.64335  0.17578  0.32863  1.0000
  N   N65       1.0  0.66550  0.20293  0.34796  1.0000
  C   C90       1.0  0.69296  0.20847  0.35930  1.0000
  N   N66       1.0  0.69791  0.18640  0.34486  1.0000
  C   C91       1.0  0.49210  0.16565  0.37073  1.0000
  N   N67       1.0  0.51341  0.15973  0.34675  1.0000
  C   C92       1.0  0.54148  0.18167  0.33469  1.0000
  N   N68       1.0  0.54759  0.20952  0.34719  1.0000
  C   C93       1.0  0.52723  0.21618  0.37135  1.0000
  N   N69       1.0  0.50016  0.19385  0.38172  1.0000
  C   C94       1.0  0.68364  0.52048  0.37060  1.0000
  N   N70       1.0  0.65642  0.49913  0.34675  1.0000
  C   C95       1.0  0.65035  0.47109  0.33444  1.0000
  N   N71       1.0  0.67214  0.46505  0.34664  1.0000
  C   C96       1.0  0.69917  0.48544  0.37059  1.0000
  N   N72       1.0  0.70385  0.51249  0.38124  1.0000
  C   C97       1.0  0.84685  0.32890  0.37143  1.0000
  N   N73       1.0  0.85280  0.35611  0.34704  1.0000
  C   C98       1.0  0.83089  0.36228  0.33490  1.0000
  N   N74       1.0  0.80304  0.34060  0.34762  1.0000
  C   C99       1.0  0.79633  0.31359  0.37209  1.0000
  N   N75       1.0  0.81863  0.30880  0.38252  1.0000
  C   C100      1.0  0.52296  0.84436  0.37126  1.0000
  N   N76       1.0  0.50168  0.85028  0.34701  1.0000
  C   C101      1.0  0.47362  0.82835  0.33483  1.0000
  N   N77       1.0  0.46749  0.80050  0.34743  1.0000
  C   C102      1.0  0.48783  0.79383  0.37180  1.0000
  N   N78       1.0  0.51491  0.81616  0.38225  1.0000
  C   C103      1.0  0.33146  0.48960  0.37083  1.0000
  N   N79       1.0  0.35868  0.51090  0.34680  1.0000
  C   C104      1.0  0.36481  0.53897  0.33479  1.0000
  N   N80       1.0  0.34308  0.54509  0.34739  1.0000
  C   C105      1.0  0.31606  0.52473  0.37166  1.0000
  N   N81       1.0  0.31132  0.49765  0.38194  1.0000
  C   C106      1.0  0.16816  0.68107  0.37062  1.0000
  N   N82       1.0  0.16228  0.65386  0.34664  1.0000
  C   C107      1.0  0.18425  0.64779  0.33432  1.0000
  N   N83       1.0  0.21209  0.66957  0.34660  1.0000
  C   C108      1.0  0.21872  0.69659  0.37065  1.0000
  N   N84       1.0  0.19636  0.70127  0.38130  1.0000
  C   C109      1.0  0.11590  0.32930  0.32806  1.0000
  N   N85       1.0  0.08704  0.31145  0.34621  1.0000
  C   C110      1.0  0.06817  0.32193  0.35035  1.0000
  N   N86       1.0  0.07932  0.35079  0.33547  1.0000
  C   C111      1.0  0.10751  0.36924  0.31698  1.0000
  N   N87       1.0  0.12514  0.35779  0.31426  1.0000
  C   C112      1.0  0.68328  0.78912  0.32823  1.0000
  N   N88       1.0  0.70112  0.77809  0.34643  1.0000
  C   C113      1.0  0.69065  0.74875  0.35034  1.0000
  N   N89       1.0  0.66179  0.73104  0.33529  1.0000
  C   C114      1.0  0.64334  0.74079  0.31677  1.0000
  N   N90       1.0  0.65480  0.76987  0.31421  1.0000
  C   C115      1.0  0.22353  0.89666  0.32875  1.0000
  N   N91       1.0  0.23449  0.92550  0.34705  1.0000
  C   C116      1.0  0.26381  0.94443  0.35102  1.0000
  N   N92       1.0  0.28159  0.93337  0.33586  1.0000
  C   C117      1.0  0.27191  0.90520  0.31717  1.0000
  N   N93       1.0  0.24283  0.88750  0.31454  1.0000
  C   C118      1.0  0.89921  0.68072  0.32833  1.0000
  N   N94       1.0  0.92806  0.69860  0.34667  1.0000
  C   C119      1.0  0.94696  0.68818  0.35080  1.0000
  N   N95       1.0  0.93589  0.65934  0.33568  1.0000
  C   C120      1.0  0.90772  0.64086  0.31695  1.0000
  N   N96       1.0  0.89004  0.65225  0.31423  1.0000
  C   C121      1.0  0.33187  0.22097  0.32793  1.0000
  N   N97       1.0  0.31401  0.23196  0.34625  1.0000
  C   C122      1.0  0.32444  0.26129  0.35043  1.0000
  N   N98       1.0  0.35329  0.27904  0.33546  1.0000
  C   C123      1.0  0.37177  0.26934  0.31680  1.0000
  N   N99       1.0  0.36035  0.24027  0.31401  1.0000
  C   C124      1.0  0.79167  0.11334  0.32797  1.0000
  N   N100      1.0  0.78061  0.08447  0.34607  1.0000
  C   C125      1.0  0.75126  0.06563  0.34998  1.0000
  N   N101      1.0  0.73358  0.07682  0.33502  1.0000
  C   C126      1.0  0.74337  0.10503  0.31661  1.0000
  N   N102      1.0  0.77245  0.12262  0.31406  1.0000
  C   C127      1.0  0.33028  0.11557  0.34811  1.0000
  N   N103      1.0  0.31198  0.08622  0.35092  1.0000
  C   C128      1.0  0.32243  0.06749  0.36063  1.0000
  N   N104      1.0  0.35170  0.07911  0.36778  1.0000
  C   C129      1.0  0.37045  0.10796  0.36625  1.0000
  N   N105      1.0  0.35909  0.12553  0.35591  1.0000
  C   C130      1.0  0.79533  0.68225  0.34815  1.0000
  N   N106      1.0  0.78427  0.70055  0.35072  1.0000
  C   C131      1.0  0.75509  0.69010  0.36024  1.0000
  N   N107      1.0  0.73744  0.66082  0.36744  1.0000
  C   C132      1.0  0.74756  0.64208  0.36614  1.0000
  N   N108      1.0  0.77650  0.65344  0.35598  1.0000
  C   C133      1.0  0.89702  0.21716  0.34795  1.0000
  N   N109      1.0  0.92638  0.22826  0.35048  1.0000
  C   C134      1.0  0.94506  0.25745  0.36000  1.0000
  N   N110      1.0  0.93339  0.27506  0.36724  1.0000
  C   C135      1.0  0.90452  0.26489  0.36594  1.0000
  N   N111      1.0  0.88699  0.23594  0.35579  1.0000
  C   C136      1.0  0.68477  0.89445  0.34821  1.0000
  N   N112      1.0  0.70306  0.92381  0.35058  1.0000
  C   C137      1.0  0.69259  0.94252  0.36000  1.0000
  N   N113      1.0  0.66332  0.93088  0.36729  1.0000
  C   C138      1.0  0.64459  0.90202  0.36615  1.0000
  N   N114      1.0  0.65597  0.88445  0.35611  1.0000
  C   C139      1.0  0.21977  0.32779  0.34811  1.0000
  N   N115      1.0  0.23082  0.30949  0.35071  1.0000
  C   C140      1.0  0.26000  0.31994  0.36030  1.0000
  N   N116      1.0  0.27765  0.34921  0.36755  1.0000
  C   C141      1.0  0.26755  0.36796  0.36621  1.0000
  N   N117      1.0  0.23861  0.35660  0.35599  1.0000
  C   C142      1.0  0.11815  0.79279  0.34857  1.0000
  N   N118      1.0  0.08879  0.78177  0.35112  1.0000
  C   C143      1.0  0.07004  0.75259  0.36061  1.0000
  N   N119      1.0  0.08164  0.73491  0.36778  1.0000
  C   C144      1.0  0.11048  0.74499  0.36648  1.0000
  N   N120      1.0  0.12809  0.77393  0.35638  1.0000
  N   N121      1.0  0.10646  0.41273  0.35247  1.0000
  C   C145      1.0  0.11708  0.44190  0.35395  1.0000
  H   H25       1.0  0.10811  0.45035  0.39637  1.0000
  N   N122      1.0  0.59983  0.69618  0.35157  1.0000
  C   C146      1.0  0.57066  0.67758  0.35280  1.0000
  H   H26       1.0  0.56219  0.66019  0.39534  1.0000
  N   N123      1.0  0.31640  0.90617  0.35259  1.0000
  C   C147      1.0  0.33499  0.89560  0.35368  1.0000
  H   H27       1.0  0.35223  0.90431  0.39685  1.0000
  N   N124      1.0  0.90872  0.59734  0.35235  1.0000
  C   C148      1.0  0.89815  0.56817  0.35347  1.0000
  H   H28       1.0  0.90691  0.55967  0.39653  1.0000
  N   N125      1.0  0.41526  0.31384  0.35243  1.0000
  C   C149      1.0  0.44443  0.33239  0.35388  1.0000
  H   H29       1.0  0.45287  0.34971  0.39676  1.0000
  N   N126      1.0  0.69874  0.10391  0.35129  1.0000
  C   C150      1.0  0.68019  0.11453  0.35274  1.0000
  H   H30       1.0  0.66269  0.10547  0.39487  1.0000
  C   C151      1.0  0.40077  0.11996  0.37784  1.0000
  C   C152      1.0  0.46172  0.14667  0.38010  1.0000
  N   N127      1.0  0.44686  0.15741  0.42498  1.0000
  C   C153      1.0  0.41786  0.14557  0.42800  1.0000
  C   C154      1.0  0.40824  0.15957  0.47513  1.0000
  N   N128      1.0  0.39982  0.17203  0.51643  1.0000
  C   C155      1.0  0.72923  0.61177  0.37778  1.0000
  C   C156      1.0  0.69495  0.55083  0.38027  1.0000
  N   N129      1.0  0.72051  0.56569  0.42536  1.0000
  C   C157      1.0  0.73767  0.59470  0.42837  1.0000
  C   C158      1.0  0.76126  0.60433  0.47567  1.0000
  N   N130      1.0  0.78210  0.61277  0.51715  1.0000
  C   C159      1.0  0.89247  0.28317  0.37763  1.0000
  C   C160      1.0  0.86579  0.31745  0.38047  1.0000
  N   N131      1.0  0.85503  0.29179  0.42498  1.0000
  C   C161      1.0  0.86686  0.27461  0.42777  1.0000
  C   C162      1.0  0.85280  0.25092  0.47456  1.0000
  N   N132      1.0  0.84030  0.22999  0.51558  1.0000
  C   C163      1.0  0.61429  0.89003  0.37796  1.0000
  C   C164      1.0  0.55335  0.86334  0.38048  1.0000
  N   N133      1.0  0.56822  0.85264  0.42549  1.0000
  C   C165      1.0  0.59723  0.86450  0.42846  1.0000
  C   C166      1.0  0.60687  0.85052  0.47560  1.0000
  N   N134      1.0  0.61531  0.83808  0.51692  1.0000
  C   C167      1.0  0.28586  0.39826  0.37795  1.0000
  C   C168      1.0  0.32004  0.45921  0.38013  1.0000
  N   N135      1.0  0.29448  0.44434  0.42522  1.0000
  C   C169      1.0  0.27737  0.41533  0.42835  1.0000
  C   C170      1.0  0.25374  0.40569  0.47549  1.0000
  N   N136      1.0  0.23287  0.39725  0.51681  1.0000
  C   C171      1.0  0.12244  0.72665  0.37814  1.0000
  C   C172      1.0  0.14917  0.69244  0.38019  1.0000
  N   N137      1.0  0.15981  0.71793  0.42563  1.0000
  C   C173      1.0  0.14793  0.73506  0.42882  1.0000
  C   C174      1.0  0.16183  0.75860  0.47639  1.0000
  N   N138      1.0  0.17419  0.77940  0.51810  1.0000
  C   C175      1.0  0.23843  0.52641  0.37779  1.0000
  C   C176      1.0  0.29200  0.52875  0.38021  1.0000
  N   N139      1.0  0.26839  0.50748  0.42261  1.0000
  C   C177      1.0  0.24221  0.50549  0.42561  1.0000
  C   C178      1.0  0.22227  0.48334  0.46950  1.0000
  N   N140      1.0  0.20469  0.46369  0.50773  1.0000
  C   C179      1.0  0.48613  0.71451  0.37755  1.0000
  C   C180      1.0  0.48379  0.76574  0.38024  1.0000
  N   N141      1.0  0.50505  0.76337  0.42265  1.0000
  C   C181      1.0  0.50703  0.73918  0.42552  1.0000
  C   C182      1.0  0.52916  0.74136  0.46942  1.0000
  N   N142      1.0  0.54880  0.74340  0.50766  1.0000
  C   C183      1.0  0.29800  0.77425  0.37640  1.0000
  C   C184      1.0  0.24679  0.72068  0.37906  1.0000
  N   N143      1.0  0.24909  0.74432  0.42109  1.0000
  C   C185      1.0  0.27326  0.77051  0.42396  1.0000
  C   C186      1.0  0.27101  0.79047  0.46755  1.0000
  N   N144      1.0  0.26890  0.80807  0.50551  1.0000
  C   C187      1.0  0.77680  0.48378  0.37638  1.0000
  C   C188      1.0  0.72325  0.48144  0.37900  1.0000
  N   N145      1.0  0.74689  0.50276  0.42112  1.0000
  C   C189      1.0  0.77306  0.50475  0.42406  1.0000
  C   C190      1.0  0.79303  0.52696  0.46765  1.0000
  N   N146      1.0  0.81063  0.54667  0.50561  1.0000
  C   C191      1.0  0.52889  0.29548  0.37732  1.0000
  C   C192      1.0  0.53126  0.24427  0.37995  1.0000
  N   N147      1.0  0.50997  0.24660  0.42216  1.0000
  C   C193      1.0  0.50796  0.27078  0.42515  1.0000
  C   C194      1.0  0.48575  0.26852  0.46877  1.0000
  N   N148      1.0  0.46604  0.26640  0.50677  1.0000
  C   C195      1.0  0.71699  0.23603  0.37778  1.0000
  C   C196      1.0  0.76821  0.28958  0.38068  1.0000
  N   N149      1.0  0.76580  0.26598  0.42328  1.0000
  C   C197      1.0  0.74160  0.23982  0.42622  1.0000
  C   C198      1.0  0.74376  0.21986  0.47018  1.0000
  N   N150      1.0  0.74579  0.20227  0.50848  1.0000
  N   N151      1.0  0.15687  0.59601  0.35305  1.0000
  C   C199      1.0  0.15325  0.56881  0.35250  1.0000
  H   H31       1.0  0.13608  0.55247  0.38580  1.0000
  N   N152      1.0  0.41661  0.56337  0.35324  1.0000
  C   C200      1.0  0.44381  0.58695  0.35258  1.0000
  H   H32       1.0  0.46016  0.58614  0.38586  1.0000
  N   N153      1.0  0.44924  0.85577  0.35322  1.0000
  C   C201      1.0  0.42565  0.85938  0.35270  1.0000
  H   H33       1.0  0.42653  0.87662  0.38569  1.0000
  N   N154      1.0  0.85832  0.41407  0.35339  1.0000
  C   C202      1.0  0.86193  0.44127  0.35283  1.0000
  H   H34       1.0  0.87914  0.45761  0.38600  1.0000
  N   N155      1.0  0.59855  0.44670  0.35320  1.0000
  C   C203      1.0  0.57137  0.42309  0.35287  1.0000
  H   H35       1.0  0.55497  0.42399  0.38557  1.0000
  N   N156      1.0  0.56590  0.15430  0.35345  1.0000
  C   C204      1.0  0.58952  0.15075  0.35297  1.0000
  H   H36       1.0  0.58869  0.13353  0.38598  1.0000
  C   C205      1.0  0.03740  0.30471  0.36327  1.0000
  C   C206      1.0  0.97592  0.27116  0.36322  1.0000
  N   N157      1.0  0.99069  0.29913  0.39130  1.0000
  C   C207      1.0  0.01983  0.31614  0.39394  1.0000
  C   C208      1.0  0.02897  0.34205  0.42548  1.0000
  N   N158      1.0  0.03689  0.36489  0.45322  1.0000
  C   C209      1.0  0.70787  0.73522  0.36346  1.0000
  C   C210      1.0  0.74141  0.70727  0.36349  1.0000
  N   N159      1.0  0.71344  0.69409  0.39160  1.0000
  C   C211      1.0  0.69644  0.70623  0.39422  1.0000
  C   C212      1.0  0.67053  0.68948  0.42578  1.0000
  N   N160      1.0  0.64768  0.67457  0.45353  1.0000
  C   C213      1.0  0.27729  0.97517  0.36421  1.0000
  C   C214      1.0  0.30524  0.03664  0.36403  1.0000
  N   N161      1.0  0.31837  0.02186  0.39273  1.0000
  C   C215      1.0  0.30622  0.99273  0.39552  1.0000
  C   C216      1.0  0.32290  0.98355  0.42761  1.0000
  N   N162      1.0  0.33774  0.97559  0.45583  1.0000
  C   C217      1.0  0.97771  0.70542  0.36400  1.0000
  C   C218      1.0  0.03919  0.73893  0.36388  1.0000
  N   N163      1.0  0.02439  0.71102  0.39248  1.0000
  C   C219      1.0  0.99526  0.69403  0.39520  1.0000
  C   C220      1.0  0.98608  0.66817  0.42721  1.0000
  N   N164      1.0  0.97812  0.64536  0.45534  1.0000
  C   C221      1.0  0.30721  0.27481  0.36361  1.0000
  C   C222      1.0  0.27368  0.30276  0.36352  1.0000
  N   N165      1.0  0.30161  0.31591  0.39194  1.0000
  C   C223      1.0  0.31861  0.30377  0.39463  1.0000
  C   C224      1.0  0.34449  0.32049  0.42645  1.0000
  N   N166      1.0  0.36732  0.33537  0.45441  1.0000
  C   C225      1.0  0.73770  0.03488  0.36304  1.0000
  C   C226      1.0  0.70975  0.97338  0.36312  1.0000
  N   N167      1.0  0.69655  0.98817  0.39102  1.0000
  C   C227      1.0  0.70868  0.01731  0.39358  1.0000
  C   C228      1.0  0.69190  0.02647  0.42493  1.0000
  N   N168      1.0  0.67697  0.03440  0.45249  1.0000
  C   C229      1.0  0.19017  0.31999  0.33716  1.0000
  C   C230      1.0  0.13784  0.32142  0.32412  1.0000
  N   N169      1.0  0.14371  0.30908  0.39558  1.0000
  C   C231      1.0  0.16822  0.30706  0.40389  1.0000
  C   C232      1.0  0.17193  0.29676  0.47885  1.0000
  N   N170      1.0  0.17538  0.28786  0.54522  1.0000
  C   C233      1.0  0.69262  0.87268  0.33743  1.0000
  C   C234      1.0  0.69113  0.81892  0.32447  1.0000
  N   N171      1.0  0.70320  0.83696  0.39643  1.0000
  C   C235      1.0  0.70522  0.86348  0.40474  1.0000
  C   C236      1.0  0.71516  0.87728  0.48022  1.0000
  N   N172      1.0  0.72373  0.88945  0.54705  1.0000
  C   C237      1.0  0.13995  0.82238  0.33775  1.0000
  C   C238      1.0  0.19374  0.87467  0.32481  1.0000
  N   N173      1.0  0.17563  0.86874  0.39656  1.0000
  C   C239      1.0  0.14908  0.84425  0.40482  1.0000
  C   C240      1.0  0.13526  0.84042  0.48024  1.0000
  N   N174      1.0  0.12308  0.83686  0.54702  1.0000
  C   C241      1.0  0.82493  0.69009  0.33718  1.0000
  C   C242      1.0  0.87725  0.68856  0.32428  1.0000
  N   N175      1.0  0.87135  0.70087  0.39578  1.0000
  C   C243      1.0  0.84687  0.70294  0.40399  1.0000
  C   C244      1.0  0.84314  0.71311  0.47918  1.0000
  N   N176      1.0  0.83966  0.72189  0.54575  1.0000
  C   C245      1.0  0.32244  0.13733  0.33700  1.0000
  C   C246      1.0  0.32403  0.19117  0.32388  1.0000
  N   N177      1.0  0.31151  0.17290  0.39511  1.0000
  C   C247      1.0  0.30939  0.14633  0.40339  1.0000
  C   C248      1.0  0.29900  0.13232  0.47829  1.0000
  N   N178      1.0  0.29001  0.11996  0.54461  1.0000
  C   C249      1.0  0.87531  0.18754  0.33705  1.0000
  C   C250      1.0  0.82150  0.13526  0.32419  1.0000
  N   N179      1.0  0.83956  0.14120  0.39603  1.0000
  C   C251      1.0  0.86609  0.16571  0.40428  1.0000
  C   C252      1.0  0.87997  0.16954  0.47959  1.0000
  N   N180      1.0  0.89221  0.17310  0.54625  1.0000
