data_image0
_chemical_formula_structural       C3NC3NC5NC4NC35H25C3H3NC3H3NC18H17C2H3NC3H3NC
_chemical_formula_sum              "C80 N8 H54"
_cell_length_a       29.8586
_cell_length_b       29.8585
_cell_length_c       14.8219
_cell_angle_alpha    90
_cell_angle_beta     90
_cell_angle_gamma    90.0717

_space_group_name_H-M_alt    "P 1"
_space_group_IT_number       1

loop_
  _space_group_symop_operation_xyz
  'x, y, z'

loop_
  _atom_site_type_symbol
  _atom_site_label
  _atom_site_symmetry_multiplicity
  _atom_site_fract_x
  _atom_site_fract_y
  _atom_site_fract_z
  _atom_site_occupancy
  C   C1        1.0  0.12499  0.08958  0.34398  1.0000
  C   C2        1.0  0.09234  0.12230  0.34404  1.0000
  C   C3        1.0  0.05047  0.10132  0.34456  1.0000
  N   N1        1.0  0.05939  0.05676  0.34414  1.0000
  C   C4        1.0  0.10393  0.04775  0.34362  1.0000
  C   C5        1.0  0.12656  0.00577  0.34328  1.0000
  C   C6        1.0  0.10489  0.96334  0.34311  1.0000
  N   N2        1.0  0.06042  0.95467  0.34311  1.0000
  C   C7        1.0  0.05167  0.91021  0.34292  1.0000
  C   C8        1.0  0.09332  0.88896  0.34292  1.0000
  C   C9        1.0  0.12606  0.92164  0.34257  1.0000
  C   C10       1.0  0.00921  0.88864  0.34329  1.0000
  C   C11       1.0  0.96729  0.91137  0.34380  1.0000
  N   N3        1.0  0.95838  0.95593  0.34396  1.0000
  C   C12       1.0  0.91383  0.96492  0.34425  1.0000
  C   C13       1.0  0.89278  0.92309  0.34452  1.0000
  C   C14       1.0  0.92542  0.89039  0.34377  1.0000
  C   C15       1.0  0.89118  0.00688  0.34470  1.0000
  N   N4        1.0  0.95731  0.05798  0.34498  1.0000
  C   C16       1.0  0.96606  0.10243  0.34500  1.0000
  C   C17       1.0  0.92440  0.12367  0.34553  1.0000
  C   C18       1.0  0.89166  0.09099  0.34510  1.0000
  C   C19       1.0  0.00853  0.12403  0.34484  1.0000
  C   C20       1.0  0.00890  0.17189  0.34434  1.0000
  C   C21       1.0  0.00173  0.19579  0.26339  1.0000
  C   C22       1.0  0.00108  0.24294  0.26320  1.0000
  C   C23       1.0  0.00787  0.26775  0.34357  1.0000
  C   C24       1.0  0.00709  0.31572  0.34303  1.0000
  C   C25       1.0  0.97294  0.38669  0.29412  1.0000
  C   C26       1.0  0.97356  0.33953  0.29544  1.0000
  C   C27       1.0  0.84331  0.00647  0.34408  1.0000
  C   C28       1.0  0.81957  0.99911  0.26301  1.0000
  C   C29       1.0  0.77242  0.99824  0.26251  1.0000
  C   C30       1.0  0.74747  0.00508  0.34268  1.0000
  C   C31       1.0  0.69951  0.00439  0.34175  1.0000
  C   C32       1.0  0.67564  0.97081  0.29427  1.0000
  C   C33       1.0  0.62848  0.97029  0.29261  1.0000
  C   C34       1.0  0.60344  0.00365  0.33757  1.0000
  C   C35       1.0  0.00871  0.84078  0.34388  1.0000
  C   C36       1.0  0.00751  0.74493  0.34534  1.0000
  C   C37       1.0  0.01476  0.76911  0.26434  1.0000
  C   C38       1.0  0.01515  0.81628  0.26342  1.0000
  C   C39       1.0  0.00714  0.69696  0.34640  1.0000
  C   C40       1.0  0.03987  0.67189  0.29918  1.0000
  C   C41       1.0  0.03995  0.62473  0.30147  1.0000
  C   C42       1.0  0.00758  0.60089  0.35195  1.0000
  C   C43       1.0  0.17442  0.00605  0.34371  1.0000
  C   C44       1.0  0.19878  0.01258  0.26308  1.0000
  C   C45       1.0  0.24596  0.01240  0.26368  1.0000
  C   C46       1.0  0.27029  0.00529  0.34452  1.0000
  C   C47       1.0  0.31827  0.00489  0.34520  1.0000
  C   C48       1.0  0.41436  0.00523  0.35009  1.0000
  C   C49       1.0  0.39055  0.03749  0.29940  1.0000
  C   C50       1.0  0.34339  0.03744  0.29741  1.0000
  H   H1        1.0  0.40740  0.06202  0.26503  1.0000
  H   H2        1.0  0.32749  0.06224  0.26217  1.0000
  H   H3        1.0  0.26242  0.01658  0.20371  1.0000
  H   H4        1.0  0.18230  0.01734  0.20329  1.0000
  H   H5        1.0  0.15863  0.09594  0.34392  1.0000
  H   H6        1.0  0.09877  0.15592  0.34390  1.0000
  H   H7        1.0  0.03662  0.03403  0.34421  1.0000
  H   H8        1.0  0.98115  0.97866  0.34381  1.0000
  H   H9        1.0  0.15971  0.91542  0.34223  1.0000
  H   H10       1.0  0.09946  0.85529  0.34308  1.0000
  H   H11       1.0  0.02015  0.83265  0.20356  1.0000
  H   H12       1.0  0.01898  0.75253  0.20452  1.0000
  H   H13       1.0  0.91897  0.85676  0.34340  1.0000
  H   H14       1.0  0.85914  0.91669  0.34508  1.0000
  H   H15       1.0  0.85800  0.09720  0.34489  1.0000
  H   H16       1.0  0.83648  0.99429  0.20372  1.0000
  H   H17       1.0  0.75640  0.99337  0.20225  1.0000
  H   H18       1.0  0.61259  0.94468  0.25973  1.0000
  H   H19       1.0  0.69244  0.94569  0.26175  1.0000
  H   H20       1.0  0.94853  0.32267  0.26263  1.0000
  H   H21       1.0  0.94739  0.40252  0.26108  1.0000
  H   H22       1.0  0.99623  0.25905  0.20306  1.0000
  H   H23       1.0  0.99676  0.17898  0.20401  1.0000
  H   H24       1.0  0.06473  0.68781  0.26403  1.0000
  H   H25       1.0  0.06458  0.60791  0.26743  1.0000
  C   C51       1.0  0.00582  0.45944  0.33905  1.0000
  C   C52       1.0  0.00752  0.48662  0.26057  1.0000
  C   C53       1.0  0.01104  0.46914  0.16743  1.0000
  H   H26       1.0  0.03940  0.44627  0.16231  1.0000
  H   H27       1.0  0.01607  0.49622  0.11892  1.0000
  H   H28       1.0  0.98045  0.45146  0.14887  1.0000
  N   N5        1.0  0.00841  0.53181  0.27220  1.0000
  C   C54       1.0  0.55581  0.00332  0.33705  1.0000
  C   C55       1.0  0.52862  0.00486  0.25856  1.0000
  C   C56       1.0  0.54611  0.00805  0.16539  1.0000
  H   H29       1.0  0.56909  0.03637  0.15990  1.0000
  H   H30       1.0  0.51905  0.01296  0.11681  1.0000
  H   H31       1.0  0.56367  0.97738  0.14722  1.0000
  N   N6        1.0  0.48343  0.00581  0.27021  1.0000
  C   C57       1.0  0.91283  0.04930  0.34512  1.0000
  C   C58       1.0  0.01541  0.24344  0.42428  1.0000
  C   C59       1.0  0.01569  0.19626  0.42486  1.0000
  C   C60       1.0  0.03969  0.34107  0.39015  1.0000
  C   C61       1.0  0.03914  0.38824  0.38877  1.0000
  C   C62       1.0  0.00616  0.41180  0.33952  1.0000
  C   C63       1.0  0.77163  0.01270  0.42355  1.0000
  C   C64       1.0  0.81880  0.01319  0.42445  1.0000
  C   C65       1.0  0.62707  0.03669  0.38668  1.0000
  C   C66       1.0  0.67424  0.03715  0.38839  1.0000
  C   C67       1.0  0.00168  0.81703  0.42507  1.0000
  C   C68       1.0  0.00090  0.76988  0.42559  1.0000
  C   C69       1.0  0.97411  0.62571  0.39718  1.0000
  C   C70       1.0  0.97413  0.67286  0.39502  1.0000
  C   C71       1.0  0.19833  0.99922  0.42476  1.0000
  C   C72       1.0  0.24548  0.99870  0.42498  1.0000
  C   C73       1.0  0.34234  0.97195  0.39393  1.0000
  C   C74       1.0  0.38950  0.97190  0.39581  1.0000
  H   H32       1.0  0.40559  0.94709  0.43069  1.0000
  H   H33       1.0  0.32570  0.94704  0.42753  1.0000
  H   H34       1.0  0.26159  0.99421  0.48523  1.0000
  H   H35       1.0  0.18152  0.99449  0.48422  1.0000
  H   H36       1.0  0.99709  0.83395  0.48443  1.0000
  H   H37       1.0  0.99636  0.75387  0.48596  1.0000
  H   H38       1.0  0.91824  0.15733  0.34589  1.0000
  H   H39       1.0  0.83517  0.01840  0.48424  1.0000
  H   H40       1.0  0.75505  0.01710  0.48331  1.0000
  H   H41       1.0  0.69000  0.06239  0.42273  1.0000
  H   H42       1.0  0.61009  0.06133  0.42034  1.0000
  H   H43       1.0  0.02066  0.17979  0.48461  1.0000
  H   H44       1.0  0.01971  0.25992  0.48420  1.0000
  H   H45       1.0  0.06367  0.40529  0.42276  1.0000
  H   H46       1.0  0.06487  0.32537  0.42465  1.0000
  H   H47       1.0  0.94911  0.68949  0.42822  1.0000
  H   H48       1.0  0.94922  0.60958  0.43188  1.0000
  C   C75       1.0  0.00975  0.54195  0.52607  1.0000
  C   C76       1.0  0.00695  0.52601  0.43171  1.0000
  H   H49       1.0  0.97868  0.53384  0.56124  1.0000
  H   H50       1.0  0.01551  0.57789  0.53100  1.0000
  H   H51       1.0  0.03745  0.52523  0.56029  1.0000
  N   N7        1.0  0.00625  0.48083  0.42003  1.0000
  C   C77       1.0  0.00763  0.55325  0.35315  1.0000
  C   C78       1.0  0.47335  0.00796  0.52407  1.0000
  C   C79       1.0  0.48925  0.00480  0.42973  1.0000
  H   H52       1.0  0.48136  0.97700  0.55968  1.0000
  H   H53       1.0  0.43744  0.01379  0.52897  1.0000
  H   H54       1.0  0.49019  0.03576  0.55787  1.0000
  N   N8        1.0  0.53443  0.00403  0.41803  1.0000
  C   C80       1.0  0.46200  0.00528  0.35119  1.0000
