data_image0
_chemical_formula_structural       C15O2H2NHC3O2H2NHC3O2H2NHC3O2H2NHC3O2H2NHC3O2H2NHC3OHOHNHC3OHOHNHC3OHOHNHC3OHOHNHC3OHOHNHC3OHOHNHC3O2H2NHC3O2H2NHC3O2H2NHC3O2H2NHC3O2H2NHC3O2H2NHC5H3C2O3C5H3C2O3C5H3C2O3C5H3C2O3C5H3C2O3C5H3C2O3C6H3C3O3C6H3C3O3C6H3C3O3C6H3C3O3C6H3C3O3C6H3C3O3C3OHOHNHC3OHOHNHC3OHOHNHC3OHOHNHC3OHOHNHC3OHOHNHC3O2H2NHC3O2H2NHC3O2H2NHC3O2H2NHC3O2H2NHC3O2H2NHC3OHOHNHC3OHOHNHC3OHOHNHC3OHOHNHC3OHOHNHC3OHOHNH
_chemical_formula_sum              "C216 O108 H144 N36"
_cell_length_a       59.3663
_cell_length_b       59.3662
_cell_length_c       15.1298
_cell_angle_alpha    90
_cell_angle_beta     90
_cell_angle_gamma    120

_space_group_name_H-M_alt    "P 1"
_space_group_IT_number       1

loop_
  _space_group_symop_operation_xyz
  'x, y, z'

loop_
  _atom_site_type_symbol
  _atom_site_label
  _atom_site_symmetry_multiplicity
  _atom_site_fract_x
  _atom_site_fract_y
  _atom_site_fract_z
  _atom_site_occupancy
  C   C1        1.0  0.09736  0.43945  0.29745  1.0000
  C   C2        1.0  0.07278  0.41628  0.29824  1.0000
  C   C3        1.0  0.56834  0.67419  0.29843  1.0000
  C   C4        1.0  0.59139  0.67258  0.30084  1.0000
  C   C5        1.0  0.33352  0.91066  0.29771  1.0000
  C   C6        1.0  0.33500  0.93527  0.29916  1.0000
  C   C7        1.0  0.90236  0.57675  0.29677  1.0000
  C   C8        1.0  0.92699  0.59986  0.29847  1.0000
  C   C9        1.0  0.43122  0.34198  0.29822  1.0000
  C   C10       1.0  0.40809  0.34346  0.29948  1.0000
  C   C11       1.0  0.66582  0.10554  0.29650  1.0000
  C   C12       1.0  0.66425  0.08089  0.29886  1.0000
  C   C13       1.0  0.23613  0.43343  0.32221  1.0000
  C   C14       1.0  0.19926  0.43280  0.24856  1.0000
  C   C15       1.0  0.22256  0.43203  0.24379  1.0000
  O   O1        1.0  0.18630  0.43191  0.17299  1.0000
  O   O2        1.0  0.23312  0.43267  0.16327  1.0000
  H   H1        1.0  0.19688  0.44853  0.14208  1.0000
  H   H2        1.0  0.22519  0.41448  0.14378  1.0000
  N   N1        1.0  0.26030  0.43641  0.31719  1.0000
  H   H3        1.0  0.26236  0.42443  0.27859  1.0000
  C   C16       1.0  0.57420  0.81917  0.32008  1.0000
  C   C17       1.0  0.57505  0.78328  0.24460  1.0000
  C   C18       1.0  0.57569  0.80731  0.24103  1.0000
  O   O3        1.0  0.57608  0.77153  0.16842  1.0000
  O   O4        1.0  0.57505  0.81749  0.16104  1.0000
  H   H4        1.0  0.55945  0.76551  0.13752  1.0000
  H   H5        1.0  0.59325  0.82787  0.14172  1.0000
  N   N2        1.0  0.57129  0.84041  0.31624  1.0000
  H   H6        1.0  0.58337  0.85464  0.27839  1.0000
  C   C19       1.0  0.18871  0.77175  0.32115  1.0000
  C   C20       1.0  0.22480  0.80859  0.24685  1.0000
  C   C21       1.0  0.20074  0.78525  0.24251  1.0000
  O   O5        1.0  0.23673  0.82150  0.17105  1.0000
  O   O6        1.0  0.19072  0.77464  0.16216  1.0000
  H   H7        1.0  0.24277  0.81093  0.14006  1.0000
  H   H8        1.0  0.18036  0.78250  0.14293  1.0000
  N   N3        1.0  0.16749  0.74760  0.31658  1.0000
  H   H9        1.0  0.15336  0.74547  0.27827  1.0000
  C   C22       1.0  0.76356  0.58290  0.32082  1.0000
  C   C23       1.0  0.80035  0.58365  0.24608  1.0000
  C   C24       1.0  0.77701  0.58438  0.24203  1.0000
  O   O7        1.0  0.81321  0.58464  0.17014  1.0000
  O   O8        1.0  0.76634  0.58379  0.16180  1.0000
  H   H10       1.0  0.80261  0.56803  0.13916  1.0000
  H   H11       1.0  0.77419  0.60200  0.14257  1.0000
  N   N4        1.0  0.73941  0.57999  0.31653  1.0000
  H   H12       1.0  0.73728  0.59195  0.27804  1.0000
  C   C25       1.0  0.42515  0.19709  0.32244  1.0000
  C   C26       1.0  0.42453  0.23324  0.24803  1.0000
  C   C27       1.0  0.42375  0.20915  0.24377  1.0000
  O   O9        1.0  0.42360  0.24518  0.17221  1.0000
  O   O10       1.0  0.42435  0.19911  0.16346  1.0000
  H   H13       1.0  0.44021  0.25117  0.14123  1.0000
  H   H14       1.0  0.40614  0.18884  0.14407  1.0000
  N   N5        1.0  0.42804  0.17584  0.31796  1.0000
  H   H15       1.0  0.41609  0.16178  0.27930  1.0000
  C   C28       1.0  0.81078  0.24459  0.32191  1.0000
  C   C29       1.0  0.77492  0.20798  0.24577  1.0000
  C   C30       1.0  0.79898  0.23134  0.24263  1.0000
  O   O11       1.0  0.76326  0.19531  0.16936  1.0000
  O   O12       1.0  0.80926  0.24223  0.16282  1.0000
  H   H16       1.0  0.75733  0.20598  0.13840  1.0000
  H   H17       1.0  0.81962  0.23439  0.14351  1.0000
  N   N6        1.0  0.83208  0.26872  0.31841  1.0000
  H   H18       1.0  0.84621  0.27088  0.28005  1.0000
  C   C31       1.0  0.14774  0.56961  0.24593  1.0000
  C   C32       1.0  0.14845  0.59373  0.24277  1.0000
  C   C33       1.0  0.14737  0.60590  0.32174  1.0000
  O   O13       1.0  0.14810  0.60412  0.16290  1.0000
  H   H19       1.0  0.16632  0.61413  0.14345  1.0000
  O   O14       1.0  0.14896  0.55810  0.16943  1.0000
  H   H20       1.0  0.13236  0.55207  0.13840  1.0000
  N   N7        1.0  0.14611  0.62825  0.31807  1.0000
  H   H21       1.0  0.15877  0.64212  0.28039  1.0000
  C   C34       1.0  0.43813  0.59501  0.24587  1.0000
  C   C35       1.0  0.41399  0.57162  0.24285  1.0000
  C   C36       1.0  0.40182  0.55844  0.32193  1.0000
  O   O15       1.0  0.40360  0.56080  0.16307  1.0000
  H   H22       1.0  0.39360  0.56899  0.14340  1.0000
  O   O16       1.0  0.44968  0.60762  0.16929  1.0000
  H   H23       1.0  0.45576  0.59702  0.13869  1.0000
  N   N8        1.0  0.37948  0.53481  0.31840  1.0000
  H   H24       1.0  0.36558  0.53357  0.28085  1.0000
  C   C37       1.0  0.41328  0.86028  0.24546  1.0000
  C   C38       1.0  0.43674  0.85967  0.24244  1.0000
  C   C39       1.0  0.44996  0.86076  0.32151  1.0000
  O   O17       1.0  0.44757  0.86014  0.16264  1.0000
  H   H25       1.0  0.43946  0.84194  0.14304  1.0000
  O   O18       1.0  0.40061  0.85910  0.16888  1.0000
  H   H26       1.0  0.41115  0.87576  0.13813  1.0000
  N   N9        1.0  0.47362  0.86211  0.31790  1.0000
  H   H27       1.0  0.47489  0.84946  0.28042  1.0000
  C   C40       1.0  0.85150  0.44646  0.24621  1.0000
  C   C41       1.0  0.85072  0.42230  0.24360  1.0000
  C   C42       1.0  0.85176  0.41023  0.32287  1.0000
  O   O19       1.0  0.85106  0.41178  0.16398  1.0000
  H   H28       1.0  0.83285  0.40178  0.14452  1.0000
  O   O20       1.0  0.85035  0.45788  0.16945  1.0000
  H   H29       1.0  0.86698  0.46387  0.13860  1.0000
  N   N10       1.0  0.85298  0.38785  0.31975  1.0000
  H   H30       1.0  0.84038  0.37393  0.28213  1.0000
  C   C43       1.0  0.56140  0.42157  0.24631  1.0000
  C   C44       1.0  0.58556  0.44494  0.24316  1.0000
  C   C45       1.0  0.59778  0.45814  0.32215  1.0000
  O   O21       1.0  0.59593  0.45571  0.16331  1.0000
  H   H31       1.0  0.60590  0.44748  0.14367  1.0000
  O   O22       1.0  0.54984  0.40892  0.16980  1.0000
  H   H32       1.0  0.54383  0.41954  0.13897  1.0000
  N   N11       1.0  0.62016  0.48174  0.31853  1.0000
  H   H33       1.0  0.63400  0.48301  0.28058  1.0000
  C   C46       1.0  0.58644  0.15643  0.24505  1.0000
  C   C47       1.0  0.56305  0.15719  0.24240  1.0000
  C   C48       1.0  0.54994  0.15616  0.32166  1.0000
  O   O23       1.0  0.55217  0.15680  0.16277  1.0000
  H   H34       1.0  0.56037  0.17501  0.14320  1.0000
  O   O24       1.0  0.59901  0.15756  0.16828  1.0000
  H   H35       1.0  0.58839  0.14091  0.13757  1.0000
  N   N12       1.0  0.52633  0.15493  0.31850  1.0000
  H   H36       1.0  0.52501  0.16751  0.28076  1.0000
  C   C49       1.0  0.02635  0.39856  0.29451  1.0000
  C   C50       1.0  0.97989  0.37493  0.25872  1.0000
  C   C51       1.0  0.00610  0.38839  0.23139  1.0000
  O   O25       1.0  0.96105  0.36823  0.19620  1.0000
  O   O26       1.0  0.01178  0.39199  0.14339  1.0000
  H   H37       1.0  0.95980  0.35326  0.16396  1.0000
  H   H38       1.0  0.01008  0.40699  0.12528  1.0000
  N   N13       1.0  0.05100  0.41551  0.26681  1.0000
  H   H39       1.0  0.05295  0.42949  0.22801  1.0000
  C   C52       1.0  0.60924  0.64398  0.29743  1.0000
  C   C53       1.0  0.63293  0.62125  0.26095  1.0000
  C   C54       1.0  0.61927  0.63383  0.23401  1.0000
  O   O27       1.0  0.63947  0.60902  0.19827  1.0000
  O   O28       1.0  0.61536  0.63570  0.14612  1.0000
  H   H40       1.0  0.65432  0.62271  0.16544  1.0000
  H   H41       1.0  0.60037  0.61892  0.12862  1.0000
  N   N14       1.0  0.59210  0.65148  0.27015  1.0000
  H   H42       1.0  0.57810  0.63936  0.23158  1.0000
  C   C55       1.0  0.36368  0.98169  0.29552  1.0000
  C   C56       1.0  0.38661  0.02814  0.25960  1.0000
  C   C57       1.0  0.37385  0.00193  0.23234  1.0000
  O   O29       1.0  0.39883  0.04696  0.19707  1.0000
  O   O30       1.0  0.37185  0.99624  0.14436  1.0000
  H   H43       1.0  0.38516  0.04823  0.16460  1.0000
  H   H44       1.0  0.38856  0.99792  0.12647  1.0000
  N   N15       1.0  0.35600  0.95705  0.26778  1.0000
  H   H45       1.0  0.36808  0.95511  0.22913  1.0000
  C   C58       1.0  0.97343  0.61762  0.29611  1.0000
  C   C59       1.0  0.01993  0.64140  0.26111  1.0000
  C   C60       1.0  0.99377  0.62777  0.23334  1.0000
  O   O31       1.0  0.03889  0.64811  0.19903  1.0000
  O   O32       1.0  0.98823  0.62401  0.14527  1.0000
  H   H46       1.0  0.04008  0.66299  0.16629  1.0000
  H   H47       1.0  0.99006  0.60904  0.12778  1.0000
  N   N16       1.0  0.94884  0.60057  0.26815  1.0000
  H   H48       1.0  0.94700  0.58657  0.22961  1.0000
  C   C61       1.0  0.39028  0.37209  0.29500  1.0000
  C   C62       1.0  0.36666  0.39486  0.25817  1.0000
  C   C63       1.0  0.38017  0.38211  0.23141  1.0000
  O   O33       1.0  0.36004  0.40696  0.19523  1.0000
  O   O34       1.0  0.38390  0.37999  0.14355  1.0000
  H   H49       1.0  0.34511  0.39321  0.16290  1.0000
  H   H50       1.0  0.39890  0.39669  0.12547  1.0000
  N   N17       1.0  0.40732  0.36445  0.26786  1.0000
  H   H51       1.0  0.42130  0.37645  0.22898  1.0000
  C   C64       1.0  0.63559  0.03445  0.29727  1.0000
  C   C65       1.0  0.61285  0.98791  0.26278  1.0000
  C   C66       1.0  0.62534  0.01404  0.23472  1.0000
  O   O35       1.0  0.60053  0.96891  0.20089  1.0000
  O   O36       1.0  0.62704  0.01949  0.14659  1.0000
  H   H52       1.0  0.61417  0.96764  0.16816  1.0000
  H   H53       1.0  0.61023  0.01765  0.12920  1.0000
  N   N18       1.0  0.64309  0.05900  0.26889  1.0000
  H   H54       1.0  0.63088  0.06078  0.23051  1.0000
  C   C67       1.0  0.14505  0.46043  0.30461  1.0000
  C   C68       1.0  0.14667  0.48502  0.30480  1.0000
  C   C69       1.0  0.12414  0.48742  0.30352  1.0000
  C   C70       1.0  0.09968  0.46432  0.30101  1.0000
  C   C71       1.0  0.12025  0.43792  0.29932  1.0000
  H   H55       1.0  0.08321  0.46569  0.30409  1.0000
  H   H56       1.0  0.11872  0.42004  0.29398  1.0000
  H   H57       1.0  0.16459  0.50141  0.30496  1.0000
  C   C72       1.0  0.16777  0.45824  0.30525  1.0000
  C   C73       1.0  0.12560  0.51215  0.30067  1.0000
  O   O37       1.0  0.07065  0.39493  0.33878  1.0000
  O   O38       1.0  0.19003  0.47832  0.27240  1.0000
  O   O39       1.0  0.10519  0.51319  0.26492  1.0000
  C   C74       1.0  0.54760  0.70116  0.30132  1.0000
  C   C75       1.0  0.52294  0.67827  0.30222  1.0000
  C   C76       1.0  0.52038  0.65328  0.30318  1.0000
  C   C77       1.0  0.54339  0.65174  0.30244  1.0000
  C   C78       1.0  0.57002  0.69868  0.29782  1.0000
  H   H58       1.0  0.54190  0.63387  0.30715  1.0000
  H   H59       1.0  0.58797  0.71493  0.29219  1.0000
  H   H60       1.0  0.50660  0.67990  0.30119  1.0000
  C   C79       1.0  0.54996  0.72615  0.30006  1.0000
  C   C80       1.0  0.49561  0.63009  0.30080  1.0000
  O   O40       1.0  0.61278  0.69194  0.34073  1.0000
  O   O41       1.0  0.52991  0.72828  0.26661  1.0000
  O   O42       1.0  0.49446  0.60847  0.26607  1.0000
  C   C81       1.0  0.30676  0.86296  0.30315  1.0000
  C   C82       1.0  0.32971  0.86131  0.30353  1.0000
  C   C83       1.0  0.35466  0.88382  0.30307  1.0000
  C   C84       1.0  0.35606  0.90830  0.30138  1.0000
  C   C85       1.0  0.30909  0.88779  0.29860  1.0000
  H   H61       1.0  0.37390  0.92475  0.30512  1.0000
  H   H62       1.0  0.29277  0.88937  0.29322  1.0000
  H   H63       1.0  0.32815  0.84337  0.30316  1.0000
  C   C86       1.0  0.28182  0.84027  0.30305  1.0000
  C   C87       1.0  0.37790  0.88235  0.30033  1.0000
  O   O43       1.0  0.31571  0.93735  0.33938  1.0000
  O   O44       1.0  0.27966  0.81805  0.26981  1.0000
  O   O45       1.0  0.39942  0.90283  0.26515  1.0000
  C   C88       1.0  0.85466  0.55594  0.30199  1.0000
  C   C89       1.0  0.85294  0.53130  0.30263  1.0000
  C   C90       1.0  0.87541  0.52879  0.30239  1.0000
  C   C91       1.0  0.89992  0.55183  0.30064  1.0000
  C   C92       1.0  0.87953  0.57839  0.29738  1.0000
  H   H64       1.0  0.91633  0.55037  0.30459  1.0000
  H   H65       1.0  0.88116  0.59631  0.29188  1.0000
  H   H66       1.0  0.83498  0.51496  0.30234  1.0000
  C   C93       1.0  0.83202  0.55827  0.30186  1.0000
  C   C94       1.0  0.87385  0.50403  0.30004  1.0000
  O   O46       1.0  0.92903  0.62125  0.33845  1.0000
  O   O47       1.0  0.80978  0.53824  0.26866  1.0000
  O   O48       1.0  0.89426  0.50287  0.26486  1.0000
  C   C95       1.0  0.45214  0.31520  0.30392  1.0000
  C   C96       1.0  0.47674  0.33815  0.30429  1.0000
  C   C97       1.0  0.47919  0.36310  0.30368  1.0000
  C   C98       1.0  0.45612  0.36451  0.30178  1.0000
  C   C99       1.0  0.42964  0.31754  0.29927  1.0000
  H   H67       1.0  0.45752  0.38236  0.30540  1.0000
  H   H68       1.0  0.41174  0.30122  0.29392  1.0000
  H   H69       1.0  0.49311  0.33659  0.30402  1.0000
  C   C100      1.0  0.44988  0.29026  0.30400  1.0000
  C   C101      1.0  0.50392  0.38634  0.30101  1.0000
  O   O49       1.0  0.38674  0.32423  0.33999  1.0000
  O   O50       1.0  0.46994  0.28808  0.27084  1.0000
  O   O51       1.0  0.50500  0.40787  0.26575  1.0000
  C   C102      1.0  0.69274  0.15325  0.30040  1.0000
  C   C103      1.0  0.66983  0.15499  0.30112  1.0000
  C   C104      1.0  0.64485  0.13253  0.30152  1.0000
  C   C105      1.0  0.64334  0.10801  0.30034  1.0000
  C   C106      1.0  0.69029  0.12836  0.29642  1.0000
  H   H70       1.0  0.62548  0.09162  0.30480  1.0000
  H   H71       1.0  0.70657  0.12671  0.29096  1.0000
  H   H72       1.0  0.67145  0.17295  0.30045  1.0000
  C   C107      1.0  0.71772  0.17589  0.29994  1.0000
  C   C108      1.0  0.62166  0.13411  0.29919  1.0000
  O   O52       1.0  0.68366  0.07891  0.33861  1.0000
  O   O53       1.0  0.71990  0.19812  0.26674  1.0000
  O   O54       1.0  0.60006  0.11367  0.26420  1.0000
  C   C109      1.0  0.45196  0.15319  0.34772  1.0000
  C   C110      1.0  0.47663  0.15498  0.34716  1.0000
  C   C111      1.0  0.47921  0.13255  0.34640  1.0000
  C   C112      1.0  0.45621  0.10800  0.34697  1.0000
  C   C113      1.0  0.43125  0.10549  0.35055  1.0000
  C   C114      1.0  0.42954  0.12828  0.35100  1.0000
  H   H73       1.0  0.45772  0.09163  0.34230  1.0000
  H   H74       1.0  0.41159  0.12657  0.35652  1.0000
  H   H75       1.0  0.49296  0.17295  0.34836  1.0000
  C   C115      1.0  0.44958  0.17581  0.34900  1.0000
  C   C116      1.0  0.40820  0.08082  0.34798  1.0000
  C   C117      1.0  0.50399  0.13416  0.34908  1.0000
  O   O55       1.0  0.38683  0.07882  0.30800  1.0000
  O   O56       1.0  0.46960  0.19797  0.38268  1.0000
  O   O57       1.0  0.50511  0.11368  0.38385  1.0000
  C   C118      1.0  0.69287  0.55609  0.34681  1.0000
  C   C119      1.0  0.66998  0.53143  0.34644  1.0000
  C   C120      1.0  0.64498  0.52888  0.34618  1.0000
  C   C121      1.0  0.64346  0.55190  0.34710  1.0000
  C   C122      1.0  0.66592  0.57684  0.35060  1.0000
  C   C123      1.0  0.69041  0.57852  0.35046  1.0000
  H   H76       1.0  0.62558  0.55041  0.34282  1.0000
  H   H77       1.0  0.70667  0.59647  0.35587  1.0000
  H   H78       1.0  0.67160  0.51509  0.34737  1.0000
  C   C124      1.0  0.71786  0.55844  0.34766  1.0000
  C   C125      1.0  0.66432  0.59990  0.34841  1.0000
  C   C126      1.0  0.62179  0.50411  0.34907  1.0000
  O   O58       1.0  0.68360  0.62126  0.30811  1.0000
  O   O59       1.0  0.72003  0.53842  0.38112  1.0000
  O   O60       1.0  0.60024  0.50303  0.38413  1.0000
  C   C127      1.0  0.85479  0.31525  0.34906  1.0000
  C   C128      1.0  0.85298  0.33812  0.34868  1.0000
  C   C129      1.0  0.87541  0.36314  0.34745  1.0000
  C   C130      1.0  0.89996  0.36471  0.34740  1.0000
  C   C131      1.0  0.90251  0.34228  0.35089  1.0000
  C   C132      1.0  0.87972  0.31777  0.35179  1.0000
  H   H79       1.0  0.91631  0.38259  0.34243  1.0000
  H   H80       1.0  0.88145  0.30154  0.35713  1.0000
  H   H81       1.0  0.83502  0.33648  0.35018  1.0000
  C   C133      1.0  0.83218  0.29024  0.35036  1.0000
  C   C134      1.0  0.92718  0.34393  0.34763  1.0000
  C   C135      1.0  0.87378  0.38630  0.35018  1.0000
  O   O61       1.0  0.92913  0.32455  0.30751  1.0000
  O   O62       1.0  0.81000  0.28808  0.38395  1.0000
  O   O63       1.0  0.89429  0.40792  0.38474  1.0000
  C   C136      1.0  0.54764  0.86320  0.34819  1.0000
  C   C137      1.0  0.52305  0.86158  0.34736  1.0000
  C   C138      1.0  0.52065  0.88411  0.34756  1.0000
  C   C139      1.0  0.54374  0.90857  0.34956  1.0000
  C   C140      1.0  0.56862  0.91091  0.35368  1.0000
  C   C141      1.0  0.57015  0.88802  0.35300  1.0000
  H   H82       1.0  0.54236  0.92503  0.34560  1.0000
  H   H83       1.0  0.58803  0.88956  0.35853  1.0000
  H   H84       1.0  0.50667  0.84365  0.34746  1.0000
  C   C142      1.0  0.54985  0.84049  0.34813  1.0000
  C   C143      1.0  0.59177  0.93550  0.35215  1.0000
  C   C144      1.0  0.49593  0.88265  0.34967  1.0000
  O   O64       1.0  0.61315  0.93751  0.31218  1.0000
  O   O65       1.0  0.52976  0.81826  0.38113  1.0000
  O   O66       1.0  0.49484  0.90312  0.38470  1.0000
  C   C145      1.0  0.30689  0.46035  0.34671  1.0000
  C   C146      1.0  0.32975  0.48504  0.34652  1.0000
  C   C147      1.0  0.35477  0.48765  0.34560  1.0000
  C   C148      1.0  0.35637  0.46468  0.34555  1.0000
  C   C149      1.0  0.33395  0.43970  0.34880  1.0000
  C   C150      1.0  0.30943  0.43795  0.34946  1.0000
  H   H85       1.0  0.37426  0.46623  0.34085  1.0000
  H   H86       1.0  0.29321  0.41998  0.35471  1.0000
  H   H87       1.0  0.32809  0.50135  0.34813  1.0000
  C   C151      1.0  0.28188  0.45793  0.34830  1.0000
  C   C152      1.0  0.33561  0.41668  0.34574  1.0000
  C   C153      1.0  0.37791  0.51245  0.34871  1.0000
  O   O67       1.0  0.31625  0.39532  0.30570  1.0000
  O   O68       1.0  0.27971  0.47791  0.38221  1.0000
  O   O69       1.0  0.39952  0.51356  0.38347  1.0000
  C   C154      1.0  0.14476  0.70109  0.34720  1.0000
  C   C155      1.0  0.14644  0.67815  0.34648  1.0000
  C   C156      1.0  0.12395  0.65319  0.34641  1.0000
  C   C157      1.0  0.09945  0.65176  0.34787  1.0000
  C   C158      1.0  0.09706  0.67427  0.35182  1.0000
  C   C159      1.0  0.11991  0.69872  0.35150  1.0000
  H   H88       1.0  0.08302  0.63391  0.34374  1.0000
  H   H89       1.0  0.11831  0.71502  0.35709  1.0000
  H   H90       1.0  0.16438  0.67972  0.34701  1.0000
  C   C160      1.0  0.16744  0.72604  0.34777  1.0000
  C   C161      1.0  0.07245  0.67277  0.35007  1.0000
  C   C162      1.0  0.12544  0.62996  0.34893  1.0000
  O   O70       1.0  0.07041  0.69210  0.30992  1.0000
  O   O71       1.0  0.18963  0.72816  0.38109  1.0000
  O   O72       1.0  0.10495  0.60839  0.38385  1.0000
  C   C163      1.0  0.22492  0.43259  0.40556  1.0000
  C   C164      1.0  0.20092  0.43200  0.41032  1.0000
  C   C165      1.0  0.18888  0.43362  0.33194  1.0000
  O   O73       1.0  0.19101  0.43263  0.49085  1.0000
  H   H91       1.0  0.18056  0.41442  0.50995  1.0000
  O   O74       1.0  0.23689  0.43151  0.48110  1.0000
  H   H92       1.0  0.24301  0.44811  0.51226  1.0000
  N   N19       1.0  0.16781  0.43678  0.33700  1.0000
  H   H93       1.0  0.15351  0.42459  0.37439  1.0000
  C   C166      1.0  0.57502  0.80852  0.40288  1.0000
  C   C167      1.0  0.57575  0.78518  0.40644  1.0000
  C   C168      1.0  0.57429  0.77183  0.32741  1.0000
  O   O75       1.0  0.57519  0.77441  0.48645  1.0000
  H   H94       1.0  0.59340  0.78229  0.50569  1.0000
  O   O76       1.0  0.57603  0.82129  0.47907  1.0000
  H   H95       1.0  0.55943  0.81066  0.51003  1.0000
  N   N20       1.0  0.57148  0.74772  0.33127  1.0000
  H   H96       1.0  0.58345  0.74559  0.36975  1.0000
  C   C169      1.0  0.19921  0.78303  0.40431  1.0000
  C   C170      1.0  0.22259  0.80704  0.40865  1.0000
  C   C171      1.0  0.23611  0.81905  0.33000  1.0000
  O   O77       1.0  0.23324  0.81705  0.48896  1.0000
  H   H97       1.0  0.22540  0.82741  0.50829  1.0000
  O   O78       1.0  0.18629  0.77111  0.48010  1.0000
  H   H98       1.0  0.19682  0.76502  0.51104  1.0000
  N   N21       1.0  0.26029  0.84023  0.33457  1.0000
  H   H99       1.0  0.26240  0.85441  0.37260  1.0000
  C   C172      1.0  0.77491  0.58368  0.40385  1.0000
  C   C173      1.0  0.79893  0.58431  0.40790  1.0000
  C   C174      1.0  0.81088  0.58280  0.32910  1.0000
  O   O79       1.0  0.80899  0.58365  0.48810  1.0000
  H   H100      1.0  0.81936  0.60185  0.50747  1.0000
  O   O80       1.0  0.76305  0.58468  0.47978  1.0000
  H   H101      1.0  0.75699  0.56806  0.51072  1.0000
  N   N22       1.0  0.83205  0.57980  0.33336  1.0000
  H   H102      1.0  0.84624  0.59177  0.37156  1.0000
  C   C175      1.0  0.42435  0.20760  0.40557  1.0000
  C   C176      1.0  0.42377  0.23101  0.40983  1.0000
  C   C177      1.0  0.42537  0.24456  0.33118  1.0000
  O   O81       1.0  0.42441  0.24166  0.49015  1.0000
  H   H103      1.0  0.40620  0.23390  0.50929  1.0000
  O   O82       1.0  0.42327  0.19465  0.48137  1.0000
  H   H104      1.0  0.43989  0.20515  0.51242  1.0000
  N   N23       1.0  0.42842  0.26875  0.33577  1.0000
  H   H105      1.0  0.41636  0.27092  0.37361  1.0000
  C   C178      1.0  0.80002  0.23302  0.40450  1.0000
  C   C179      1.0  0.77663  0.20898  0.40762  1.0000
  C   C180      1.0  0.76336  0.19721  0.32836  1.0000
  O   O83       1.0  0.76576  0.19867  0.48743  1.0000
  H   H106      1.0  0.77358  0.18828  0.50658  1.0000
  O   O84       1.0  0.81273  0.24465  0.48090  1.0000
  H   H107      1.0  0.80207  0.25057  0.51201  1.0000
  N   N24       1.0  0.73922  0.17593  0.33180  1.0000
  H   H108      1.0  0.73699  0.16174  0.37002  1.0000
  C   C181      1.0  0.14736  0.55810  0.32835  1.0000
  C   C182      1.0  0.14760  0.59471  0.40416  1.0000
  C   C183      1.0  0.14832  0.57130  0.40734  1.0000
  O   O85       1.0  0.14868  0.60735  0.48068  1.0000
  O   O86       1.0  0.14783  0.56050  0.48722  1.0000
  H   H109      1.0  0.13200  0.59677  0.51129  1.0000
  H   H110      1.0  0.16601  0.56869  0.50703  1.0000
  N   N25       1.0  0.14617  0.53452  0.33204  1.0000
  H   H111      1.0  0.15865  0.53325  0.37044  1.0000
  C   C184      1.0  0.44964  0.60618  0.32821  1.0000
  C   C185      1.0  0.41303  0.56991  0.40428  1.0000
  C   C186      1.0  0.43645  0.59403  0.40729  1.0000
  O   O87       1.0  0.40041  0.55836  0.48085  1.0000
  O   O88       1.0  0.44730  0.60437  0.48709  1.0000
  H   H112      1.0  0.41097  0.55221  0.51130  1.0000
  H   H113      1.0  0.43917  0.61444  0.50677  1.0000
  N   N26       1.0  0.47329  0.62848  0.33174  1.0000
  H   H114      1.0  0.47461  0.64244  0.36920  1.0000
  C   C187      1.0  0.40207  0.86054  0.32780  1.0000
  C   C188      1.0  0.43845  0.86041  0.40386  1.0000
  C   C189      1.0  0.41427  0.85959  0.40687  1.0000
  O   O89       1.0  0.44998  0.85932  0.48044  1.0000
  O   O90       1.0  0.40386  0.85998  0.48666  1.0000
  H   H115      1.0  0.45596  0.87595  0.51127  1.0000
  H   H116      1.0  0.39391  0.84178  0.50631  1.0000
  N   N27       1.0  0.37967  0.86173  0.33134  1.0000
  H   H117      1.0  0.36584  0.84910  0.36919  1.0000
  C   C190      1.0  0.85191  0.45809  0.32837  1.0000
  C   C191      1.0  0.85157  0.42156  0.40502  1.0000
  C   C192      1.0  0.85092  0.44501  0.40766  1.0000
  O   O91       1.0  0.85051  0.40904  0.48181  1.0000
  O   O92       1.0  0.85147  0.45597  0.48727  1.0000
  H   H118      1.0  0.86723  0.41963  0.51218  1.0000
  H   H119      1.0  0.83329  0.44784  0.50714  1.0000
  N   N28       1.0  0.85321  0.48173  0.33152  1.0000
  H   H120      1.0  0.84064  0.48305  0.36936  1.0000
  C   C193      1.0  0.54992  0.41044  0.32872  1.0000
  C   C194      1.0  0.58660  0.44670  0.40456  1.0000
  C   C195      1.0  0.56315  0.42261  0.40771  1.0000
  O   O93       1.0  0.59928  0.45824  0.48107  1.0000
  O   O94       1.0  0.55235  0.41229  0.48758  1.0000
  H   H121      1.0  0.58874  0.46438  0.51171  1.0000
  H   H122      1.0  0.56048  0.40222  0.50723  1.0000
  N   N29       1.0  0.52627  0.38812  0.33248  1.0000
  H   H123      1.0  0.52504  0.37424  0.37014  1.0000
  C   C196      1.0  0.59769  0.15607  0.32721  1.0000
  C   C197      1.0  0.56148  0.15640  0.40383  1.0000
  C   C198      1.0  0.58559  0.15708  0.40648  1.0000
  O   O95       1.0  0.55002  0.15748  0.48059  1.0000
  O   O96       1.0  0.59602  0.15658  0.48612  1.0000
  H   H124      1.0  0.54392  0.14079  0.51109  1.0000
  H   H125      1.0  0.60607  0.17477  0.50586  1.0000
  N   N30       1.0  0.62004  0.15481  0.33034  1.0000
  H   H126      1.0  0.63393  0.16733  0.36824  1.0000
  C   C199      1.0  0.02014  0.39521  0.38588  1.0000
  C   C200      1.0  0.99393  0.38274  0.41315  1.0000
  C   C201      1.0  0.97367  0.37250  0.35001  1.0000
  O   O97       1.0  0.98826  0.38107  0.50109  1.0000
  H   H127      1.0  0.99014  0.39791  0.51824  1.0000
  O   O98       1.0  0.03897  0.40753  0.44828  1.0000
  H   H128      1.0  0.04014  0.39388  0.48141  1.0000
  N   N31       1.0  0.94908  0.36511  0.37747  1.0000
  H   H129      1.0  0.94726  0.37720  0.41645  1.0000
  C   C202      1.0  0.61293  0.64136  0.38867  1.0000
  C   C203      1.0  0.62560  0.62779  0.41564  1.0000
  C   C204      1.0  0.63567  0.61769  0.35221  1.0000
  O   O99       1.0  0.62760  0.62401  0.50354  1.0000
  H   H130      1.0  0.61086  0.60903  0.52139  1.0000
  O   O100      1.0  0.60079  0.64801  0.45134  1.0000
  H   H131      1.0  0.61452  0.66290  0.48386  1.0000
  N   N32       1.0  0.64327  0.60063  0.37953  1.0000
  H   H132      1.0  0.63124  0.58666  0.41841  1.0000
  C   C205      1.0  0.36647  0.98792  0.38683  1.0000
  C   C206      1.0  0.38021  0.01413  0.41408  1.0000
  C   C207      1.0  0.39031  0.03437  0.35092  1.0000
  O   O101      1.0  0.38413  0.01981  0.50203  1.0000
  H   H133      1.0  0.39909  0.01796  0.51939  1.0000
  O   O102      1.0  0.35986  0.96909  0.44932  1.0000
  H   H134      1.0  0.34502  0.96795  0.48218  1.0000
  N   N33       1.0  0.40748  0.05898  0.37835  1.0000
  H   H135      1.0  0.42145  0.06083  0.41704  1.0000
  C   C208      1.0  0.97950  0.62115  0.38754  1.0000
  C   C209      1.0  0.00567  0.63381  0.41533  1.0000
  C   C210      1.0  0.02602  0.64406  0.35256  1.0000
  O   O103      1.0  0.01121  0.63567  0.50341  1.0000
  H   H136      1.0  0.00946  0.61892  0.52108  1.0000
  O   O104      1.0  0.96057  0.60886  0.44969  1.0000
  H   H137      1.0  0.95929  0.62252  0.48229  1.0000
  N   N34       1.0  0.05061  0.65167  0.38063  1.0000
  H   H138      1.0  0.05248  0.63955  0.41928  1.0000
  C   C211      1.0  0.38679  0.37498  0.38621  1.0000
  C   C212      1.0  0.37427  0.38872  0.41290  1.0000
  C   C213      1.0  0.36412  0.39870  0.34932  1.0000
  O   O105      1.0  0.37247  0.39276  0.50073  1.0000
  H   H139      1.0  0.38929  0.40774  0.51803  1.0000
  O   O106      1.0  0.39903  0.36850  0.44904  1.0000
  H   H140      1.0  0.38534  0.35370  0.48208  1.0000
  N   N35       1.0  0.35672  0.41595  0.37625  1.0000
  H   H141      1.0  0.36876  0.42987  0.41524  1.0000
  C   C214      1.0  0.63313  0.02847  0.38877  1.0000
  C   C215      1.0  0.61965  0.00234  0.41686  1.0000
  C   C216      1.0  0.60949  0.98193  0.35432  1.0000
  O   O107      1.0  0.61604  0.99688  0.50500  1.0000
  H   H142      1.0  0.60105  0.99864  0.52273  1.0000
  O   O108      1.0  0.63987  0.04749  0.45064  1.0000
  H   H143      1.0  0.65482  0.04879  0.48313  1.0000
  N   N36       1.0  0.59254  0.95736  0.38274  1.0000
  H   H144      1.0  0.57854  0.95552  0.42120  1.0000
