data_image0
_chemical_formula_structural       C2NCHC2NCHCNHCNHC2NCHC2NCHCNHCNHC2NCHC2NCHC2NCHC2NCHCNHCNHC2NCHC2NCHCNHCNHC2NCHC2NCHCNHCNHC2NCHC2NCHCNCNCNCNCNCNCNCNCNCNCNCNCNCNCNCNCNCNCNCNCNCNCNCNCNCNCNCNCNCNCNCNCNCNCNCNCNCNCNCNCNCNCNCNCNCNCNCNCNHCNHC2NCHC2NCHCNHCNHC2NCHC2NCHCNHCNHCNHCNHC2NCHC2NCHCNHCNHC2NCHC2NCHCNHCNHC2NCHC2NCHCNHCNH
_chemical_formula_sum              "C144 N96 H48"
_cell_length_a       43.1278
_cell_length_b       33.8188
_cell_length_c       14.6753
_cell_angle_alpha    90
_cell_angle_beta     90
_cell_angle_gamma    90

_space_group_name_H-M_alt    "P 1"
_space_group_IT_number       1

loop_
  _space_group_symop_operation_xyz
  'x, y, z'

loop_
  _atom_site_type_symbol
  _atom_site_label
  _atom_site_symmetry_multiplicity
  _atom_site_fract_x
  _atom_site_fract_y
  _atom_site_fract_z
  _atom_site_occupancy
  C   C1        1.0  0.01106  0.05243  0.35407  1.0000
  C   C2        1.0  0.01106  0.03035  0.27245  1.0000
  N   N1        1.0  0.01106  0.99013  0.27686  1.0000
  C   C3        1.0  0.01107  0.96967  0.35673  1.0000
  H   H1        1.0  0.01105  0.04398  0.21025  1.0000
  C   C4        1.0  0.51105  0.55244  0.35407  1.0000
  C   C5        1.0  0.51105  0.53035  0.27244  1.0000
  N   N2        1.0  0.51105  0.49014  0.27685  1.0000
  C   C6        1.0  0.51106  0.46967  0.35672  1.0000
  H   H2        1.0  0.51104  0.54398  0.21024  1.0000
  C   C7        1.0  0.08074  0.18886  0.27264  1.0000
  N   N3        1.0  0.10631  0.21238  0.27706  1.0000
  H   H3        1.0  0.07155  0.18183  0.21049  1.0000
  C   C8        1.0  0.94162  0.83277  0.27220  1.0000
  N   N4        1.0  0.91605  0.80925  0.27670  1.0000
  H   H4        1.0  0.95097  0.83947  0.21007  1.0000
  C   C9        1.0  0.90234  0.22363  0.35443  1.0000
  C   C10       1.0  0.91629  0.21057  0.27278  1.0000
  N   N5        1.0  0.94227  0.18777  0.27718  1.0000
  C   C11       1.0  0.95548  0.17614  0.35702  1.0000
  H   H5        1.0  0.90797  0.21914  0.21060  1.0000
  C   C12       1.0  0.11981  0.79851  0.35411  1.0000
  C   C13       1.0  0.10554  0.81099  0.27244  1.0000
  N   N6        1.0  0.07956  0.83378  0.27680  1.0000
  C   C14       1.0  0.06663  0.84594  0.35661  1.0000
  H   H6        1.0  0.11365  0.80202  0.21032  1.0000
  C   C15       1.0  0.58106  0.68841  0.27308  1.0000
  N   N7        1.0  0.60662  0.71194  0.27765  1.0000
  H   H7        1.0  0.57209  0.68106  0.21084  1.0000
  C   C16       1.0  0.44129  0.33327  0.27257  1.0000
  N   N8        1.0  0.41572  0.30975  0.27721  1.0000
  H   H8        1.0  0.45041  0.34033  0.21033  1.0000
  C   C17       1.0  0.40233  0.72361  0.35376  1.0000
  C   C18       1.0  0.41665  0.71110  0.27221  1.0000
  N   N9        1.0  0.44261  0.68828  0.27681  1.0000
  C   C19       1.0  0.45549  0.67615  0.35673  1.0000
  H   H9        1.0  0.40858  0.72003  0.21001  1.0000
  C   C20       1.0  0.61981  0.29851  0.35349  1.0000
  C   C21       1.0  0.60521  0.31051  0.27194  1.0000
  N   N10       1.0  0.57926  0.33333  0.27649  1.0000
  C   C22       1.0  0.56664  0.34597  0.35635  1.0000
  H   H10       1.0  0.61309  0.30121  0.20982  1.0000
  C   C23       1.0  0.37147  0.16278  0.35434  1.0000
  C   C24       1.0  0.37395  0.14095  0.27286  1.0000
  N   N11       1.0  0.38180  0.10215  0.27796  1.0000
  C   C25       1.0  0.38562  0.08281  0.35841  1.0000
  H   H11       1.0  0.37128  0.15402  0.21052  1.0000
  C   C26       1.0  0.65064  0.85933  0.35385  1.0000
  C   C27       1.0  0.64862  0.88133  0.27249  1.0000
  N   N12       1.0  0.64075  0.92012  0.27763  1.0000
  C   C28       1.0  0.63649  0.93932  0.35805  1.0000
  H   H12       1.0  0.65162  0.86837  0.21015  1.0000
  C   C29       1.0  0.63895  0.10475  0.27108  1.0000
  N   N13       1.0  0.64600  0.14380  0.27607  1.0000
  H   H13       1.0  0.63438  0.09228  0.20902  1.0000
  C   C30       1.0  0.38353  0.91720  0.27158  1.0000
  N   N14       1.0  0.37647  0.87816  0.27668  1.0000
  H   H14       1.0  0.38834  0.92954  0.20954  1.0000
  C   C31       1.0  0.87147  0.66277  0.35391  1.0000
  C   C32       1.0  0.87438  0.64111  0.27231  1.0000
  N   N15       1.0  0.88221  0.60231  0.27732  1.0000
  C   C33       1.0  0.88564  0.58283  0.35772  1.0000
  H   H15       1.0  0.87199  0.65431  0.21000  1.0000
  C   C34       1.0  0.15063  0.35933  0.35351  1.0000
  C   C35       1.0  0.14801  0.38114  0.27202  1.0000
  N   N16       1.0  0.14019  0.41994  0.27718  1.0000
  C   C36       1.0  0.13650  0.43930  0.35765  1.0000
  H   H16       1.0  0.15060  0.36804  0.20967  1.0000
  C   C37       1.0  0.13941  0.60459  0.27153  1.0000
  N   N17       1.0  0.14645  0.64364  0.27648  1.0000
  H   H17       1.0  0.13518  0.59201  0.20939  1.0000
  C   C38       1.0  0.88294  0.41741  0.27193  1.0000
  N   N18       1.0  0.87589  0.37837  0.27699  1.0000
  H   H18       1.0  0.88732  0.42991  0.20977  1.0000
  C   C39       1.0  0.47917  0.01110  0.35362  1.0000
  C   C40       1.0  0.49617  0.01104  0.27167  1.0000
  N   N19       1.0  0.52754  0.01107  0.27644  1.0000
  C   C41       1.0  0.54296  0.01108  0.35709  1.0000
  H   H19       1.0  0.48546  0.01104  0.20948  1.0000
  C   C42       1.0  0.97917  0.51108  0.35372  1.0000
  C   C43       1.0  0.99616  0.51105  0.27175  1.0000
  N   N20       1.0  0.02753  0.51108  0.27646  1.0000
  C   C44       1.0  0.04296  0.51107  0.35708  1.0000
  H   H20       1.0  0.98544  0.51106  0.20957  1.0000
  C   C45       1.0  0.27606  0.25953  0.27201  1.0000
  N   N21       1.0  0.24462  0.26146  0.27661  1.0000
  H   H21       1.0  0.28665  0.25774  0.20979  1.0000
  C   C46       1.0  0.74616  0.76276  0.27184  1.0000
  N   N22       1.0  0.77759  0.76083  0.27672  1.0000
  H   H22       1.0  0.73562  0.76464  0.20956  1.0000
  C   C47       1.0  0.79338  0.26214  0.35416  1.0000
  C   C48       1.0  0.77604  0.26255  0.27263  1.0000
  N   N23       1.0  0.74459  0.26063  0.27736  1.0000
  C   C49       1.0  0.72875  0.26003  0.35751  1.0000
  H   H23       1.0  0.78662  0.26430  0.21039  1.0000
  C   C50       1.0  0.22876  0.75997  0.35411  1.0000
  C   C51       1.0  0.24612  0.75948  0.27261  1.0000
  N   N24       1.0  0.27756  0.76139  0.27738  1.0000
  C   C52       1.0  0.29338  0.76210  0.35755  1.0000
  H   H24       1.0  0.23555  0.75766  0.21037  1.0000
  C   C53       1.0  0.98357  0.15482  0.35626  1.0000
  N   N25       1.0  0.98383  0.11457  0.35562  1.0000
  C   C54       1.0  0.01105  0.09414  0.35473  1.0000
  N   N26       1.0  0.03827  0.11458  0.35436  1.0000
  C   C55       1.0  0.03853  0.15483  0.35500  1.0000
  N   N27       1.0  0.01105  0.17458  0.35594  1.0000
  C   C56       1.0  0.03855  0.86727  0.35592  1.0000
  N   N28       1.0  0.03829  0.90753  0.35651  1.0000
  C   C57       1.0  0.01107  0.92797  0.35608  1.0000
  N   N29       1.0  0.98385  0.90753  0.35515  1.0000
  C   C58       1.0  0.98359  0.86728  0.35456  1.0000
  N   N30       1.0  0.01107  0.84753  0.35496  1.0000
  C   C59       1.0  0.48357  0.65483  0.35620  1.0000
  N   N31       1.0  0.48383  0.61458  0.35559  1.0000
  C   C60       1.0  0.51105  0.59414  0.35473  1.0000
  N   N32       1.0  0.53827  0.61458  0.35440  1.0000
  C   C61       1.0  0.53853  0.65483  0.35505  1.0000
  N   N33       1.0  0.51105  0.67458  0.35593  1.0000
  C   C62       1.0  0.53856  0.36728  0.35588  1.0000
  N   N34       1.0  0.53829  0.40754  0.35648  1.0000
  C   C63       1.0  0.51107  0.42797  0.35607  1.0000
  N   N35       1.0  0.48385  0.40753  0.35517  1.0000
  C   C64       1.0  0.48360  0.36728  0.35461  1.0000
  N   N36       1.0  0.51108  0.34753  0.35498  1.0000
  C   C65       1.0  0.39998  0.97630  0.35372  1.0000
  N   N37       1.0  0.38407  0.01107  0.35593  1.0000
  C   C66       1.0  0.39997  0.04586  0.35725  1.0000
  N   N38       1.0  0.43139  0.04568  0.35628  1.0000
  C   C67       1.0  0.44704  0.01110  0.35406  1.0000
  N   N39       1.0  0.43139  0.97650  0.35289  1.0000
  C   C68       1.0  0.62215  0.04585  0.35362  1.0000
  N   N40       1.0  0.63806  0.01107  0.35498  1.0000
  C   C69       1.0  0.62215  0.97629  0.35712  1.0000
  N   N41       1.0  0.59073  0.97649  0.35787  1.0000
  C   C70       1.0  0.57508  0.01108  0.35666  1.0000
  N   N42       1.0  0.59073  0.04567  0.35451  1.0000
  C   C71       1.0  0.89998  0.47630  0.35412  1.0000
  N   N43       1.0  0.88407  0.51108  0.35586  1.0000
  C   C72       1.0  0.89998  0.54586  0.35686  1.0000
  N   N44       1.0  0.93140  0.54567  0.35598  1.0000
  C   C73       1.0  0.94705  0.51108  0.35421  1.0000
  N   N45       1.0  0.93139  0.47649  0.35338  1.0000
  C   C74       1.0  0.12216  0.54583  0.35394  1.0000
  N   N46       1.0  0.13806  0.51105  0.35501  1.0000
  C   C75       1.0  0.12215  0.47627  0.35679  1.0000
  N   N47       1.0  0.09074  0.47647  0.35751  1.0000
  C   C76       1.0  0.07509  0.51106  0.35661  1.0000
  N   N48       1.0  0.09074  0.54565  0.35479  1.0000
  C   C77       1.0  0.14381  0.25185  0.35608  1.0000
  N   N49       1.0  0.17444  0.24162  0.35667  1.0000
  C   C78       1.0  0.19684  0.27012  0.35592  1.0000
  N   N50       1.0  0.18843  0.30870  0.35447  1.0000
  C   C79       1.0  0.15818  0.31923  0.35376  1.0000
  N   N51       1.0  0.13597  0.29080  0.35481  1.0000
  C   C80       1.0  0.87833  0.77024  0.35600  1.0000
  N   N52       1.0  0.84771  0.78050  0.35673  1.0000
  C   C81       1.0  0.82530  0.75201  0.35631  1.0000
  N   N53       1.0  0.83369  0.71343  0.35506  1.0000
  C   C82       1.0  0.86392  0.70288  0.35424  1.0000
  N   N54       1.0  0.88615  0.73129  0.35486  1.0000
  C   C83       1.0  0.87832  0.25189  0.35495  1.0000
  N   N55       1.0  0.84770  0.24165  0.35417  1.0000
  C   C84       1.0  0.82529  0.27015  0.35485  1.0000
  N   N56       1.0  0.83369  0.30873  0.35638  1.0000
  C   C85       1.0  0.86394  0.31926  0.35726  1.0000
  N   N57       1.0  0.88616  0.29084  0.35635  1.0000
  C   C86       1.0  0.14382  0.77024  0.35478  1.0000
  N   N58       1.0  0.17445  0.78048  0.35421  1.0000
  C   C87       1.0  0.19685  0.75197  0.35477  1.0000
  N   N59       1.0  0.18843  0.71339  0.35600  1.0000
  C   C88       1.0  0.15819  0.70287  0.35667  1.0000
  N   N60       1.0  0.13598  0.73130  0.35587  1.0000
  C   C89       1.0  0.64382  0.75185  0.35671  1.0000
  N   N61       1.0  0.67444  0.74160  0.35564  1.0000
  C   C90       1.0  0.69684  0.77010  0.35385  1.0000
  N   N62       1.0  0.68843  0.80868  0.35302  1.0000
  C   C91       1.0  0.65819  0.81922  0.35404  1.0000
  N   N63       1.0  0.63598  0.79080  0.35605  1.0000
  C   C92       1.0  0.37833  0.27026  0.35653  1.0000
  N   N64       1.0  0.34771  0.28052  0.35564  1.0000
  C   C93       1.0  0.32530  0.25203  0.35422  1.0000
  N   N65       1.0  0.33370  0.21344  0.35365  1.0000
  C   C94       1.0  0.36393  0.20289  0.35451  1.0000
  N   N66       1.0  0.38616  0.23130  0.35603  1.0000
  C   C95       1.0  0.37831  0.75187  0.35438  1.0000
  N   N67       1.0  0.34769  0.74162  0.35526  1.0000
  C   C96       1.0  0.32529  0.77012  0.35693  1.0000
  N   N68       1.0  0.33369  0.80870  0.35780  1.0000
  C   C97       1.0  0.36393  0.81924  0.35695  1.0000
  N   N69       1.0  0.38615  0.79082  0.35511  1.0000
  C   C98       1.0  0.64382  0.27025  0.35424  1.0000
  N   N70       1.0  0.67444  0.28050  0.35530  1.0000
  C   C99       1.0  0.69685  0.25200  0.35680  1.0000
  N   N71       1.0  0.68844  0.21341  0.35734  1.0000
  C   C100      1.0  0.65820  0.20287  0.35633  1.0000
  N   N72       1.0  0.63599  0.23129  0.35466  1.0000
  C   C101      1.0  0.01108  0.99176  0.43835  1.0000
  N   N73       1.0  0.01107  0.03197  0.43394  1.0000
  H   H25       1.0  0.01109  0.97813  0.50056  1.0000
  C   C102      1.0  0.51107  0.49176  0.43834  1.0000
  N   N74       1.0  0.51106  0.53197  0.43393  1.0000
  H   H26       1.0  0.51108  0.47813  0.50054  1.0000
  C   C103      1.0  0.11981  0.22357  0.35682  1.0000
  C   C104      1.0  0.10550  0.21114  0.43848  1.0000
  N   N75       1.0  0.07953  0.18835  0.43412  1.0000
  C   C105      1.0  0.06661  0.17616  0.35431  1.0000
  H   H27       1.0  0.11361  0.22013  0.50060  1.0000
  C   C106      1.0  0.90235  0.79849  0.35648  1.0000
  C   C107      1.0  0.91639  0.81144  0.43812  1.0000
  N   N76       1.0  0.94236  0.83423  0.43367  1.0000
  C   C108      1.0  0.95550  0.84596  0.35381  1.0000
  H   H28       1.0  0.90812  0.80280  0.50030  1.0000
  C   C109      1.0  0.94168  0.18946  0.43864  1.0000
  N   N77       1.0  0.91611  0.21298  0.43418  1.0000
  H   H29       1.0  0.95109  0.18284  0.50075  1.0000
  C   C110      1.0  0.08075  0.83324  0.43829  1.0000
  N   N78       1.0  0.10632  0.80970  0.43389  1.0000
  H   H30       1.0  0.07155  0.84026  0.50043  1.0000
  C   C111      1.0  0.61981  0.72357  0.35753  1.0000
  C   C112      1.0  0.60518  0.71161  0.43905  1.0000
  N   N79       1.0  0.57923  0.68879  0.43450  1.0000
  C   C113      1.0  0.56662  0.67615  0.35464  1.0000
  H   H31       1.0  0.61306  0.72092  0.50118  1.0000
  C   C114      1.0  0.40235  0.29851  0.35712  1.0000
  C   C115      1.0  0.41673  0.31094  0.43866  1.0000
  N   N80       1.0  0.44269  0.33374  0.43404  1.0000
  C   C116      1.0  0.45552  0.34594  0.35411  1.0000
  H   H32       1.0  0.40869  0.30195  0.50085  1.0000
  C   C117      1.0  0.44132  0.68893  0.43828  1.0000
  N   N81       1.0  0.41576  0.71245  0.43365  1.0000
  H   H33       1.0  0.45048  0.68194  0.50050  1.0000
  C   C118      1.0  0.58108  0.33371  0.43792  1.0000
  N   N82       1.0  0.60663  0.31017  0.43337  1.0000
  H   H34       1.0  0.57211  0.34107  0.50015  1.0000
  C   C119      1.0  0.38309  0.10475  0.43980  1.0000
  N   N83       1.0  0.37604  0.14380  0.43481  1.0000
  H   H35       1.0  0.38760  0.09227  0.50188  1.0000
  C   C120      1.0  0.63860  0.91720  0.43933  1.0000
  N   N84       1.0  0.64565  0.87816  0.43427  1.0000
  H   H36       1.0  0.63379  0.92956  0.50135  1.0000
  C   C121      1.0  0.65065  0.16276  0.35652  1.0000
  C   C122      1.0  0.64826  0.14091  0.43800  1.0000
  N   N85       1.0  0.64040  0.10212  0.43295  1.0000
  C   C123      1.0  0.63649  0.08282  0.35251  1.0000
  H   H37       1.0  0.65100  0.15398  0.50033  1.0000
  C   C124      1.0  0.37148  0.85935  0.35712  1.0000
  C   C125      1.0  0.37350  0.88136  0.43845  1.0000
  N   N86       1.0  0.38138  0.92015  0.43328  1.0000
  C   C126      1.0  0.38565  0.93933  0.35283  1.0000
  H   H38       1.0  0.37050  0.86841  0.50081  1.0000
  C   C127      1.0  0.88268  0.60457  0.43927  1.0000
  N   N87       1.0  0.87563  0.64362  0.43436  1.0000
  H   H39       1.0  0.88689  0.59196  0.50140  1.0000
  C   C128      1.0  0.13916  0.41738  0.43904  1.0000
  N   N88       1.0  0.14620  0.37834  0.43400  1.0000
  H   H40       1.0  0.13476  0.42988  0.50118  1.0000
  C   C129      1.0  0.15064  0.66276  0.35695  1.0000
  C   C130      1.0  0.14777  0.64107  0.43852  1.0000
  N   N89       1.0  0.13995  0.60227  0.43343  1.0000
  C   C131      1.0  0.13651  0.58279  0.35302  1.0000
  H   H41       1.0  0.15018  0.65425  0.50085  1.0000
  C   C132      1.0  0.87149  0.35937  0.35751  1.0000
  C   C133      1.0  0.87413  0.38118  0.43897  1.0000
  N   N90       1.0  0.88196  0.41998  0.43378  1.0000
  C   C134      1.0  0.88563  0.43933  0.35330  1.0000
  H   H42       1.0  0.87155  0.36809  0.50134  1.0000
  C   C135      1.0  0.52595  0.01108  0.43904  1.0000
  N   N91       1.0  0.49459  0.01112  0.43427  1.0000
  H   H43       1.0  0.53666  0.01110  0.50124  1.0000
  C   C136      1.0  0.02598  0.51105  0.43906  1.0000
  N   N92       1.0  0.99460  0.51108  0.43435  1.0000
  H   H44       1.0  0.03669  0.51105  0.50124  1.0000
  C   C137      1.0  0.22875  0.26212  0.35667  1.0000
  C   C138      1.0  0.24607  0.26261  0.43824  1.0000
  N   N93       1.0  0.27751  0.26071  0.43361  1.0000
  C   C139      1.0  0.29340  0.26007  0.35355  1.0000
  H   H45       1.0  0.23547  0.26440  0.50044  1.0000
  C   C140      1.0  0.79339  0.76005  0.35691  1.0000
  C   C141      1.0  0.77598  0.75940  0.43831  1.0000
  N   N94       1.0  0.74454  0.76129  0.43344  1.0000
  C   C142      1.0  0.72875  0.76208  0.35322  1.0000
  H   H46       1.0  0.78651  0.75750  0.50059  1.0000
  C   C143      1.0  0.74611  0.25955  0.43900  1.0000
  N   N95       1.0  0.77755  0.26151  0.43429  1.0000
  H   H47       1.0  0.73554  0.25780  0.50124  1.0000
  C   C144      1.0  0.27601  0.76264  0.43903  1.0000
  N   N96       1.0  0.24458  0.76068  0.43427  1.0000
  H   H48       1.0  0.28658  0.76445  0.50128  1.0000
