data_image0
_chemical_formula_structural       CNO2HC4HC4H2C4HC4H2NO2C4HC4H2NO2C4H4C4H4C4H4C4H4C4H4C4H4CNCNCNC18H12CNCNCNC18H12CNCNCNC18H12CNCNCNC18H12CNCNCNC18H12CNCNCNC18H12C3H3C4H4C4H4C4HC4H2NO2C4HC4H2NO2C4HC4H2NO2C4HC4H2NO2C4HC4H2NO2C4HC4H2NO2
_chemical_formula_sum              "C234 N27 O18 H135"
_cell_length_a       76.3361
_cell_length_b       76.3361
_cell_length_c       14.9832
_cell_angle_alpha    90
_cell_angle_beta     90
_cell_angle_gamma    120

_space_group_name_H-M_alt    "P 1"
_space_group_IT_number       1

loop_
  _space_group_symop_operation_xyz
  'x, y, z'

loop_
  _atom_site_type_symbol
  _atom_site_label
  _atom_site_symmetry_multiplicity
  _atom_site_fract_x
  _atom_site_fract_y
  _atom_site_fract_z
  _atom_site_occupancy
  C   C1        1.0  0.01173  0.50631  0.32387  1.0000
  N   N1        1.0  0.01238  0.51811  0.17102  1.0000
  O   O1        1.0  0.01659  0.51105  0.10386  1.0000
  O   O2        1.0  0.01645  0.53587  0.15397  1.0000
  H   H1        1.0  0.01476  0.49827  0.45644  1.0000
  C   C2        1.0  0.02284  0.51742  0.24780  1.0000
  C   C3        1.0  0.02240  0.50620  0.40079  1.0000
  C   C4        1.0  0.05496  0.52782  0.32725  1.0000
  C   C5        1.0  0.04427  0.52811  0.25073  1.0000
  H   H2        1.0  0.05211  0.53596  0.19531  1.0000
  C   C6        1.0  0.99019  0.49540  0.32514  1.0000
  C   C7        1.0  0.94693  0.47359  0.32785  1.0000
  C   C8        1.0  0.95782  0.46860  0.26628  1.0000
  C   C9        1.0  0.97911  0.47938  0.26466  1.0000
  H   H3        1.0  0.95033  0.45728  0.22061  1.0000
  H   H4        1.0  0.98647  0.47533  0.21924  1.0000
  C   C10       1.0  0.47358  0.52740  0.32730  1.0000
  C   C11       1.0  0.49508  0.50568  0.32389  1.0000
  C   C12       1.0  0.48398  0.50568  0.24782  1.0000
  C   C13       1.0  0.47329  0.51642  0.25076  1.0000
  H   H5        1.0  0.46543  0.51641  0.19535  1.0000
  C   C14       1.0  0.50600  0.49505  0.32514  1.0000
  C   C15       1.0  0.52781  0.47360  0.32783  1.0000
  C   C16       1.0  0.53279  0.48948  0.26624  1.0000
  C   C17       1.0  0.52201  0.49999  0.26464  1.0000
  H   H6        1.0  0.54412  0.49332  0.22061  1.0000
  H   H7        1.0  0.52606  0.51141  0.21925  1.0000
  N   N2        1.0  0.48329  0.49454  0.17102  1.0000
  O   O3        1.0  0.49034  0.50581  0.10388  1.0000
  O   O4        1.0  0.46553  0.48085  0.15396  1.0000
  C   C18       1.0  0.47397  0.94645  0.32727  1.0000
  C   C19       1.0  0.49569  0.98968  0.32389  1.0000
  C   C20       1.0  0.49569  0.97857  0.24782  1.0000
  C   C21       1.0  0.48495  0.95714  0.25075  1.0000
  H   H8        1.0  0.48497  0.94930  0.19534  1.0000
  C   C22       1.0  0.50632  0.01122  0.32517  1.0000
  C   C23       1.0  0.52778  0.05448  0.32789  1.0000
  C   C24       1.0  0.51189  0.04359  0.26630  1.0000
  C   C25       1.0  0.50138  0.02230  0.26469  1.0000
  H   H9        1.0  0.50806  0.05108  0.22065  1.0000
  H   H10       1.0  0.48997  0.01494  0.21926  1.0000
  N   N3        1.0  0.50684  0.98904  0.17105  1.0000
  O   O5        1.0  0.49558  0.98482  0.10388  1.0000
  O   O6        1.0  0.52054  0.98497  0.15400  1.0000
  C   C26       1.0  0.22350  0.52404  0.28354  1.0000
  C   C27       1.0  0.23969  0.52033  0.27402  1.0000
  C   C28       1.0  0.28519  0.53892  0.25785  1.0000
  C   C29       1.0  0.30548  0.54380  0.25043  1.0000
  H   H11       1.0  0.28030  0.54658  0.21842  1.0000
  H   H12       1.0  0.31446  0.55451  0.20466  1.0000
  H   H13       1.0  0.21479  0.52240  0.22877  1.0000
  H   H14       1.0  0.24195  0.51573  0.21300  1.0000
  C   C30       1.0  0.47729  0.69971  0.28339  1.0000
  C   C31       1.0  0.48105  0.71964  0.27396  1.0000
  C   C32       1.0  0.46242  0.74652  0.25807  1.0000
  C   C33       1.0  0.45755  0.76193  0.25065  1.0000
  H   H15       1.0  0.45481  0.73400  0.21840  1.0000
  H   H16       1.0  0.44688  0.76024  0.20471  1.0000
  H   H17       1.0  0.47900  0.69267  0.22869  1.0000
  H   H18       1.0  0.48565  0.72650  0.21296  1.0000
  C   C34       1.0  0.30167  0.77787  0.28336  1.0000
  C   C35       1.0  0.28175  0.76171  0.27388  1.0000
  C   C36       1.0  0.25488  0.71618  0.25807  1.0000
  C   C37       1.0  0.23947  0.69590  0.25063  1.0000
  H   H19       1.0  0.26742  0.72110  0.21854  1.0000
  H   H20       1.0  0.24120  0.68693  0.20483  1.0000
  H   H21       1.0  0.30874  0.78663  0.22869  1.0000
  H   H22       1.0  0.27489  0.75946  0.21290  1.0000
  C   C38       1.0  0.77814  0.47717  0.28189  1.0000
  C   C39       1.0  0.76194  0.48091  0.27311  1.0000
  C   C40       1.0  0.71640  0.46227  0.25902  1.0000
  C   C41       1.0  0.69610  0.45738  0.25251  1.0000
  H   H23       1.0  0.72120  0.45455  0.21946  1.0000
  H   H24       1.0  0.68700  0.44658  0.20724  1.0000
  H   H25       1.0  0.78674  0.47877  0.22678  1.0000
  H   H26       1.0  0.75960  0.48550  0.21227  1.0000
  C   C42       1.0  0.52426  0.30126  0.28190  1.0000
  C   C43       1.0  0.52048  0.28132  0.27312  1.0000
  C   C44       1.0  0.53912  0.25440  0.25877  1.0000
  C   C45       1.0  0.54401  0.23899  0.25224  1.0000
  H   H27       1.0  0.54683  0.26691  0.21918  1.0000
  H   H28       1.0  0.55478  0.24067  0.20693  1.0000
  H   H29       1.0  0.52262  0.30826  0.22685  1.0000
  H   H30       1.0  0.51589  0.27438  0.21228  1.0000
  C   C46       1.0  0.70014  0.22331  0.28181  1.0000
  C   C47       1.0  0.72009  0.23946  0.27310  1.0000
  C   C48       1.0  0.74697  0.28503  0.25904  1.0000
  C   C49       1.0  0.76238  0.30533  0.25251  1.0000
  H   H31       1.0  0.73449  0.28020  0.21920  1.0000
  H   H32       1.0  0.76073  0.31441  0.20700  1.0000
  H   H33       1.0  0.69316  0.21465  0.22679  1.0000
  H   H34       1.0  0.72703  0.24182  0.21226  1.0000
  C   C50       1.0  0.17307  0.60145  0.33402  1.0000
  N   N4        1.0  0.15250  0.59101  0.33034  1.0000
  C   C51       1.0  0.14152  0.57041  0.33572  1.0000
  N   N5        1.0  0.15188  0.56023  0.34486  1.0000
  C   C52       1.0  0.17240  0.56990  0.34934  1.0000
  N   N6        1.0  0.18232  0.59034  0.34354  1.0000
  C   C53       1.0  0.11994  0.55980  0.33285  1.0000
  C   C54       1.0  0.10913  0.56948  0.30533  1.0000
  C   C55       1.0  0.08784  0.55897  0.30265  1.0000
  C   C56       1.0  0.07653  0.53845  0.32884  1.0000
  C   C57       1.0  0.08725  0.52875  0.35684  1.0000
  C   C58       1.0  0.10852  0.53918  0.35814  1.0000
  C   C59       1.0  0.18505  0.62297  0.32810  1.0000
  C   C60       1.0  0.17638  0.63558  0.32283  1.0000
  C   C61       1.0  0.18860  0.65683  0.31731  1.0000
  C   C62       1.0  0.20994  0.66615  0.31513  1.0000
  C   C63       1.0  0.21861  0.65362  0.32137  1.0000
  C   C64       1.0  0.20646  0.63255  0.32767  1.0000
  C   C65       1.0  0.18368  0.55974  0.35810  1.0000
  C   C66       1.0  0.20406  0.57048  0.38713  1.0000
  C   C67       1.0  0.21590  0.56118  0.39117  1.0000
  C   C68       1.0  0.20791  0.54073  0.36598  1.0000
  C   C69       1.0  0.18752  0.52985  0.33738  1.0000
  C   C70       1.0  0.17551  0.53913  0.33479  1.0000
  H   H35       1.0  0.18179  0.66543  0.31325  1.0000
  H   H36       1.0  0.16100  0.62943  0.32335  1.0000
  H   H37       1.0  0.23400  0.65974  0.32274  1.0000
  H   H38       1.0  0.21368  0.62433  0.33193  1.0000
  H   H39       1.0  0.21074  0.58540  0.40487  1.0000
  H   H40       1.0  0.23076  0.56983  0.40953  1.0000
  H   H41       1.0  0.16096  0.53086  0.31205  1.0000
  H   H42       1.0  0.18128  0.51508  0.31777  1.0000
  H   H43       1.0  0.11555  0.53148  0.37911  1.0000
  H   H44       1.0  0.07963  0.51384  0.37533  1.0000
  H   H45       1.0  0.08064  0.56659  0.28294  1.0000
  H   H46       1.0  0.11663  0.58433  0.28608  1.0000
  C   C71       1.0  0.39993  0.57187  0.33394  1.0000
  N   N7        1.0  0.41037  0.56174  0.33031  1.0000
  C   C72       1.0  0.43098  0.57137  0.33572  1.0000
  N   N8        1.0  0.44116  0.59190  0.34484  1.0000
  C   C73       1.0  0.43149  0.60276  0.34927  1.0000
  N   N9        1.0  0.41105  0.59223  0.34344  1.0000
  C   C74       1.0  0.44159  0.56040  0.33290  1.0000
  C   C75       1.0  0.43191  0.53990  0.30539  1.0000
  C   C76       1.0  0.44242  0.52912  0.30270  1.0000
  C   C77       1.0  0.46294  0.53834  0.32891  1.0000
  C   C78       1.0  0.47263  0.55875  0.35692  1.0000
  C   C79       1.0  0.46221  0.56960  0.35821  1.0000
  C   C80       1.0  0.37842  0.56234  0.32799  1.0000
  C   C81       1.0  0.36580  0.54105  0.32283  1.0000
  C   C82       1.0  0.34456  0.53203  0.31727  1.0000
  C   C83       1.0  0.33524  0.54404  0.31500  1.0000
  C   C84       1.0  0.34777  0.56525  0.32112  1.0000
  C   C85       1.0  0.36884  0.57417  0.32743  1.0000
  C   C86       1.0  0.44165  0.62420  0.35803  1.0000
  C   C87       1.0  0.43091  0.63384  0.38706  1.0000
  C   C88       1.0  0.44021  0.65498  0.39104  1.0000
  C   C89       1.0  0.46066  0.66743  0.36585  1.0000
  C   C90       1.0  0.47153  0.65792  0.33731  1.0000
  C   C91       1.0  0.46226  0.63664  0.33471  1.0000
  H   H47       1.0  0.33595  0.51661  0.31335  1.0000
  H   H48       1.0  0.37196  0.53183  0.32345  1.0000
  H   H49       1.0  0.34165  0.57452  0.32242  1.0000
  H   H50       1.0  0.37706  0.58961  0.33160  1.0000
  H   H51       1.0  0.41598  0.62559  0.40481  1.0000
  H   H52       1.0  0.43155  0.66118  0.40946  1.0000
  H   H53       1.0  0.47052  0.63035  0.31200  1.0000
  H   H54       1.0  0.48630  0.66646  0.31770  1.0000
  H   H55       1.0  0.46990  0.58432  0.37916  1.0000
  H   H56       1.0  0.48754  0.56604  0.37540  1.0000
  H   H57       1.0  0.43480  0.51430  0.28297  1.0000
  H   H58       1.0  0.41707  0.53256  0.28609  1.0000
  C   C92       1.0  0.42951  0.82834  0.33400  1.0000
  N   N10       1.0  0.43964  0.84892  0.33034  1.0000
  C   C93       1.0  0.43002  0.85989  0.33572  1.0000
  N   N11       1.0  0.40948  0.84953  0.34484  1.0000
  C   C94       1.0  0.39862  0.82901  0.34931  1.0000
  N   N12       1.0  0.40915  0.81909  0.34350  1.0000
  C   C95       1.0  0.44098  0.88147  0.33286  1.0000
  C   C96       1.0  0.46147  0.89229  0.30536  1.0000
  C   C97       1.0  0.47225  0.91358  0.30268  1.0000
  C   C98       1.0  0.46304  0.92488  0.32887  1.0000
  C   C99       1.0  0.44263  0.91416  0.35685  1.0000
  C   C100      1.0  0.43178  0.89289  0.35815  1.0000
  C   C101      1.0  0.43905  0.81636  0.32808  1.0000
  C   C102      1.0  0.46034  0.82503  0.32285  1.0000
  C   C103      1.0  0.46935  0.81281  0.31734  1.0000
  C   C104      1.0  0.45734  0.79147  0.31512  1.0000
  C   C105      1.0  0.43613  0.78280  0.32131  1.0000
  C   C106      1.0  0.42721  0.79495  0.32761  1.0000
  C   C107      1.0  0.37719  0.81773  0.35805  1.0000
  C   C108      1.0  0.36755  0.79734  0.38705  1.0000
  C   C109      1.0  0.34640  0.78550  0.39106  1.0000
  C   C110      1.0  0.33395  0.79349  0.36588  1.0000
  C   C111      1.0  0.34346  0.81388  0.33732  1.0000
  C   C112      1.0  0.36474  0.82589  0.33475  1.0000
  H   H59       1.0  0.48477  0.81962  0.31332  1.0000
  H   H60       1.0  0.46956  0.84041  0.32340  1.0000
  H   H61       1.0  0.42686  0.76741  0.32265  1.0000
  H   H62       1.0  0.41177  0.78773  0.33183  1.0000
  H   H63       1.0  0.37579  0.79066  0.40478  1.0000
  H   H64       1.0  0.34020  0.77064  0.40940  1.0000
  H   H65       1.0  0.37103  0.84045  0.31204  1.0000
  H   H66       1.0  0.33492  0.82012  0.31771  1.0000
  H   H67       1.0  0.41705  0.88585  0.37911  1.0000
  H   H68       1.0  0.43533  0.92178  0.37533  1.0000
  H   H69       1.0  0.48708  0.92078  0.28298  1.0000
  H   H70       1.0  0.46882  0.88479  0.28611  1.0000
  C   C113      1.0  0.82868  0.39963  0.33567  1.0000
  N   N13       1.0  0.84924  0.41009  0.33175  1.0000
  C   C114      1.0  0.86022  0.43072  0.33511  1.0000
  N   N14       1.0  0.84979  0.44088  0.34263  1.0000
  C   C115      1.0  0.82929  0.43121  0.34749  1.0000
  N   N15       1.0  0.81941  0.41075  0.34356  1.0000
  C   C116      1.0  0.88182  0.44137  0.33200  1.0000
  C   C117      1.0  0.89283  0.43096  0.32710  1.0000
  C   C118      1.0  0.91412  0.44148  0.32525  1.0000
  C   C119      1.0  0.92532  0.46286  0.32871  1.0000
  C   C120      1.0  0.91440  0.47331  0.33331  1.0000
  C   C121      1.0  0.89312  0.46279  0.33469  1.0000
  C   C122      1.0  0.81671  0.37809  0.33096  1.0000
  C   C123      1.0  0.82540  0.36550  0.32486  1.0000
  C   C124      1.0  0.81319  0.34426  0.31933  1.0000
  C   C125      1.0  0.79185  0.33491  0.31807  1.0000
  C   C126      1.0  0.78316  0.34741  0.32558  1.0000
  C   C127      1.0  0.79530  0.36848  0.33187  1.0000
  C   C128      1.0  0.81797  0.44136  0.35540  1.0000
  C   C129      1.0  0.79757  0.43063  0.38422  1.0000
  C   C130      1.0  0.78576  0.43996  0.38825  1.0000
  C   C131      1.0  0.79380  0.46043  0.36336  1.0000
  C   C132      1.0  0.81418  0.47129  0.33477  1.0000
  C   C133      1.0  0.82616  0.46198  0.33205  1.0000
  H   H71       1.0  0.82000  0.33567  0.31435  1.0000
  H   H72       1.0  0.84078  0.37168  0.32430  1.0000
  H   H73       1.0  0.76777  0.34127  0.32759  1.0000
  H   H74       1.0  0.78807  0.37668  0.33681  1.0000
  H   H75       1.0  0.79087  0.41571  0.40202  1.0000
  H   H76       1.0  0.77090  0.43134  0.40674  1.0000
  H   H77       1.0  0.84074  0.47025  0.30969  1.0000
  H   H78       1.0  0.82046  0.48608  0.31545  1.0000
  H   H79       1.0  0.88601  0.47112  0.33789  1.0000
  H   H80       1.0  0.92186  0.48879  0.33444  1.0000
  H   H81       1.0  0.92140  0.43330  0.32324  1.0000
  H   H82       1.0  0.88548  0.41550  0.32547  1.0000
  C   C134      1.0  0.60179  0.42934  0.33570  1.0000
  N   N16       1.0  0.59133  0.43944  0.33176  1.0000
  C   C135      1.0  0.57069  0.42978  0.33511  1.0000
  N   N17       1.0  0.56054  0.40920  0.34265  1.0000
  C   C136      1.0  0.57021  0.39836  0.34753  1.0000
  N   N18       1.0  0.59067  0.40894  0.34361  1.0000
  C   C137      1.0  0.56004  0.44073  0.33198  1.0000
  C   C138      1.0  0.57044  0.46214  0.32710  1.0000
  C   C139      1.0  0.55992  0.47291  0.32523  1.0000
  C   C140      1.0  0.53854  0.46272  0.32869  1.0000
  C   C141      1.0  0.52810  0.44136  0.33329  1.0000
  C   C142      1.0  0.53862  0.43060  0.33469  1.0000
  C   C143      1.0  0.62333  0.43891  0.33100  1.0000
  C   C144      1.0  0.63591  0.46019  0.32478  1.0000
  C   C145      1.0  0.65715  0.46923  0.31928  1.0000
  C   C146      1.0  0.66650  0.45724  0.31811  1.0000
  C   C147      1.0  0.65402  0.43605  0.32572  1.0000
  C   C148      1.0  0.63294  0.42711  0.33200  1.0000
  C   C149      1.0  0.56006  0.37690  0.35546  1.0000
  C   C150      1.0  0.57079  0.36722  0.38429  1.0000
  C   C151      1.0  0.56146  0.34608  0.38838  1.0000
  C   C152      1.0  0.54099  0.33365  0.36347  1.0000
  C   C153      1.0  0.53014  0.34318  0.33482  1.0000
  C   C154      1.0  0.53944  0.36447  0.33212  1.0000
  H   H83       1.0  0.66574  0.48463  0.31416  1.0000
  H   H84       1.0  0.62972  0.46938  0.32412  1.0000
  H   H85       1.0  0.66017  0.42681  0.32778  1.0000
  H   H86       1.0  0.62475  0.41169  0.33703  1.0000
  H   H87       1.0  0.58571  0.37544  0.40210  1.0000
  H   H88       1.0  0.57009  0.33986  0.40682  1.0000
  H   H89       1.0  0.53118  0.37077  0.30971  1.0000
  H   H90       1.0  0.51535  0.33466  0.31547  1.0000
  H   H91       1.0  0.53029  0.41516  0.33790  1.0000
  H   H92       1.0  0.51262  0.43334  0.33445  1.0000
  H   H93       1.0  0.56810  0.48838  0.32321  1.0000
  H   H94       1.0  0.58591  0.47026  0.32544  1.0000
  C   C155      1.0  0.57206  0.17273  0.33567  1.0000
  N   N19       1.0  0.56196  0.15217  0.33176  1.0000
  C   C156      1.0  0.57161  0.14119  0.33513  1.0000
  N   N20       1.0  0.59219  0.15162  0.34266  1.0000
  C   C157      1.0  0.60304  0.17213  0.34750  1.0000
  N   N21       1.0  0.59246  0.18201  0.34356  1.0000
  C   C158      1.0  0.56066  0.11959  0.33204  1.0000
  C   C159      1.0  0.53925  0.10858  0.32714  1.0000
  C   C160      1.0  0.52847  0.08729  0.32530  1.0000
  C   C161      1.0  0.53866  0.07609  0.32875  1.0000
  C   C162      1.0  0.56002  0.08701  0.33335  1.0000
  C   C163      1.0  0.57078  0.10829  0.33474  1.0000
  C   C164      1.0  0.56249  0.18470  0.33092  1.0000
  C   C165      1.0  0.54121  0.17600  0.32485  1.0000
  C   C166      1.0  0.53217  0.18821  0.31930  1.0000
  C   C167      1.0  0.54416  0.20955  0.31799  1.0000
  C   C168      1.0  0.56536  0.21825  0.32544  1.0000
  C   C169      1.0  0.57429  0.20611  0.33176  1.0000
  C   C170      1.0  0.62450  0.18344  0.35541  1.0000
  C   C171      1.0  0.63417  0.20384  0.38422  1.0000
  C   C172      1.0  0.65531  0.21565  0.38825  1.0000
  C   C173      1.0  0.66774  0.20761  0.36337  1.0000
  C   C174      1.0  0.65821  0.18722  0.33478  1.0000
  C   C175      1.0  0.63692  0.17525  0.33207  1.0000
  H   H95       1.0  0.51677  0.18139  0.31433  1.0000
  H   H96       1.0  0.53201  0.16062  0.32433  1.0000
  H   H97       1.0  0.57459  0.23363  0.32739  1.0000
  H   H98       1.0  0.58971  0.21334  0.33666  1.0000
  H   H99       1.0  0.62596  0.21054  0.40202  1.0000
  H   H100      1.0  0.66154  0.23051  0.40673  1.0000
  H   H101      1.0  0.63061  0.16067  0.30972  1.0000
  H   H102      1.0  0.66673  0.18095  0.31545  1.0000
  H   H103      1.0  0.58622  0.11541  0.33793  1.0000
  H   H104      1.0  0.56804  0.07955  0.33449  1.0000
  H   H105      1.0  0.51301  0.08000  0.32328  1.0000
  H   H106      1.0  0.53113  0.11593  0.32551  1.0000
  C   C176      1.0  0.04366  0.51664  0.40219  1.0000
  C   C177      1.0  0.97940  0.50026  0.38757  1.0000
  C   C178      1.0  0.95812  0.48961  0.38848  1.0000
  H   H107      1.0  0.98697  0.51180  0.43224  1.0000
  H   H108      1.0  0.95085  0.49351  0.43500  1.0000
  H   H109      1.0  0.05083  0.51626  0.45928  1.0000
  C   C179      1.0  0.48476  0.52728  0.40223  1.0000
  C   C180      1.0  0.49519  0.51646  0.40082  1.0000
  C   C181      1.0  0.50114  0.47940  0.38757  1.0000
  C   C182      1.0  0.51179  0.46876  0.38845  1.0000
  H   H110      1.0  0.48960  0.47543  0.43224  1.0000
  H   H111      1.0  0.50789  0.45760  0.43499  1.0000
  H   H112      1.0  0.48513  0.53482  0.45933  1.0000
  H   H113      1.0  0.50313  0.51675  0.45646  1.0000
  C   C183      1.0  0.47409  0.95775  0.40220  1.0000
  C   C184      1.0  0.48491  0.97901  0.40081  1.0000
  C   C185      1.0  0.52197  0.02201  0.38762  1.0000
  C   C186      1.0  0.53261  0.04329  0.38849  1.0000
  H   H114      1.0  0.52594  0.01444  0.43227  1.0000
  H   H115      1.0  0.54377  0.05056  0.43505  1.0000
  H   H116      1.0  0.46654  0.95058  0.45930  1.0000
  H   H117      1.0  0.48462  0.98665  0.45646  1.0000
  C   C187      1.0  0.22097  0.53240  0.36327  1.0000
  C   C188      1.0  0.25377  0.52467  0.34391  1.0000
  C   C189      1.0  0.25065  0.53194  0.42639  1.0000
  C   C190      1.0  0.23417  0.53541  0.43523  1.0000
  H   H118      1.0  0.23277  0.54169  0.49328  1.0000
  C   C191      1.0  0.27256  0.52561  0.32516  1.0000
  C   C192      1.0  0.31386  0.53562  0.31027  1.0000
  C   C193      1.0  0.30085  0.52112  0.37325  1.0000
  C   C194      1.0  0.28049  0.51623  0.38068  1.0000
  H   H119      1.0  0.30651  0.51539  0.41953  1.0000
  H   H120      1.0  0.27187  0.50681  0.43111  1.0000
  N   N22       1.0  0.26492  0.53738  0.49643  1.0000
  O   O7        1.0  0.25681  0.52759  0.56643  1.0000
  O   O8        1.0  0.27352  0.55597  0.51360  1.0000
  C   C195      1.0  0.46899  0.68882  0.36317  1.0000
  C   C196      1.0  0.47671  0.72936  0.34390  1.0000
  C   C197      1.0  0.46945  0.71897  0.42636  1.0000
  C   C198      1.0  0.46595  0.69901  0.43508  1.0000
  H   H121      1.0  0.45973  0.69134  0.49322  1.0000
  C   C199      1.0  0.47577  0.74722  0.32522  1.0000
  C   C200      1.0  0.46576  0.77852  0.31037  1.0000
  C   C201      1.0  0.48025  0.77999  0.37336  1.0000
  C   C202      1.0  0.48515  0.76452  0.38075  1.0000
  H   H122      1.0  0.48599  0.79138  0.41961  1.0000
  H   H123      1.0  0.49458  0.76533  0.43113  1.0000
  N   N23       1.0  0.46403  0.72780  0.49650  1.0000
  O   O9        1.0  0.47382  0.72945  0.56645  1.0000
  O   O10       1.0  0.44543  0.71781  0.51370  1.0000
  C   C203      1.0  0.31255  0.78043  0.36313  1.0000
  C   C204      1.0  0.27203  0.74764  0.34380  1.0000
  C   C205      1.0  0.28241  0.75075  0.42628  1.0000
  C   C206      1.0  0.30237  0.76722  0.43507  1.0000
  H   H124      1.0  0.31005  0.76864  0.49317  1.0000
  C   C207      1.0  0.25416  0.72886  0.32510  1.0000
  C   C208      1.0  0.22289  0.68753  0.31037  1.0000
  C   C209      1.0  0.22143  0.70054  0.37341  1.0000
  C   C210      1.0  0.23685  0.72093  0.38060  1.0000
  H   H125      1.0  0.21000  0.69490  0.41948  1.0000
  H   H126      1.0  0.23605  0.72955  0.43098  1.0000
  N   N24       1.0  0.27357  0.73649  0.49638  1.0000
  O   O11       1.0  0.27191  0.74462  0.56635  1.0000
  O   O12       1.0  0.28356  0.72788  0.51357  1.0000
  C   C211      1.0  0.78080  0.46884  0.36140  1.0000
  C   C212      1.0  0.74801  0.47663  0.34360  1.0000
  C   C213      1.0  0.75126  0.46938  0.42582  1.0000
  C   C214      1.0  0.76772  0.46585  0.43383  1.0000
  H   H127      1.0  0.76922  0.45959  0.49174  1.0000
  C   C215      1.0  0.72921  0.47572  0.32557  1.0000
  C   C216      1.0  0.68787  0.46567  0.31254  1.0000
  C   C217      1.0  0.70101  0.48022  0.37497  1.0000
  C   C218      1.0  0.72139  0.48514  0.38149  1.0000
  H   H128      1.0  0.69545  0.48605  0.42126  1.0000
  H   H129      1.0  0.73013  0.49465  0.43141  1.0000
  N   N25       1.0  0.73712  0.46399  0.49641  1.0000
  O   O13       1.0  0.74539  0.47379  0.56621  1.0000
  O   O14       1.0  0.72852  0.44540  0.51363  1.0000
  C   C219      1.0  0.53260  0.31225  0.36142  1.0000
  C   C220      1.0  0.52479  0.27167  0.34352  1.0000
  C   C221      1.0  0.53206  0.28217  0.42574  1.0000
  C   C222      1.0  0.53556  0.30215  0.43387  1.0000
  H   H130      1.0  0.54185  0.30991  0.49175  1.0000
  C   C223      1.0  0.52572  0.25378  0.32551  1.0000
  C   C224      1.0  0.53574  0.22249  0.31239  1.0000
  C   C225      1.0  0.52118  0.22106  0.37481  1.0000
  C   C226      1.0  0.51628  0.23654  0.38138  1.0000
  H   H131      1.0  0.51539  0.20971  0.42130  1.0000
  H   H132      1.0  0.50682  0.23580  0.43147  1.0000
  N   N26       1.0  0.53747  0.27342  0.49625  1.0000
  O   O15       1.0  0.52769  0.27187  0.56611  1.0000
  O   O16       1.0  0.55607  0.28342  0.51339  1.0000
  C   C227      1.0  0.68914  0.22061  0.36135  1.0000
  C   C228      1.0  0.72973  0.25340  0.34355  1.0000
  C   C229      1.0  0.71922  0.25016  0.42576  1.0000
  C   C230      1.0  0.69923  0.23370  0.43376  1.0000
  H   H133      1.0  0.69149  0.23218  0.49172  1.0000
  C   C231      1.0  0.74761  0.27223  0.32561  1.0000
  C   C232      1.0  0.77890  0.31355  0.31256  1.0000
  C   C233      1.0  0.78033  0.30041  0.37494  1.0000
  C   C234      1.0  0.76485  0.28003  0.38148  1.0000
  H   H134      1.0  0.79169  0.30597  0.42138  1.0000
  H   H135      1.0  0.76560  0.27130  0.43150  1.0000
  N   N27       1.0  0.72797  0.26430  0.49636  1.0000
  O   O17       1.0  0.72950  0.25604  0.56617  1.0000
  O   O18       1.0  0.71798  0.27290  0.51355  1.0000
