data_image0
_chemical_formula_structural       HNHNCNCOCH3CHCNCOCH3CHNCH2NCH2CNCOCH3CHCNCOCH3CHNCH2NCH2NCOCH4NCOCH4C6HOC6OH5N4C6HOC6OH5N4C6HOC6OH5N4C6HOC6OH4N3C6HOC6OH4N4C2HCHNC2HCHC2NCOCH3CHC3NCOCH3CHCNC2HCHNC2HCHC2NCOCH3CHC3NCOCH3CHC2NC2HC2HCNC2HC2H
_chemical_formula_sum              "H90 N40 C130 O20"
_cell_length_a       32.7389
_cell_length_b       40.9615
_cell_length_c       14.7984
_cell_angle_alpha    88.6188
_cell_angle_beta     91.0811
_cell_angle_gamma    89.7157

_space_group_name_H-M_alt    "P 1"
_space_group_IT_number       1

loop_
  _space_group_symop_operation_xyz
  'x, y, z'

loop_
  _atom_site_type_symbol
  _atom_site_label
  _atom_site_symmetry_multiplicity
  _atom_site_fract_x
  _atom_site_fract_y
  _atom_site_fract_z
  _atom_site_occupancy
  H   H1        1.0  0.78195  0.36201  0.37902  1.0000
  N   N1        1.0  0.85321  0.33772  0.34974  1.0000
  H   H2        1.0  0.16073  0.67024  0.37900  1.0000
  N   N2        1.0  0.08897  0.69504  0.34972  1.0000
  C   C1        1.0  0.12355  0.12007  0.40617  1.0000
  N   N3        1.0  0.16273  0.16939  0.40660  1.0000
  C   C2        1.0  0.15851  0.13793  0.37951  1.0000
  O   O1        1.0  0.18788  0.12482  0.32653  1.0000
  C   C3        1.0  0.18210  0.13286  0.23199  1.0000
  H   H3        1.0  0.20652  0.12125  0.19515  1.0000
  H   H4        1.0  0.18375  0.15921  0.21912  1.0000
  H   H5        1.0  0.15294  0.12373  0.20606  1.0000
  C   C4        1.0  0.11550  0.08772  0.38182  1.0000
  H   H6        1.0  0.13685  0.07498  0.34745  1.0000
  C   C5        1.0  0.81960  0.91172  0.40625  1.0000
  N   N4        1.0  0.78042  0.86240  0.40669  1.0000
  C   C6        1.0  0.78417  0.89433  0.37963  1.0000
  O   O2        1.0  0.75388  0.90838  0.32669  1.0000
  C   C7        1.0  0.75801  0.90200  0.23214  1.0000
  H   H7        1.0  0.73295  0.91426  0.19534  1.0000
  H   H8        1.0  0.75613  0.87588  0.21924  1.0000
  H   H9        1.0  0.78672  0.91158  0.20618  1.0000
  C   C8        1.0  0.82723  0.94450  0.38193  1.0000
  H   H10       1.0  0.80529  0.95784  0.34758  1.0000
  N   N5        1.0  0.80294  0.12659  0.32971  1.0000
  C   C9        1.0  0.77445  0.15091  0.32259  1.0000
  H   H11       1.0  0.74412  0.14516  0.32192  1.0000
  H   H12       1.0  0.73020  0.20853  0.31535  1.0000
  N   N6        1.0  0.13889  0.90654  0.32965  1.0000
  C   C10       1.0  0.16725  0.88234  0.32255  1.0000
  H   H13       1.0  0.19758  0.88809  0.32188  1.0000
  H   H14       1.0  0.21138  0.82484  0.31533  1.0000
  C   C11       1.0  0.25341  0.54941  0.35279  1.0000
  N   N7        1.0  0.25103  0.49483  0.30001  1.0000
  C   C12       1.0  0.25051  0.52743  0.28054  1.0000
  O   O3        1.0  0.24747  0.53770  0.19198  1.0000
  C   C13       1.0  0.28608  0.53826  0.14730  1.0000
  H   H15       1.0  0.28077  0.54684  0.07778  1.0000
  H   H16       1.0  0.29976  0.51388  0.14576  1.0000
  H   H17       1.0  0.30743  0.55498  0.17967  1.0000
  C   C14       1.0  0.25200  0.58339  0.33971  1.0000
  H   H18       1.0  0.24147  0.59287  0.27891  1.0000
  C   C15       1.0  0.68884  0.48332  0.35282  1.0000
  N   N8        1.0  0.69036  0.53882  0.30007  1.0000
  C   C16       1.0  0.69056  0.50656  0.28059  1.0000
  O   O4        1.0  0.69216  0.49784  0.19205  1.0000
  C   C17       1.0  0.65282  0.49806  0.14720  1.0000
  H   H19       1.0  0.65700  0.49070  0.07769  1.0000
  H   H20       1.0  0.63911  0.52247  0.14560  1.0000
  H   H21       1.0  0.63200  0.48077  0.17946  1.0000
  C   C18       1.0  0.69004  0.44956  0.33975  1.0000
  H   H22       1.0  0.69956  0.44115  0.27897  1.0000
  N   N9        1.0  0.00194  0.34013  0.31374  1.0000
  C   C19       1.0  0.96311  0.33921  0.27890  1.0000
  H   H23       1.0  0.95912  0.33700  0.21066  1.0000
  H   H24       1.0  0.88638  0.32406  0.24184  1.0000
  N   N10       1.0  0.93962  0.69327  0.31372  1.0000
  C   C20       1.0  0.97785  0.69478  0.27887  1.0000
  H   H25       1.0  0.98068  0.69818  0.21063  1.0000
  H   H26       1.0  0.05395  0.71058  0.24180  1.0000
  N   N11       1.0  0.50052  0.33329  0.30870  1.0000
  C   C21       1.0  0.46101  0.33326  0.27693  1.0000
  O   O5        1.0  0.45454  0.33635  0.18554  1.0000
  C   C22       1.0  0.45422  0.30553  0.14116  1.0000
  H   H27       1.0  0.44874  0.31024  0.06914  1.0000
  H   H28       1.0  0.42981  0.28979  0.16608  1.0000
  H   H29       1.0  0.48357  0.29286  0.14962  1.0000
  H   H30       1.0  0.38222  0.34821  0.24760  1.0000
  N   N12       1.0  0.44095  0.70018  0.30871  1.0000
  C   C23       1.0  0.47991  0.70076  0.27694  1.0000
  O   O6        1.0  0.48481  0.69923  0.18556  1.0000
  C   C24       1.0  0.48440  0.73082  0.14110  1.0000
  H   H31       1.0  0.48865  0.72734  0.06908  1.0000
  H   H32       1.0  0.50926  0.74611  0.16597  1.0000
  H   H33       1.0  0.45521  0.74336  0.14951  1.0000
  H   H34       1.0  0.55821  0.68633  0.24764  1.0000
  C   C25       1.0  0.99333  0.01597  0.38015  1.0000
  C   C26       1.0  0.01603  0.98706  0.36415  1.0000
  C   C27       1.0  0.05920  0.98624  0.35888  1.0000
  C   C28       1.0  0.08103  0.01570  0.36755  1.0000
  C   C29       1.0  0.06011  0.04516  0.38478  1.0000
  C   C30       1.0  0.01717  0.04452  0.39293  1.0000
  H   H35       1.0  0.00082  0.96612  0.35084  1.0000
  O   O7        1.0  0.12253  0.01501  0.36270  1.0000
  C   C31       1.0  0.94937  0.01628  0.38019  1.0000
  C   C32       1.0  0.92575  0.98750  0.39299  1.0000
  C   C33       1.0  0.88267  0.98701  0.38488  1.0000
  C   C34       1.0  0.86145  0.01676  0.36767  1.0000
  C   C35       1.0  0.88314  0.04637  0.35901  1.0000
  C   C36       1.0  0.92639  0.04547  0.36430  1.0000
  O   O8        1.0  0.81988  0.01754  0.36282  1.0000
  H   H36       1.0  0.94138  0.06663  0.35083  1.0000
  H   H37       1.0  0.13294  0.01159  0.42502  1.0000
  H   H38       1.0  0.81053  0.01986  0.42514  1.0000
  H   H39       1.0  0.00324  0.06588  0.40939  1.0000
  H   H40       1.0  0.93997  0.96585  0.40939  1.0000
  N   N13       1.0  0.86091  0.07439  0.34757  1.0000
  N   N14       1.0  0.86485  0.95733  0.39533  1.0000
  N   N15       1.0  0.07812  0.07465  0.39524  1.0000
  N   N16       1.0  0.08123  0.95843  0.34747  1.0000
  C   C37       1.0  0.20048  0.32374  0.39554  1.0000
  C   C38       1.0  0.19939  0.28969  0.41753  1.0000
  C   C39       1.0  0.16301  0.27264  0.43825  1.0000
  C   C40       1.0  0.12552  0.29040  0.43880  1.0000
  C   C41       1.0  0.12362  0.32325  0.40667  1.0000
  C   C42       1.0  0.16081  0.33848  0.38266  1.0000
  H   H41       1.0  0.22586  0.27647  0.42060  1.0000
  O   O9        1.0  0.08947  0.27408  0.44312  1.0000
  C   C43       1.0  0.23829  0.34140  0.38184  1.0000
  C   C44       1.0  0.27865  0.32750  0.37910  1.0000
  C   C45       1.0  0.31386  0.34531  0.35132  1.0000
  C   C46       1.0  0.30854  0.37888  0.32708  1.0000
  C   C47       1.0  0.27169  0.39484  0.34799  1.0000
  C   C48       1.0  0.23791  0.37610  0.37577  1.0000
  O   O10       1.0  0.34118  0.39795  0.30514  1.0000
  H   H42       1.0  0.21210  0.38881  0.39005  1.0000
  H   H43       1.0  0.08073  0.27530  0.50617  1.0000
  H   H44       1.0  0.35431  0.40441  0.36235  1.0000
  H   H45       1.0  0.15803  0.36152  0.35561  1.0000
  H   H46       1.0  0.28285  0.30318  0.39232  1.0000
  N   N17       1.0  0.27095  0.42802  0.34651  1.0000
  N   N18       1.0  0.35230  0.33160  0.35847  1.0000
  N   N19       1.0  0.08681  0.33871  0.38921  1.0000
  N   N20       1.0  0.16539  0.23934  0.44711  1.0000
  C   C49       1.0  0.74248  0.70823  0.39556  1.0000
  C   C50       1.0  0.74395  0.74190  0.41755  1.0000
  C   C51       1.0  0.78068  0.75859  0.43826  1.0000
  C   C52       1.0  0.81818  0.74082  0.43879  1.0000
  C   C53       1.0  0.81953  0.70853  0.40666  1.0000
  C   C54       1.0  0.78194  0.69372  0.38266  1.0000
  H   H47       1.0  0.71753  0.75506  0.42064  1.0000
  O   O11       1.0  0.85431  0.75706  0.44308  1.0000
  C   C55       1.0  0.70444  0.69081  0.38186  1.0000
  C   C56       1.0  0.66403  0.70476  0.37911  1.0000
  C   C57       1.0  0.62834  0.68743  0.35134  1.0000
  C   C58       1.0  0.63325  0.65429  0.32711  1.0000
  C   C59       1.0  0.67046  0.63796  0.34803  1.0000
  C   C60       1.0  0.70471  0.65622  0.37581  1.0000
  O   O12       1.0  0.60024  0.63560  0.30518  1.0000
  H   H48       1.0  0.73077  0.64326  0.39009  1.0000
  H   H49       1.0  0.86415  0.75474  0.50612  1.0000
  H   H50       1.0  0.58809  0.62813  0.36238  1.0000
  H   H51       1.0  0.78425  0.67115  0.35561  1.0000
  H   H52       1.0  0.66006  0.72885  0.39232  1.0000
  N   N21       1.0  0.67118  0.60481  0.34654  1.0000
  N   N22       1.0  0.59003  0.70102  0.35848  1.0000
  N   N23       1.0  0.85604  0.69337  0.38919  1.0000
  N   N24       1.0  0.77845  0.79173  0.44714  1.0000
  C   C61       1.0  0.73890  0.32477  0.34490  1.0000
  C   C62       1.0  0.73937  0.29078  0.32642  1.0000
  C   C63       1.0  0.77598  0.27344  0.31247  1.0000
  C   C64       1.0  0.81375  0.28989  0.31026  1.0000
  C   C65       1.0  0.81612  0.32285  0.33596  1.0000
  C   C66       1.0  0.77889  0.33889  0.35616  1.0000
  H   H53       1.0  0.71310  0.27758  0.32526  1.0000
  O   O13       1.0  0.84884  0.27194  0.30368  1.0000
  C   C67       1.0  0.70109  0.34262  0.35740  1.0000
  C   C68       1.0  0.66073  0.32897  0.35955  1.0000
  C   C69       1.0  0.62542  0.34647  0.38700  1.0000
  C   C70       1.0  0.63055  0.37957  0.41122  1.0000
  C   C71       1.0  0.66746  0.39566  0.39101  1.0000
  C   C72       1.0  0.70143  0.37717  0.36401  1.0000
  O   O14       1.0  0.59771  0.39837  0.43262  1.0000
  H   H54       1.0  0.72734  0.38991  0.35095  1.0000
  H   H55       1.0  0.85117  0.26647  0.23963  1.0000
  H   H56       1.0  0.58476  0.40591  0.37520  1.0000
  H   H57       1.0  0.65650  0.30496  0.34590  1.0000
  N   N25       1.0  0.66825  0.42882  0.39240  1.0000
  N   N26       1.0  0.58717  0.33289  0.37962  1.0000
  N   N27       1.0  0.77854  0.24061  0.31000  1.0000
  C   C73       1.0  0.20319  0.70808  0.34488  1.0000
  C   C74       1.0  0.20241  0.74240  0.32640  1.0000
  C   C75       1.0  0.16555  0.75999  0.31244  1.0000
  C   C76       1.0  0.12774  0.74357  0.31023  1.0000
  C   C77       1.0  0.12582  0.71016  0.33593  1.0000
  C   C78       1.0  0.16340  0.69376  0.35614  1.0000
  H   H58       1.0  0.22865  0.75562  0.32525  1.0000
  O   O15       1.0  0.09254  0.76163  0.30364  1.0000
  C   C79       1.0  0.24122  0.69002  0.35739  1.0000
  C   C80       1.0  0.28161  0.70364  0.35953  1.0000
  C   C81       1.0  0.31740  0.68566  0.38701  1.0000
  C   C82       1.0  0.31268  0.65214  0.41125  1.0000
  C   C83       1.0  0.27543  0.63639  0.39102  1.0000
  C   C84       1.0  0.24099  0.65536  0.36400  1.0000
  O   O16       1.0  0.34589  0.63297  0.43266  1.0000
  H   H59       1.0  0.21486  0.64284  0.35093  1.0000
  H   H60       1.0  0.08911  0.76822  0.23959  1.0000
  H   H61       1.0  0.35786  0.62643  0.37525  1.0000
  H   H62       1.0  0.28561  0.72789  0.34588  1.0000
  N   N28       1.0  0.27466  0.60321  0.39242  1.0000
  N   N29       1.0  0.35552  0.69936  0.37962  1.0000
  N   N30       1.0  0.16294  0.79285  0.30997  1.0000
  N   N31       1.0  0.09641  0.13546  0.45910  1.0000
  C   C85       1.0  0.10120  0.16632  0.48788  1.0000
  C   C86       1.0  0.13553  0.18454  0.46026  1.0000
  H   H63       1.0  0.07887  0.17620  0.52631  1.0000
  C   C87       1.0  0.13817  0.21773  0.48164  1.0000
  H   H64       1.0  0.11573  0.22655  0.52125  1.0000
  N   N32       1.0  0.84765  0.89539  0.45914  1.0000
  C   C88       1.0  0.84336  0.86403  0.48791  1.0000
  C   C89       1.0  0.80855  0.84630  0.46031  1.0000
  H   H65       1.0  0.86636  0.85348  0.52631  1.0000
  C   C90       1.0  0.80628  0.81274  0.48167  1.0000
  H   H66       1.0  0.82940  0.80322  0.52126  1.0000
  C   C91       1.0  0.84404  0.13195  0.33186  1.0000
  C   C92       1.0  0.78756  0.18364  0.31644  1.0000
  N   N33       1.0  0.82860  0.18869  0.31896  1.0000
  C   C93       1.0  0.85723  0.16477  0.32728  1.0000
  O   O17       1.0  0.89752  0.17358  0.32837  1.0000
  C   C94       1.0  0.91196  0.18336  0.41599  1.0000
  H   H67       1.0  0.89559  0.20494  0.43848  1.0000
  H   H68       1.0  0.94419  0.18952  0.41094  1.0000
  H   H69       1.0  0.90916  0.16359  0.46645  1.0000
  C   C95       1.0  0.87227  0.10603  0.33980  1.0000
  H   H70       1.0  0.90262  0.11152  0.34228  1.0000
  C   C96       1.0  0.76118  0.21089  0.31144  1.0000
  C   C97       1.0  0.09783  0.90114  0.33178  1.0000
  C   C98       1.0  0.15404  0.84971  0.31640  1.0000
  N   N34       1.0  0.11304  0.84462  0.31890  1.0000
  C   C99       1.0  0.08455  0.86840  0.32721  1.0000
  O   O18       1.0  0.04428  0.85957  0.32829  1.0000
  C   C100      1.0  0.03134  0.84827  0.41591  1.0000
  H   H71       1.0  0.04809  0.82629  0.43842  1.0000
  H   H72       1.0  0.99903  0.84220  0.41085  1.0000
  H   H73       1.0  0.03500  0.86716  0.46635  1.0000
  C   C101      1.0  0.06974  0.92692  0.33968  1.0000
  H   H74       1.0  0.03942  0.92139  0.34215  1.0000
  C   C102      1.0  0.18033  0.82255  0.31141  1.0000
  N   N35       1.0  0.25521  0.53660  0.43842  1.0000
  C   C103      1.0  0.25336  0.50407  0.45754  1.0000
  C   C104      1.0  0.25227  0.48206  0.38564  1.0000
  H   H75       1.0  0.25449  0.49603  0.52348  1.0000
  C   C105      1.0  0.24980  0.44820  0.39981  1.0000
  H   H76       1.0  0.24179  0.43921  0.46215  1.0000
  N   N36       1.0  0.68845  0.49463  0.43846  1.0000
  C   C106      1.0  0.69061  0.52682  0.45760  1.0000
  C   C107      1.0  0.69052  0.55009  0.38569  1.0000
  H   H77       1.0  0.69057  0.53371  0.52353  1.0000
  C   C108      1.0  0.69323  0.58370  0.39988  1.0000
  H   H78       1.0  0.70227  0.59160  0.46224  1.0000
  C   C109      1.0  0.01089  0.34153  0.40374  1.0000
  C   C110      1.0  0.92918  0.33973  0.33705  1.0000
  N   N37       1.0  0.93810  0.34181  0.42686  1.0000
  C   C111      1.0  0.97691  0.34300  0.46215  1.0000
  O   O19       1.0  0.98151  0.34242  0.55423  1.0000
  C   C112      1.0  0.98101  0.37444  0.59183  1.0000
  H   H79       1.0  0.98499  0.37172  0.66493  1.0000
  H   H80       1.0  0.95188  0.38690  0.57781  1.0000
  H   H81       1.0  0.00599  0.38943  0.56622  1.0000
  C   C113      1.0  0.05144  0.33652  0.43654  1.0000
  H   H82       1.0  0.05475  0.32967  0.50322  1.0000
  C   C114      1.0  0.88899  0.33330  0.30537  1.0000
  C   C115      1.0  0.93221  0.69030  0.40372  1.0000
  C   C116      1.0  0.01278  0.69326  0.33702  1.0000
  N   N38       1.0  0.00540  0.68962  0.42684  1.0000
  C   C117      1.0  0.96719  0.68782  0.46213  1.0000
  O   O20       1.0  0.96418  0.68679  0.55421  1.0000
  C   C118      1.0  0.96529  0.65412  0.59183  1.0000
  H   H83       1.0  0.96257  0.65557  0.66492  1.0000
  H   H84       1.0  0.99417  0.64189  0.57782  1.0000
  H   H85       1.0  0.93986  0.63959  0.56623  1.0000
  C   C119      1.0  0.89222  0.69474  0.43651  1.0000
  H   H86       1.0  0.89006  0.70043  0.50319  1.0000
  C   C120      1.0  0.05242  0.70024  0.30534  1.0000
  C   C121      1.0  0.42817  0.33262  0.33864  1.0000
  N   N39       1.0  0.43907  0.33149  0.42796  1.0000
  C   C122      1.0  0.47859  0.33182  0.45925  1.0000
  C   C123      1.0  0.51138  0.33280  0.39796  1.0000
  H   H87       1.0  0.48395  0.33207  0.52749  1.0000
  C   C124      1.0  0.38688  0.33812  0.31092  1.0000
  C   C125      1.0  0.55232  0.33836  0.42665  1.0000
  H   H88       1.0  0.55640  0.34725  0.49024  1.0000
  C   C126      1.0  0.51382  0.70034  0.33866  1.0000
  N   N40       1.0  0.50444  0.69994  0.42797  1.0000
  C   C127      1.0  0.46547  0.69907  0.45925  1.0000
  C   C128      1.0  0.43162  0.69914  0.39797  1.0000
  H   H89       1.0  0.46127  0.69765  0.52750  1.0000
  C   C129      1.0  0.55463  0.69532  0.31094  1.0000
  C   C130      1.0  0.39117  0.69309  0.42666  1.0000
  H   H90       1.0  0.38819  0.68310  0.49027  1.0000
