data_image0
_chemical_formula_structural       C2NC2ONH2C2NC2ONH2C2NC2ONH2NCHNCHNCHNCHNCHNCHCNCNCNC18H12CNCNCNC18H12CNCNCNC18H12CNCNCNC18H12CNCNCNC18H12CNCNCNC18H12NCHNCHNCHC2NC2ONH2C2NC2ONH2C2NC2ONH2C2NC2ONH2C2NC2ONH2C2NC2ONH2
_chemical_formula_sum              "C171 N45 O9 H99"
_cell_length_a       60.1429
_cell_length_b       60.1429
_cell_length_c       15.0242
_cell_angle_alpha    90
_cell_angle_beta     90
_cell_angle_gamma    120

_space_group_name_H-M_alt    "P 1"
_space_group_IT_number       1

loop_
  _space_group_symop_operation_xyz
  'x, y, z'

loop_
  _atom_site_type_symbol
  _atom_site_label
  _atom_site_symmetry_multiplicity
  _atom_site_fract_x
  _atom_site_fract_y
  _atom_site_fract_z
  _atom_site_occupancy
  C   C1        1.0  0.02563  0.51001  0.31632  1.0000
  C   C2        1.0  0.97210  0.48323  0.33091  1.0000
  N   N1        1.0  0.98448  0.50012  0.26378  1.0000
  C   C3        1.0  0.01035  0.51363  0.25212  1.0000
  C   C4        1.0  0.01935  0.52902  0.17443  1.0000
  O   O1        1.0  0.00554  0.53937  0.14194  1.0000
  N   N2        1.0  0.03904  0.53131  0.12411  1.0000
  H   H1        1.0  0.04779  0.52184  0.13781  1.0000
  H   H2        1.0  0.04329  0.54080  0.06839  1.0000
  C   C5        1.0  0.48801  0.51513  0.31628  1.0000
  C   C6        1.0  0.51480  0.48838  0.33077  1.0000
  N   N3        1.0  0.49790  0.48387  0.26364  1.0000
  C   C7        1.0  0.48441  0.49625  0.25200  1.0000
  C   C8        1.0  0.46898  0.48985  0.17441  1.0000
  O   O2        1.0  0.45870  0.46572  0.14166  1.0000
  N   N4        1.0  0.46663  0.50722  0.12414  1.0000
  H   H3        1.0  0.47618  0.52546  0.13777  1.0000
  H   H4        1.0  0.45725  0.50201  0.06825  1.0000
  C   C9        1.0  0.48285  0.97246  0.31620  1.0000
  C   C10       1.0  0.50957  0.02600  0.33052  1.0000
  N   N5        1.0  0.51408  0.01360  0.26344  1.0000
  C   C11       1.0  0.50173  0.98772  0.25191  1.0000
  C   C12       1.0  0.50810  0.97870  0.17426  1.0000
  O   O3        1.0  0.53226  0.99249  0.14171  1.0000
  N   N6        1.0  0.49070  0.95898  0.12403  1.0000
  H   H5        1.0  0.47249  0.95024  0.13777  1.0000
  H   H6        1.0  0.49593  0.95472  0.06832  1.0000
  N   N7        1.0  0.27199  0.52468  0.25635  1.0000
  C   C13       1.0  0.24820  0.52185  0.25816  1.0000
  H   H7        1.0  0.24127  0.52570  0.20162  1.0000
  N   N8        1.0  0.47318  0.74677  0.25560  1.0000
  C   C14       1.0  0.47601  0.72582  0.25765  1.0000
  H   H8        1.0  0.47240  0.71509  0.20110  1.0000
  N   N9        1.0  0.25123  0.72613  0.25636  1.0000
  C   C15       1.0  0.27216  0.74993  0.25849  1.0000
  H   H9        1.0  0.28296  0.75695  0.20203  1.0000
  N   N10       1.0  0.72718  0.47391  0.25349  1.0000
  C   C16       1.0  0.75089  0.47656  0.25450  1.0000
  H   H10       1.0  0.75773  0.47273  0.19766  1.0000
  N   N11       1.0  0.52414  0.25283  0.25421  1.0000
  C   C17       1.0  0.52147  0.27389  0.25488  1.0000
  H   H11       1.0  0.52557  0.28461  0.19808  1.0000
  N   N12       1.0  0.74513  0.27094  0.25335  1.0000
  C   C18       1.0  0.72406  0.24722  0.25441  1.0000
  H   H12       1.0  0.71340  0.24037  0.19758  1.0000
  C   C19       1.0  0.17462  0.60503  0.32809  1.0000
  N   N13       1.0  0.14855  0.59160  0.32693  1.0000
  C   C20       1.0  0.13494  0.56549  0.33215  1.0000
  N   N14       1.0  0.14841  0.55289  0.33898  1.0000
  C   C21       1.0  0.17443  0.56543  0.34182  1.0000
  N   N15       1.0  0.18699  0.59142  0.33592  1.0000
  C   C22       1.0  0.10761  0.55173  0.32936  1.0000
  C   C23       1.0  0.09350  0.56466  0.31935  1.0000
  C   C24       1.0  0.06654  0.55103  0.31512  1.0000
  C   C25       1.0  0.05279  0.52395  0.32020  1.0000
  C   C26       1.0  0.06664  0.51093  0.33230  1.0000
  C   C27       1.0  0.09359  0.52459  0.33621  1.0000
  C   C28       1.0  0.18888  0.63223  0.32112  1.0000
  C   C29       1.0  0.17855  0.64785  0.34737  1.0000
  C   C30       1.0  0.19382  0.67485  0.34736  1.0000
  C   C31       1.0  0.21964  0.68692  0.31870  1.0000
  C   C32       1.0  0.22959  0.67139  0.28837  1.0000
  C   C33       1.0  0.21454  0.64454  0.29017  1.0000
  C   C34       1.0  0.18840  0.55225  0.34911  1.0000
  C   C35       1.0  0.21310  0.56455  0.38826  1.0000
  C   C36       1.0  0.22797  0.55255  0.39059  1.0000
  C   C37       1.0  0.21881  0.52803  0.35226  1.0000
  C   C38       1.0  0.19411  0.51550  0.31359  1.0000
  C   C39       1.0  0.17883  0.52722  0.31406  1.0000
  H   H13       1.0  0.18626  0.68561  0.37113  1.0000
  H   H14       1.0  0.16023  0.63971  0.37158  1.0000
  H   H15       1.0  0.24841  0.67942  0.26934  1.0000
  H   H16       1.0  0.22284  0.63411  0.26997  1.0000
  H   H17       1.0  0.22079  0.58264  0.41432  1.0000
  H   H18       1.0  0.24620  0.56259  0.41597  1.0000
  H   H19       1.0  0.16132  0.51797  0.28322  1.0000
  H   H20       1.0  0.18735  0.49809  0.28305  1.0000
  H   H21       1.0  0.10280  0.51429  0.34389  1.0000
  H   H22       1.0  0.05725  0.49131  0.33658  1.0000
  H   H23       1.0  0.05705  0.56110  0.30880  1.0000
  H   H24       1.0  0.10265  0.58424  0.31481  1.0000
  C   C40       1.0  0.39301  0.56913  0.32902  1.0000
  N   N16       1.0  0.40642  0.55647  0.32765  1.0000
  C   C41       1.0  0.43254  0.56897  0.33270  1.0000
  N   N17       1.0  0.44515  0.59503  0.33957  1.0000
  C   C42       1.0  0.43262  0.60852  0.34262  1.0000
  N   N18       1.0  0.40663  0.59509  0.33688  1.0000
  C   C43       1.0  0.44629  0.55539  0.32971  1.0000
  C   C44       1.0  0.43336  0.52835  0.31963  1.0000
  C   C45       1.0  0.44699  0.51502  0.31525  1.0000
  C   C46       1.0  0.47407  0.52834  0.32023  1.0000
  C   C47       1.0  0.48709  0.55522  0.33239  1.0000
  C   C48       1.0  0.47344  0.56851  0.33643  1.0000
  C   C49       1.0  0.36581  0.55621  0.32209  1.0000
  C   C50       1.0  0.35017  0.53023  0.34797  1.0000
  C   C51       1.0  0.32316  0.51848  0.34770  1.0000
  C   C52       1.0  0.31111  0.53226  0.31920  1.0000
  C   C53       1.0  0.32666  0.55781  0.28951  1.0000
  C   C54       1.0  0.35351  0.56960  0.29147  1.0000
  C   C55       1.0  0.44581  0.63567  0.34983  1.0000
  C   C56       1.0  0.43358  0.64806  0.38954  1.0000
  C   C57       1.0  0.44553  0.67493  0.39148  1.0000
  C   C58       1.0  0.46993  0.69028  0.35233  1.0000
  C   C59       1.0  0.48240  0.67811  0.31321  1.0000
  C   C60       1.0  0.47073  0.65112  0.31395  1.0000
  H   H25       1.0  0.31239  0.50011  0.37096  1.0000
  H   H26       1.0  0.35829  0.51998  0.37171  1.0000
  H   H27       1.0  0.31864  0.56862  0.27070  1.0000
  H   H28       1.0  0.36394  0.58836  0.27166  1.0000
  H   H29       1.0  0.41556  0.63766  0.41615  1.0000
  H   H30       1.0  0.43552  0.68311  0.41725  1.0000
  H   H31       1.0  0.47990  0.64285  0.28269  1.0000
  H   H32       1.0  0.49971  0.68876  0.28197  1.0000
  H   H33       1.0  0.48374  0.58801  0.34416  1.0000
  H   H34       1.0  0.50671  0.56544  0.33659  1.0000
  H   H35       1.0  0.43691  0.49546  0.30890  1.0000
  H   H36       1.0  0.41377  0.51792  0.31516  1.0000
  C   C61       1.0  0.42880  0.82345  0.32848  1.0000
  N   N19       1.0  0.44147  0.84952  0.32723  1.0000
  C   C62       1.0  0.42898  0.86315  0.33252  1.0000
  N   N20       1.0  0.40292  0.84971  0.33953  1.0000
  C   C63       1.0  0.38943  0.82368  0.34250  1.0000
  N   N21       1.0  0.40284  0.81110  0.33650  1.0000
  C   C64       1.0  0.44256  0.89048  0.32961  1.0000
  C   C65       1.0  0.46961  0.90458  0.31948  1.0000
  C   C66       1.0  0.48294  0.93153  0.31512  1.0000
  C   C67       1.0  0.46963  0.94530  0.32018  1.0000
  C   C68       1.0  0.44276  0.93146  0.33238  1.0000
  C   C69       1.0  0.42946  0.90451  0.33643  1.0000
  C   C70       1.0  0.44171  0.80917  0.32128  1.0000
  C   C71       1.0  0.46762  0.81942  0.34788  1.0000
  C   C72       1.0  0.47931  0.80411  0.34764  1.0000
  C   C73       1.0  0.46556  0.77835  0.31834  1.0000
  C   C74       1.0  0.44014  0.76850  0.28760  1.0000
  C   C75       1.0  0.42837  0.78359  0.28968  1.0000
  C   C76       1.0  0.36229  0.80975  0.34992  1.0000
  C   C77       1.0  0.34990  0.78517  0.38996  1.0000
  C   C78       1.0  0.32303  0.77029  0.39227  1.0000
  C   C79       1.0  0.30766  0.77930  0.35298  1.0000
  C   C80       1.0  0.31984  0.80390  0.31347  1.0000
  C   C81       1.0  0.34683  0.81920  0.31399  1.0000
  H   H37       1.0  0.49759  0.81160  0.37169  1.0000
  H   H38       1.0  0.47780  0.83769  0.37255  1.0000
  H   H39       1.0  0.42935  0.74972  0.26810  1.0000
  H   H40       1.0  0.40968  0.77536  0.26920  1.0000
  H   H41       1.0  0.36031  0.77757  0.41664  1.0000
  H   H42       1.0  0.31486  0.75213  0.41825  1.0000
  H   H43       1.0  0.35509  0.83661  0.28247  1.0000
  H   H44       1.0  0.30918  0.81054  0.28222  1.0000
  H   H45       1.0  0.40996  0.89532  0.34419  1.0000
  H   H46       1.0  0.43254  0.94086  0.33666  1.0000
  H   H47       1.0  0.50250  0.94102  0.30872  1.0000
  H   H48       1.0  0.48003  0.89542  0.31494  1.0000
  C   C82       1.0  0.82277  0.39163  0.32945  1.0000
  N   N22       1.0  0.84883  0.40462  0.33097  1.0000
  C   C83       1.0  0.86274  0.43072  0.33553  1.0000
  N   N23       1.0  0.84978  0.44387  0.33926  1.0000
  C   C84       1.0  0.82374  0.43170  0.33977  1.0000
  N   N24       1.0  0.81081  0.40568  0.33447  1.0000
  C   C85       1.0  0.88999  0.44385  0.33588  1.0000
  C   C86       1.0  0.90351  0.43113  0.36046  1.0000
  C   C87       1.0  0.93049  0.44412  0.36053  1.0000
  C   C88       1.0  0.94489  0.47017  0.33453  1.0000
  C   C89       1.0  0.93142  0.48284  0.30915  1.0000
  C   C90       1.0  0.90445  0.47000  0.31090  1.0000
  C   C91       1.0  0.80814  0.36444  0.32240  1.0000
  C   C92       1.0  0.81802  0.34848  0.34925  1.0000
  C   C93       1.0  0.80248  0.32150  0.34808  1.0000
  C   C94       1.0  0.77684  0.30980  0.31776  1.0000
  C   C95       1.0  0.76732  0.32568  0.28724  1.0000
  C   C96       1.0  0.78264  0.35250  0.29005  1.0000
  C   C97       1.0  0.81008  0.44520  0.34574  1.0000
  C   C98       1.0  0.78547  0.43334  0.38555  1.0000
  C   C99       1.0  0.77089  0.44566  0.38734  1.0000
  C   C100      1.0  0.78029  0.47009  0.34802  1.0000
  C   C101      1.0  0.80490  0.48217  0.30860  1.0000
  C   C102      1.0  0.81987  0.47011  0.30942  1.0000
  H   H49       1.0  0.80975  0.31049  0.37193  1.0000
  H   H50       1.0  0.83625  0.35632  0.37414  1.0000
  H   H51       1.0  0.74862  0.31792  0.26708  1.0000
  H   H52       1.0  0.77465  0.36317  0.26941  1.0000
  H   H53       1.0  0.77763  0.41535  0.41262  1.0000
  H   H54       1.0  0.75273  0.43593  0.41342  1.0000
  H   H55       1.0  0.83735  0.47905  0.27836  1.0000
  H   H56       1.0  0.81180  0.49951  0.27733  1.0000
  H   H57       1.0  0.89553  0.47991  0.29160  1.0000
  H   H58       1.0  0.94113  0.50171  0.29015  1.0000
  H   H59       1.0  0.93945  0.43406  0.37734  1.0000
  H   H60       1.0  0.89388  0.41226  0.37936  1.0000
  C   C103      1.0  0.60647  0.43074  0.32907  1.0000
  N   N25       1.0  0.59346  0.44379  0.33066  1.0000
  C   C104      1.0  0.56736  0.43159  0.33515  1.0000
  N   N26       1.0  0.55423  0.40547  0.33876  1.0000
  C   C105      1.0  0.56642  0.39162  0.33918  1.0000
  N   N27       1.0  0.59243  0.40473  0.33395  1.0000
  C   C106      1.0  0.55421  0.44569  0.33561  1.0000
  C   C107      1.0  0.56691  0.47191  0.36028  1.0000
  C   C108      1.0  0.55391  0.48589  0.36039  1.0000
  C   C109      1.0  0.52786  0.47424  0.33437  1.0000
  C   C110      1.0  0.51521  0.44810  0.30891  1.0000
  C   C111      1.0  0.52806  0.43399  0.31061  1.0000
  C   C112      1.0  0.63366  0.44333  0.32215  1.0000
  C   C113      1.0  0.64960  0.46919  0.34888  1.0000
  C   C114      1.0  0.67657  0.48065  0.34793  1.0000
  C   C115      1.0  0.68831  0.46671  0.31790  1.0000
  C   C116      1.0  0.67247  0.44130  0.28733  1.0000
  C   C117      1.0  0.64564  0.42978  0.29001  1.0000
  C   C118      1.0  0.55292  0.36444  0.34509  1.0000
  C   C119      1.0  0.56487  0.35168  0.38418  1.0000
  C   C120      1.0  0.55250  0.32479  0.38626  1.0000
  C   C121      1.0  0.52795  0.30975  0.34778  1.0000
  C   C122      1.0  0.51580  0.32229  0.30894  1.0000
  C   C123      1.0  0.52790  0.34932  0.30960  1.0000
  H   H61       1.0  0.68756  0.49892  0.37181  1.0000
  H   H62       1.0  0.64172  0.47954  0.37379  1.0000
  H   H63       1.0  0.68025  0.43038  0.26728  1.0000
  H   H64       1.0  0.63500  0.41112  0.26936  1.0000
  H   H65       1.0  0.58292  0.36182  0.41073  1.0000
  H   H66       1.0  0.56227  0.31634  0.41189  1.0000
  H   H67       1.0  0.51888  0.35785  0.27905  1.0000
  H   H68       1.0  0.49835  0.31185  0.27840  1.0000
  H   H69       1.0  0.51816  0.41516  0.29122  1.0000
  H   H70       1.0  0.49634  0.43894  0.28985  1.0000
  H   H71       1.0  0.56396  0.50491  0.37725  1.0000
  H   H72       1.0  0.58578  0.48116  0.37918  1.0000
  C   C124      1.0  0.56727  0.17535  0.33002  1.0000
  N   N28       1.0  0.55420  0.14928  0.33113  1.0000
  C   C125      1.0  0.56638  0.13536  0.33530  1.0000
  N   N29       1.0  0.59250  0.14831  0.33903  1.0000
  C   C126      1.0  0.60636  0.17435  0.33992  1.0000
  N   N30       1.0  0.59328  0.18729  0.33502  1.0000
  C   C127      1.0  0.55226  0.10811  0.33543  1.0000
  C   C128      1.0  0.52603  0.09458  0.36001  1.0000
  C   C129      1.0  0.51205  0.06760  0.36005  1.0000
  C   C130      1.0  0.52370  0.05321  0.33402  1.0000
  C   C131      1.0  0.54984  0.06669  0.30856  1.0000
  C   C132      1.0  0.56395  0.09366  0.31033  1.0000
  C   C133      1.0  0.55470  0.18998  0.32335  1.0000
  C   C134      1.0  0.52874  0.17995  0.34905  1.0000
  C   C135      1.0  0.51724  0.19543  0.34797  1.0000
  C   C136      1.0  0.53126  0.22119  0.31891  1.0000
  C   C137      1.0  0.55681  0.23091  0.28971  1.0000
  C   C138      1.0  0.56835  0.21563  0.29240  1.0000
  C   C139      1.0  0.63353  0.18801  0.34584  1.0000
  C   C140      1.0  0.64628  0.21255  0.38608  1.0000
  C   C141      1.0  0.67317  0.22713  0.38784  1.0000
  C   C142      1.0  0.68820  0.21781  0.34799  1.0000
  C   C143      1.0  0.67568  0.19326  0.30814  1.0000
  C   C144      1.0  0.64865  0.17828  0.30901  1.0000
  H   H73       1.0  0.49885  0.18802  0.37084  1.0000
  H   H74       1.0  0.51829  0.16161  0.37289  1.0000
  H   H75       1.0  0.56778  0.24969  0.27046  1.0000
  H   H76       1.0  0.58710  0.22375  0.27261  1.0000
  H   H77       1.0  0.63614  0.22034  0.41354  1.0000
  H   H78       1.0  0.68160  0.24525  0.41425  1.0000
  H   H79       1.0  0.64010  0.16084  0.27763  1.0000
  H   H80       1.0  0.68610  0.18640  0.27650  1.0000
  H   H81       1.0  0.58279  0.10259  0.29104  1.0000
  H   H82       1.0  0.55901  0.05699  0.28953  1.0000
  H   H83       1.0  0.49303  0.05863  0.37693  1.0000
  H   H84       1.0  0.51678  0.10420  0.37901  1.0000
  N   N31       1.0  0.01335  0.49309  0.38360  1.0000
  C   C145      1.0  0.98752  0.47943  0.39277  1.0000
  H   H85       1.0  0.97981  0.46740  0.44603  1.0000
  N   N32       1.0  0.50492  0.51975  0.38356  1.0000
  C   C146      1.0  0.51860  0.50760  0.39265  1.0000
  H   H86       1.0  0.53060  0.51189  0.44599  1.0000
  N   N33       1.0  0.47822  0.98476  0.38343  1.0000
  C   C147      1.0  0.49038  0.01059  0.39248  1.0000
  H   H87       1.0  0.48607  0.01831  0.44572  1.0000
  C   C148      1.0  0.28447  0.52288  0.32921  1.0000
  C   C149      1.0  0.23633  0.51909  0.34145  1.0000
  N   N34       1.0  0.24885  0.51750  0.41429  1.0000
  C   C150      1.0  0.27173  0.51807  0.41274  1.0000
  C   C151      1.0  0.28188  0.51720  0.49683  1.0000
  O   O4        1.0  0.26568  0.49979  0.55662  1.0000
  N   N35       1.0  0.30540  0.53502  0.52607  1.0000
  H   H88       1.0  0.31651  0.55009  0.49084  1.0000
  H   H89       1.0  0.31044  0.53446  0.58718  1.0000
  C   C152      1.0  0.47485  0.76101  0.32841  1.0000
  C   C153      1.0  0.47875  0.71670  0.34094  1.0000
  N   N36       1.0  0.48026  0.73083  0.41367  1.0000
  C   C154      1.0  0.47970  0.75315  0.41202  1.0000
  C   C155      1.0  0.48029  0.76399  0.49619  1.0000
  O   O5        1.0  0.49775  0.76540  0.55615  1.0000
  N   N37       1.0  0.46224  0.76941  0.52507  1.0000
  H   H90       1.0  0.44726  0.76549  0.48941  1.0000
  H   H91       1.0  0.46271  0.77505  0.58607  1.0000
  C   C156      1.0  0.23691  0.71355  0.32902  1.0000
  C   C157      1.0  0.28122  0.76171  0.34194  1.0000
  N   N38       1.0  0.26707  0.74910  0.41460  1.0000
  C   C158      1.0  0.24477  0.72620  0.41272  1.0000
  C   C159      1.0  0.23374  0.71595  0.49667  1.0000
  O   O6        1.0  0.23242  0.73204  0.55667  1.0000
  N   N39       1.0  0.22812  0.69241  0.52562  1.0000
  H   H92       1.0  0.23213  0.68138  0.49020  1.0000
  H   H93       1.0  0.22250  0.68730  0.58665  1.0000
  C   C160      1.0  0.71493  0.47580  0.32684  1.0000
  C   C161      1.0  0.76302  0.47934  0.33726  1.0000
  N   N40       1.0  0.75072  0.48109  0.41051  1.0000
  C   C162      1.0  0.72793  0.48073  0.40988  1.0000
  C   C163      1.0  0.71802  0.48150  0.49452  1.0000
  O   O7        1.0  0.73434  0.49897  0.55391  1.0000
  N   N41       1.0  0.69460  0.46358  0.52433  1.0000
  H   H94       1.0  0.68336  0.44859  0.48903  1.0000
  H   H95       1.0  0.68966  0.46415  0.58556  1.0000
  C   C164      1.0  0.52205  0.23863  0.32763  1.0000
  C   C165      1.0  0.51858  0.28319  0.33758  1.0000
  N   N42       1.0  0.51670  0.26916  0.41096  1.0000
  C   C166      1.0  0.51709  0.24674  0.41051  1.0000
  C   C167      1.0  0.51599  0.23587  0.49508  1.0000
  O   O8        1.0  0.49853  0.23491  0.55413  1.0000
  N   N43       1.0  0.53366  0.23010  0.52545  1.0000
  H   H96       1.0  0.54876  0.23389  0.49073  1.0000
  H   H97       1.0  0.53295  0.22462  0.58681  1.0000
  C   C168      1.0  0.75925  0.28319  0.32671  1.0000
  C   C169      1.0  0.71472  0.23511  0.33719  1.0000
  N   N44       1.0  0.72878  0.24741  0.41043  1.0000
  C   C170      1.0  0.75121  0.27020  0.40977  1.0000
  C   C171      1.0  0.76189  0.28013  0.49441  1.0000
  O   O9        1.0  0.76306  0.26382  0.55381  1.0000
  N   N45       1.0  0.76733  0.30352  0.52420  1.0000
  H   H98       1.0  0.76356  0.31475  0.48887  1.0000
  H   H99       1.0  0.77284  0.30848  0.58543  1.0000
