data_image0
_chemical_formula_structural       C3NC3NC5NC5NC20H18N4C3NC3NC5NC5NC20H18N4C3NC3NC5NC5NC20H18N4C3H2C2H3CHC3H2C2H3CHC3H2C2H3CHC3H2C2H3CHC3H2C2H3CHC3H2C2H3CHC8H8C8H8C8H8C3NC2NC2HCHC3NC2NC2HCHC3NC2NC2HCHC3NC2NC2HCHC3NC2NC2HCHC3NC2NC2HCH
_chemical_formula_sum              "C216 N36 H126"
_cell_length_a       50.747
_cell_length_b       50.7469
_cell_length_c       14.8753
_cell_angle_alpha    90.0972
_cell_angle_beta     89.9028
_cell_angle_gamma    120

_space_group_name_H-M_alt    "P 1"
_space_group_IT_number       1

loop_
  _space_group_symop_operation_xyz
  'x, y, z'

loop_
  _atom_site_type_symbol
  _atom_site_label
  _atom_site_symmetry_multiplicity
  _atom_site_fract_x
  _atom_site_fract_y
  _atom_site_fract_z
  _atom_site_occupancy
  C   C1        1.0  0.05140  0.65012  0.32698  1.0000
  C   C2        1.0  0.01992  0.63436  0.32695  1.0000
  C   C3        1.0  0.00992  0.60322  0.32556  1.0000
  N   N1        1.0  0.03569  0.60135  0.32479  1.0000
  C   C4        1.0  0.06144  0.62901  0.32568  1.0000
  C   C5        1.0  0.09249  0.63643  0.32521  1.0000
  C   C6        1.0  0.10231  0.61462  0.32426  1.0000
  N   N2        1.0  0.08511  0.58389  0.32395  1.0000
  C   C7        1.0  0.10229  0.57034  0.32339  1.0000
  C   C8        1.0  0.13251  0.59399  0.32324  1.0000
  C   C9        1.0  0.13253  0.62117  0.32399  1.0000
  C   C10       1.0  0.09245  0.53872  0.32350  1.0000
  C   C11       1.0  0.06144  0.51507  0.32456  1.0000
  N   N3        1.0  0.03569  0.51697  0.32433  1.0000
  C   C12       1.0  0.00996  0.48931  0.32610  1.0000
  C   C13       1.0  0.01999  0.46819  0.32736  1.0000
  C   C14       1.0  0.05146  0.48394  0.32634  1.0000
  C   C15       1.0  0.97893  0.48190  0.32647  1.0000
  C   C16       1.0  0.96908  0.50368  0.32556  1.0000
  N   N4        1.0  0.98625  0.53440  0.32552  1.0000
  C   C17       1.0  0.96906  0.54793  0.32493  1.0000
  C   C18       1.0  0.93884  0.52425  0.32432  1.0000
  C   C19       1.0  0.93885  0.49708  0.32495  1.0000
  C   C20       1.0  0.97888  0.57956  0.32522  1.0000
  C   C21       1.0  0.95562  0.58767  0.32586  1.0000
  C   C22       1.0  0.90298  0.59457  0.32546  1.0000
  C   C23       1.0  0.91776  0.59500  0.24444  1.0000
  C   C24       1.0  0.94358  0.59143  0.24438  1.0000
  C   C25       1.0  0.95577  0.45053  0.32910  1.0000
  C   C26       1.0  0.90422  0.39046  0.33490  1.0000
  C   C27       1.0  0.91688  0.40482  0.25174  1.0000
  C   C28       1.0  0.94229  0.43447  0.24889  1.0000
  C   C29       1.0  0.11564  0.53053  0.32370  1.0000
  C   C30       1.0  0.12841  0.52785  0.24207  1.0000
  C   C31       1.0  0.15408  0.52402  0.24227  1.0000
  C   C32       1.0  0.16767  0.52269  0.32366  1.0000
  C   C33       1.0  0.11576  0.66781  0.32663  1.0000
  C   C34       1.0  0.13031  0.68294  0.24622  1.0000
  C   C35       1.0  0.16872  0.72706  0.33130  1.0000
  C   C36       1.0  0.15637  0.71217  0.24850  1.0000
  H   H1        1.0  0.16686  0.72191  0.18917  1.0000
  H   H2        1.0  0.12277  0.67223  0.18555  1.0000
  H   H3        1.0  0.06457  0.67330  0.32783  1.0000
  H   H4        1.0  0.00673  0.64435  0.32789  1.0000
  H   H5        1.0  0.03569  0.58243  0.32344  1.0000
  H   H6        1.0  0.03568  0.53587  0.32269  1.0000
  H   H7        1.0  0.15173  0.64212  0.32446  1.0000
  H   H8        1.0  0.15170  0.59220  0.32314  1.0000
  H   H9        1.0  0.11982  0.52984  0.18188  1.0000
  H   H10       1.0  0.16332  0.52299  0.18203  1.0000
  H   H11       1.0  0.06464  0.47394  0.32705  1.0000
  H   H12       1.0  0.00683  0.44501  0.32876  1.0000
  H   H13       1.0  0.91963  0.52600  0.32370  1.0000
  H   H14       1.0  0.91967  0.47610  0.32472  1.0000
  H   H15       1.0  0.95024  0.44467  0.18781  1.0000
  H   H16       1.0  0.90721  0.39427  0.19243  1.0000
  H   H17       1.0  0.95292  0.59053  0.18422  1.0000
  H   H18       1.0  0.90916  0.59690  0.18414  1.0000
  N   N5        1.0  0.87909  0.36329  0.34361  1.0000
  N   N6        1.0  0.19324  0.52123  0.31822  1.0000
  N   N7        1.0  0.19449  0.75375  0.33967  1.0000
  N   N8        1.0  0.87757  0.59634  0.31913  1.0000
  C   C37       1.0  0.44400  0.48319  0.32804  1.0000
  C   C38       1.0  0.45975  0.46746  0.32722  1.0000
  C   C39       1.0  0.49088  0.48861  0.32491  1.0000
  N   N9        1.0  0.49276  0.51625  0.32419  1.0000
  C   C40       1.0  0.46510  0.51433  0.32616  1.0000
  C   C41       1.0  0.45769  0.53795  0.32624  1.0000
  C   C42       1.0  0.47947  0.56958  0.32481  1.0000
  N   N10       1.0  0.51019  0.58313  0.32428  1.0000
  C   C43       1.0  0.52373  0.61385  0.32335  1.0000
  C   C44       1.0  0.50006  0.62041  0.32307  1.0000
  C   C45       1.0  0.47289  0.59323  0.32414  1.0000
  C   C46       1.0  0.55536  0.63565  0.32317  1.0000
  C   C47       1.0  0.57902  0.62828  0.32356  1.0000
  N   N11       1.0  0.57714  0.60063  0.32310  1.0000
  C   C48       1.0  0.60481  0.60256  0.32397  1.0000
  C   C49       1.0  0.62592  0.63370  0.32486  1.0000
  C   C50       1.0  0.61016  0.64942  0.32462  1.0000
  C   C51       1.0  0.61222  0.57894  0.32372  1.0000
  C   C52       1.0  0.59042  0.54731  0.32319  1.0000
  N   N12       1.0  0.55969  0.53377  0.32344  1.0000
  C   C53       1.0  0.54616  0.50305  0.32319  1.0000
  C   C54       1.0  0.56981  0.49648  0.32260  1.0000
  C   C55       1.0  0.59699  0.52365  0.32286  1.0000
  C   C56       1.0  0.51453  0.48124  0.32388  1.0000
  C   C57       1.0  0.50642  0.44987  0.32450  1.0000
  C   C58       1.0  0.49955  0.39036  0.32433  1.0000
  C   C59       1.0  0.49944  0.40473  0.24317  1.0000
  C   C60       1.0  0.50297  0.43411  0.24299  1.0000
  C   C61       1.0  0.64359  0.58707  0.32517  1.0000
  C   C62       1.0  0.70289  0.59352  0.33002  1.0000
  C   C63       1.0  0.68806  0.59095  0.24717  1.0000
  C   C64       1.0  0.65881  0.58771  0.24479  1.0000
  C   C65       1.0  0.56354  0.66703  0.32358  1.0000
  C   C66       1.0  0.56675  0.68262  0.24202  1.0000
  C   C67       1.0  0.57058  0.71212  0.24222  1.0000
  C   C68       1.0  0.57135  0.72690  0.32355  1.0000
  C   C69       1.0  0.42630  0.52976  0.32903  1.0000
  C   C70       1.0  0.41026  0.52724  0.24893  1.0000
  C   C71       1.0  0.36632  0.52153  0.33518  1.0000
  C   C72       1.0  0.38068  0.52318  0.25196  1.0000
  H   H19       1.0  0.37017  0.52238  0.19269  1.0000
  H   H20       1.0  0.42047  0.52951  0.18779  1.0000
  H   H21       1.0  0.42082  0.47317  0.32978  1.0000
  H   H22       1.0  0.44977  0.44429  0.32847  1.0000
  H   H23       1.0  0.51167  0.53517  0.32219  1.0000
  H   H24       1.0  0.55822  0.58172  0.32194  1.0000
  H   H25       1.0  0.45192  0.59144  0.32435  1.0000
  H   H26       1.0  0.50184  0.64137  0.32249  1.0000
  H   H27       1.0  0.56516  0.67214  0.18180  1.0000
  H   H28       1.0  0.57202  0.72248  0.18197  1.0000
  H   H29       1.0  0.62015  0.67260  0.32524  1.0000
  H   H30       1.0  0.64910  0.64372  0.32553  1.0000
  H   H31       1.0  0.56805  0.47552  0.32238  1.0000
  H   H32       1.0  0.61794  0.52541  0.32286  1.0000
  H   H33       1.0  0.64815  0.58455  0.18410  1.0000
  H   H34       1.0  0.69791  0.59031  0.18786  1.0000
  H   H35       1.0  0.50412  0.44437  0.18278  1.0000
  H   H36       1.0  0.49776  0.39424  0.18289  1.0000
  N   N13       1.0  0.72962  0.59458  0.33851  1.0000
  N   N14       1.0  0.57293  0.75399  0.31798  1.0000
  N   N15       1.0  0.33921  0.51965  0.34401  1.0000
  N   N16       1.0  0.49783  0.36321  0.31818  1.0000
  C   C73       1.0  0.61206  0.04336  0.32608  1.0000
  C   C74       1.0  0.62777  0.07483  0.32532  1.0000
  C   C75       1.0  0.60662  0.08481  0.32353  1.0000
  N   N17       1.0  0.57898  0.05905  0.32298  1.0000
  C   C76       1.0  0.58092  0.03333  0.32460  1.0000
  C   C77       1.0  0.55729  0.00229  0.32467  1.0000
  C   C78       1.0  0.52566  0.99244  0.32370  1.0000
  N   N18       1.0  0.51211  0.00962  0.32385  1.0000
  C   C79       1.0  0.48138  0.99241  0.32321  1.0000
  C   C80       1.0  0.47485  0.96220  0.32235  1.0000
  C   C81       1.0  0.50203  0.96221  0.32286  1.0000
  C   C82       1.0  0.45957  0.00222  0.32368  1.0000
  C   C83       1.0  0.46694  0.03326  0.32423  1.0000
  N   N19       1.0  0.49459  0.05903  0.32351  1.0000
  C   C84       1.0  0.49266  0.08478  0.32464  1.0000
  C   C85       1.0  0.46152  0.07474  0.32603  1.0000
  C   C86       1.0  0.44580  0.04326  0.32585  1.0000
  C   C87       1.0  0.51629  0.11583  0.32429  1.0000
  C   C88       1.0  0.54792  0.12566  0.32341  1.0000
  N   N20       1.0  0.56145  0.10847  0.32308  1.0000
  C   C89       1.0  0.59218  0.12565  0.32261  1.0000
  C   C90       1.0  0.59875  0.15588  0.32259  1.0000
  C   C91       1.0  0.57158  0.15588  0.32327  1.0000
  C   C92       1.0  0.61397  0.11582  0.32274  1.0000
  C   C93       1.0  0.64534  0.13903  0.32313  1.0000
  C   C94       1.0  0.70506  0.19126  0.32361  1.0000
  C   C95       1.0  0.69025  0.17760  0.24209  1.0000
  C   C96       1.0  0.66081  0.15184  0.24164  1.0000
  C   C97       1.0  0.50815  0.13907  0.32586  1.0000
  C   C98       1.0  0.50154  0.19183  0.33078  1.0000
  C   C99       1.0  0.50419  0.17954  0.24792  1.0000
  C   C100      1.0  0.50748  0.15356  0.24550  1.0000
  C   C101      1.0  0.42819  0.97897  0.32446  1.0000
  C   C102      1.0  0.41225  0.96698  0.24311  1.0000
  C   C103      1.0  0.38278  0.94125  0.24334  1.0000
  C   C104      1.0  0.36850  0.92653  0.32442  1.0000
  C   C105      1.0  0.56550  0.97913  0.32731  1.0000
  C   C106      1.0  0.56804  0.96556  0.24715  1.0000
  C   C107      1.0  0.57363  0.92733  0.33327  1.0000
  C   C108      1.0  0.57208  0.94003  0.25008  1.0000
  H   H37       1.0  0.57289  0.93027  0.19080  1.0000
  H   H38       1.0  0.56584  0.97351  0.18604  1.0000
  H   H39       1.0  0.62208  0.03021  0.32746  1.0000
  H   H40       1.0  0.65095  0.08803  0.32630  1.0000
  H   H41       1.0  0.56006  0.05904  0.32125  1.0000
  H   H42       1.0  0.51350  0.05904  0.32200  1.0000
  H   H43       1.0  0.50383  0.94304  0.32249  1.0000
  H   H44       1.0  0.45389  0.94299  0.32162  1.0000
  H   H45       1.0  0.42240  0.97631  0.18289  1.0000
  H   H46       1.0  0.37216  0.93270  0.18311  1.0000
  H   H47       1.0  0.42262  0.03007  0.32683  1.0000
  H   H48       1.0  0.45150  0.08790  0.32706  1.0000
  H   H49       1.0  0.61972  0.17507  0.32253  1.0000
  H   H50       1.0  0.56982  0.17508  0.32376  1.0000
  H   H51       1.0  0.51071  0.14606  0.18480  1.0000
  H   H52       1.0  0.50484  0.18998  0.18863  1.0000
  H   H53       1.0  0.65029  0.14320  0.18136  1.0000
  H   H54       1.0  0.70053  0.18685  0.18193  1.0000
  N   N21       1.0  0.50038  0.21747  0.33924  1.0000
  N   N22       1.0  0.34121  0.90123  0.31826  1.0000
  N   N23       1.0  0.57534  0.90203  0.34204  1.0000
  N   N24       1.0  0.73203  0.21690  0.31836  1.0000
  C   C109      1.0  0.29113  0.51553  0.31551  1.0000
  C   C110      1.0  0.26792  0.50746  0.25048  1.0000
  C   C111      1.0  0.24085  0.50761  0.26999  1.0000
  H   H55       1.0  0.22487  0.50135  0.22030  1.0000
  H   H56       1.0  0.27045  0.50124  0.18691  1.0000
  C   C112      1.0  0.31992  0.55492  0.04149  1.0000
  C   C113      1.0  0.29307  0.55566  0.06014  1.0000
  H   H57       1.0  0.33600  0.56064  0.09046  1.0000
  H   H58       1.0  0.28974  0.56196  0.12254  1.0000
  H   H59       1.0  0.25125  0.54812  0.00724  1.0000
  C   C114      1.0  0.31798  0.51598  0.28929  1.0000
  H   H60       1.0  0.32104  0.51366  0.22436  1.0000
  C   C115      1.0  0.57917  0.85787  0.31419  1.0000
  C   C116      1.0  0.58701  0.84239  0.24949  1.0000
  C   C117      1.0  0.58651  0.81504  0.26946  1.0000
  H   H61       1.0  0.59261  0.80508  0.21995  1.0000
  H   H62       1.0  0.59330  0.85096  0.18584  1.0000
  C   C118      1.0  0.53991  0.84841  0.03993  1.0000
  C   C119      1.0  0.53879  0.82070  0.05909  1.0000
  H   H63       1.0  0.53437  0.85905  0.08864  1.0000
  H   H64       1.0  0.53240  0.81126  0.12162  1.0000
  H   H65       1.0  0.54581  0.78594  0.00694  1.0000
  C   C120      1.0  0.57905  0.88439  0.28758  1.0000
  H   H66       1.0  0.58159  0.88974  0.22267  1.0000
  C   C121      1.0  0.23947  0.80066  0.31051  1.0000
  C   C122      1.0  0.26304  0.81563  0.24636  1.0000
  C   C123      1.0  0.29038  0.84239  0.26733  1.0000
  H   H67       1.0  0.30676  0.85181  0.21854  1.0000
  H   H68       1.0  0.26072  0.80690  0.18284  1.0000
  C   C124      1.0  0.20857  0.81107  0.03410  1.0000
  C   C125      1.0  0.23575  0.83808  0.05459  1.0000
  H   H69       1.0  0.19206  0.80084  0.08209  1.0000
  H   H70       1.0  0.23891  0.84740  0.11737  1.0000
  H   H71       1.0  0.27837  0.87179  0.00433  1.0000
  C   C126      1.0  0.21277  0.77426  0.28417  1.0000
  H   H72       1.0  0.20802  0.77089  0.21894  1.0000
  C   C127      1.0  0.77663  0.59668  0.30994  1.0000
  C   C128      1.0  0.79185  0.58823  0.24613  1.0000
  C   C129      1.0  0.81869  0.58788  0.26754  1.0000
  H   H73       1.0  0.82830  0.58103  0.21897  1.0000
  H   H74       1.0  0.78327  0.58179  0.18253  1.0000
  C   C130      1.0  0.78611  0.63786  0.03336  1.0000
  C   C131      1.0  0.81319  0.63790  0.05433  1.0000
  H   H75       1.0  0.77568  0.64401  0.08110  1.0000
  H   H76       1.0  0.82236  0.64411  0.11722  1.0000
  H   H77       1.0  0.84722  0.62932  0.00475  1.0000
  C   C132      1.0  0.75018  0.59676  0.28319  1.0000
  H   H78       1.0  0.74683  0.59797  0.21787  1.0000
  C   C133      1.0  0.49795  0.26216  0.31021  1.0000
  C   C134      1.0  0.50634  0.28567  0.24610  1.0000
  C   C135      1.0  0.50663  0.31287  0.26713  1.0000
  H   H79       1.0  0.51345  0.32922  0.21838  1.0000
  H   H80       1.0  0.51278  0.28339  0.18256  1.0000
  C   C136      1.0  0.45680  0.23097  0.03382  1.0000
  C   C137      1.0  0.45668  0.25802  0.05435  1.0000
  H   H81       1.0  0.45069  0.21451  0.08179  1.0000
  H   H82       1.0  0.45046  0.26112  0.11714  1.0000
  H   H83       1.0  0.46517  0.30048  0.00415  1.0000
  C   C138      1.0  0.49791  0.23559  0.28378  1.0000
  H   H84       1.0  0.49650  0.23080  0.21855  1.0000
  C   C139      1.0  0.83526  0.31513  0.31529  1.0000
  C   C140      1.0  0.82015  0.29182  0.25041  1.0000
  C   C141      1.0  0.79301  0.26471  0.27014  1.0000
  H   H85       1.0  0.78330  0.24867  0.22053  1.0000
  H   H86       1.0  0.82883  0.29431  0.18678  1.0000
  C   C142      1.0  0.82483  0.34415  0.04117  1.0000
  C   C143      1.0  0.79733  0.31726  0.06007  1.0000
  H   H87       1.0  0.83519  0.36031  0.09001  1.0000
  H   H88       1.0  0.78777  0.31399  0.12255  1.0000
  H   H89       1.0  0.76310  0.27530  0.00755  1.0000
  C   C144      1.0  0.86155  0.34202  0.28889  1.0000
  H   H90       1.0  0.86683  0.34507  0.22391  1.0000
  C   C145      1.0  0.94132  0.58787  0.40727  1.0000
  C   C146      1.0  0.91546  0.59135  0.40708  1.0000
  C   C147      1.0  0.94338  0.43613  0.41216  1.0000
  C   C148      1.0  0.91797  0.40650  0.41481  1.0000
  C   C149      1.0  0.15462  0.52512  0.40532  1.0000
  C   C150      1.0  0.12900  0.52900  0.40537  1.0000
  C   C151      1.0  0.12772  0.68283  0.40929  1.0000
  C   C152      1.0  0.15378  0.71205  0.41137  1.0000
  H   H91       1.0  0.16240  0.72194  0.47243  1.0000
  H   H92       1.0  0.11828  0.67207  0.46873  1.0000
  H   H93       1.0  0.12085  0.53187  0.46539  1.0000
  H   H94       1.0  0.16430  0.52527  0.46561  1.0000
  H   H95       1.0  0.95214  0.44751  0.47130  1.0000
  H   H96       1.0  0.90907  0.39698  0.47602  1.0000
  H   H97       1.0  0.90543  0.59071  0.46725  1.0000
  H   H98       1.0  0.94900  0.58435  0.46714  1.0000
  C   C153      1.0  0.50586  0.43536  0.40605  1.0000
  C   C154      1.0  0.50240  0.40603  0.40596  1.0000
  C   C155      1.0  0.65854  0.59014  0.40788  1.0000
  C   C156      1.0  0.68779  0.59337  0.41005  1.0000
  C   C157      1.0  0.56838  0.71129  0.40517  1.0000
  C   C158      1.0  0.56453  0.68179  0.40520  1.0000
  C   C159      1.0  0.41192  0.52782  0.41217  1.0000
  C   C160      1.0  0.38234  0.52372  0.41500  1.0000
  H   H99       1.0  0.37286  0.52319  0.47625  1.0000
  H   H100      1.0  0.42330  0.53043  0.47124  1.0000
  H   H101      1.0  0.56125  0.67067  0.46513  1.0000
  H   H102      1.0  0.56784  0.72072  0.46535  1.0000
  H   H103      1.0  0.64772  0.58876  0.46728  1.0000
  H   H104      1.0  0.69763  0.59467  0.47114  1.0000
  H   H105      1.0  0.50273  0.39660  0.46623  1.0000
  H   H106      1.0  0.50914  0.44655  0.46595  1.0000
  C   C161      1.0  0.66015  0.15242  0.40494  1.0000
  C   C162      1.0  0.68958  0.17815  0.40515  1.0000
  C   C163      1.0  0.50505  0.15100  0.40858  1.0000
  C   C164      1.0  0.50170  0.17695  0.41078  1.0000
  C   C165      1.0  0.38437  0.93896  0.40591  1.0000
  C   C166      1.0  0.41379  0.96471  0.40593  1.0000
  C   C167      1.0  0.56739  0.96672  0.41042  1.0000
  C   C168      1.0  0.57140  0.94119  0.41314  1.0000
  H   H107      1.0  0.57187  0.93224  0.47436  1.0000
  H   H108      1.0  0.56473  0.97550  0.46951  1.0000
  H   H109      1.0  0.42507  0.97239  0.46572  1.0000
  H   H110      1.0  0.37505  0.92899  0.46613  1.0000
  H   H111      1.0  0.50637  0.14157  0.46797  1.0000
  H   H112      1.0  0.50034  0.18552  0.47187  1.0000
  H   H113      1.0  0.69904  0.18788  0.46552  1.0000
  H   H114      1.0  0.64909  0.14428  0.46487  1.0000
  C   C169      1.0  0.23544  0.51571  0.35617  1.0000
  C   C170      1.0  0.25825  0.52354  0.42258  1.0000
  C   C171      1.0  0.28575  0.52346  0.40273  1.0000
  N   N25       1.0  0.30643  0.53120  0.47037  1.0000
  C   C172      1.0  0.30256  0.53900  0.55456  1.0000
  C   C173      1.0  0.27543  0.53940  0.57367  1.0000
  N   N26       1.0  0.25463  0.53168  0.50711  1.0000
  C   C174      1.0  0.32467  0.54669  0.62203  1.0000
  C   C175      1.0  0.27064  0.54777  0.65984  1.0000
  H   H115      1.0  0.34429  0.54637  0.60870  1.0000
  C   C176      1.0  0.20810  0.51489  0.37613  1.0000
  H   H116      1.0  0.20010  0.50961  0.43846  1.0000
  C   C177      1.0  0.57827  0.80172  0.35577  1.0000
  C   C178      1.0  0.57067  0.81706  0.42187  1.0000
  C   C179      1.0  0.57112  0.84478  0.40154  1.0000
  N   N27       1.0  0.56361  0.85808  0.46888  1.0000
  C   C180      1.0  0.55570  0.84666  0.55320  1.0000
  C   C181      1.0  0.55493  0.81900  0.57281  1.0000
  N   N28       1.0  0.56243  0.80557  0.50655  1.0000
  C   C182      1.0  0.54828  0.86148  0.62029  1.0000
  C   C183      1.0  0.54643  0.80610  0.65916  1.0000
  H   H117      1.0  0.54887  0.88151  0.60657  1.0000
  C   C184      1.0  0.57871  0.77505  0.37614  1.0000
  H   H118      1.0  0.58336  0.77211  0.43894  1.0000
  C   C185      1.0  0.29562  0.85566  0.35389  1.0000
  C   C186      1.0  0.27218  0.84096  0.41898  1.0000
  C   C187      1.0  0.24445  0.81382  0.39770  1.0000
  N   N29       1.0  0.22311  0.80108  0.46383  1.0000
  C   C188      1.0  0.22662  0.81255  0.54816  1.0000
  C   C189      1.0  0.25404  0.83954  0.56903  1.0000
  N   N30       1.0  0.27544  0.85242  0.50377  1.0000
  C   C190      1.0  0.20388  0.79833  0.61421  1.0000
  C   C191      1.0  0.25853  0.85235  0.65562  1.0000
  H   H119      1.0  0.18405  0.77877  0.59962  1.0000
  C   C192      1.0  0.32356  0.88122  0.37602  1.0000
  H   H120      1.0  0.33030  0.88369  0.43961  1.0000
  C   C193      1.0  0.83178  0.59597  0.35424  1.0000
  C   C194      1.0  0.81681  0.60453  0.41904  1.0000
  C   C195      1.0  0.78960  0.60490  0.39728  1.0000
  N   N31       1.0  0.77660  0.61334  0.46313  1.0000
  C   C196      1.0  0.78785  0.62132  0.54760  1.0000
  C   C197      1.0  0.81491  0.62110  0.56893  1.0000
  N   N32       1.0  0.82806  0.61276  0.50397  1.0000
  C   C198      1.0  0.77335  0.62966  0.61331  1.0000
  C   C199      1.0  0.82751  0.62945  0.65568  1.0000
  H   H121      1.0  0.75375  0.62977  0.59835  1.0000
  C   C200      1.0  0.85743  0.59384  0.37674  1.0000
  H   H122      1.0  0.85987  0.58962  0.44040  1.0000
  C   C201      1.0  0.49853  0.31803  0.35371  1.0000
  C   C202      1.0  0.49002  0.29467  0.41878  1.0000
  C   C203      1.0  0.48971  0.26707  0.39744  1.0000
  N   N33       1.0  0.48132  0.24578  0.46354  1.0000
  C   C204      1.0  0.47332  0.24924  0.54789  1.0000
  C   C205      1.0  0.47346  0.27653  0.56881  1.0000
  N   N34       1.0  0.48177  0.29787  0.50358  1.0000
  C   C206      1.0  0.46503  0.22657  0.61392  1.0000
  C   C207      1.0  0.46508  0.28095  0.65541  1.0000
  H   H123      1.0  0.46497  0.20684  0.59929  1.0000
  C   C208      1.0  0.50065  0.34585  0.37588  1.0000
  H   H124      1.0  0.50516  0.35277  0.43933  1.0000
  C   C209      1.0  0.77957  0.25936  0.35639  1.0000
  C   C210      1.0  0.79454  0.28228  0.42267  1.0000
  C   C211      1.0  0.82204  0.30982  0.40259  1.0000
  N   N35       1.0  0.83497  0.33060  0.47007  1.0000
  C   C212      1.0  0.82339  0.32682  0.55433  1.0000
  C   C213      1.0  0.79595  0.29965  0.57369  1.0000
  N   N36       1.0  0.78287  0.27874  0.50728  1.0000
  C   C214      1.0  0.83783  0.34905  0.62161  1.0000
  C   C215      1.0  0.78288  0.29494  0.65996  1.0000
  H   H125      1.0  0.85770  0.36869  0.60808  1.0000
  C   C216      1.0  0.75311  0.23202  0.37647  1.0000
  H   H126      1.0  0.75032  0.22420  0.43899  1.0000
