data_image0
_chemical_formula_structural       CNHC5HOCHC2HCHC16H10C17H12CNCHNHCNCHNHCNHC10H8C13H9C4HC6HO2C4HC6HO2C4HCO
_chemical_formula_sum              "C96 N6 H54 O6"
_cell_length_a       44.6556
_cell_length_b       44.6303
_cell_length_c       14.8675
_cell_angle_alpha    90
_cell_angle_beta     90
_cell_angle_gamma    120.03

_space_group_name_H-M_alt    "P 1"
_space_group_IT_number       1

loop_
  _space_group_symop_operation_xyz
  'x, y, z'

loop_
  _atom_site_type_symbol
  _atom_site_label
  _atom_site_symmetry_multiplicity
  _atom_site_fract_x
  _atom_site_fract_y
  _atom_site_fract_z
  _atom_site_occupancy
  C   C1        1.0  0.07798  0.53719  0.25968  1.0000
  N   N1        1.0  0.04295  0.52099  0.26401  1.0000
  H   H1        1.0  0.08949  0.54223  0.19785  1.0000
  C   C2        1.0  0.02496  0.51308  0.34259  1.0000
  C   C3        1.0  0.09798  0.54744  0.33919  1.0000
  C   C4        1.0  0.08003  0.53970  0.42202  1.0000
  C   C5        1.0  0.04345  0.52216  0.42524  1.0000
  C   C6        1.0  0.02491  0.51334  0.50727  1.0000
  H   H2        1.0  0.09386  0.54622  0.48073  1.0000
  O   O1        1.0  0.04169  0.52148  0.58730  1.0000
  C   C7        1.0  0.15153  0.54861  0.29170  1.0000
  H   H3        1.0  0.13736  0.52538  0.25952  1.0000
  C   C8        1.0  0.13476  0.56408  0.33667  1.0000
  C   C9        1.0  0.15544  0.59567  0.38258  1.0000
  H   H4        1.0  0.14418  0.60759  0.41581  1.0000
  C   C10       1.0  0.18781  0.56390  0.29396  1.0000
  H   H5        1.0  0.19906  0.55162  0.26248  1.0000
  C   C11       1.0  0.19176  0.61132  0.38358  1.0000
  C   C12       1.0  0.44998  0.85661  0.29592  1.0000
  C   C13       1.0  0.43165  0.82015  0.29887  1.0000
  C   C14       1.0  0.37935  0.74333  0.29260  1.0000
  C   C15       1.0  0.35973  0.70763  0.30177  1.0000
  C   C16       1.0  0.32323  0.69088  0.30573  1.0000
  C   C17       1.0  0.30256  0.65431  0.30570  1.0000
  C   C18       1.0  0.31945  0.63462  0.30068  1.0000
  C   C19       1.0  0.35594  0.65074  0.29789  1.0000
  C   C20       1.0  0.37580  0.68728  0.29743  1.0000
  C   C21       1.0  0.37188  0.63102  0.28761  1.0000
  C   C22       1.0  0.40947  0.60992  0.34405  1.0000
  C   C23       1.0  0.39702  0.57909  0.29308  1.0000
  C   C24       1.0  0.41510  0.56072  0.29043  1.0000
  C   C25       1.0  0.26655  0.63913  0.30274  1.0000
  C   C26       1.0  0.20834  0.59552  0.33955  1.0000
  H   H6        1.0  0.47246  0.86882  0.25969  1.0000
  H   H7        1.0  0.44153  0.80719  0.26456  1.0000
  H   H8        1.0  0.40219  0.69919  0.29174  1.0000
  H   H9        1.0  0.31151  0.70563  0.30618  1.0000
  H   H10       1.0  0.30504  0.60818  0.29686  1.0000
  H   H11       1.0  0.40476  0.53815  0.25453  1.0000
  H   H12       1.0  0.37416  0.56915  0.25883  1.0000
  H   H13       1.0  0.36848  0.61895  0.22921  1.0000
  H   H14       1.0  0.39095  0.75226  0.23376  1.0000
  H   H15       1.0  0.25703  0.65149  0.26770  1.0000
  C   C27       1.0  0.56346  0.15232  0.29577  1.0000
  C   C28       1.0  0.58176  0.18878  0.29879  1.0000
  C   C29       1.0  0.63404  0.26560  0.29252  1.0000
  C   C30       1.0  0.65365  0.30130  0.30167  1.0000
  C   C31       1.0  0.69015  0.31805  0.30568  1.0000
  C   C32       1.0  0.71082  0.35461  0.30573  1.0000
  C   C33       1.0  0.69392  0.37431  0.30070  1.0000
  C   C34       1.0  0.65743  0.35819  0.29787  1.0000
  C   C35       1.0  0.63758  0.32165  0.29734  1.0000
  C   C36       1.0  0.64150  0.37792  0.28759  1.0000
  C   C37       1.0  0.60389  0.39900  0.34399  1.0000
  C   C38       1.0  0.61635  0.42984  0.29306  1.0000
  C   C39       1.0  0.59829  0.44823  0.29044  1.0000
  C   C40       1.0  0.74682  0.36980  0.30274  1.0000
  C   C41       1.0  0.80503  0.41341  0.33957  1.0000
  C   C42       1.0  0.82557  0.44503  0.29397  1.0000
  C   C43       1.0  0.86185  0.46033  0.29176  1.0000
  H   H16       1.0  0.54096  0.14010  0.25965  1.0000
  H   H17       1.0  0.57186  0.20173  0.26450  1.0000
  H   H18       1.0  0.61118  0.30973  0.29166  1.0000
  H   H19       1.0  0.70187  0.30330  0.30613  1.0000
  H   H20       1.0  0.70834  0.40075  0.29687  1.0000
  H   H21       1.0  0.60863  0.47079  0.25453  1.0000
  H   H22       1.0  0.63922  0.43978  0.25882  1.0000
  H   H23       1.0  0.87601  0.48355  0.25954  1.0000
  H   H24       1.0  0.81432  0.45731  0.26250  1.0000
  H   H25       1.0  0.64494  0.39002  0.22922  1.0000
  H   H26       1.0  0.62249  0.25666  0.23362  1.0000
  H   H27       1.0  0.75635  0.35745  0.26768  1.0000
  C   C44       1.0  0.54147  0.46774  0.26275  1.0000
  N   N2        1.0  0.52455  0.48590  0.26686  1.0000
  C   C45       1.0  0.47190  0.54118  0.26277  1.0000
  H   H28       1.0  0.54703  0.46174  0.20095  1.0000
  N   N3        1.0  0.48883  0.52303  0.26687  1.0000
  H   H29       1.0  0.46633  0.54718  0.20097  1.0000
  C   C46       1.0  0.54382  0.07598  0.26804  1.0000
  N   N4        1.0  0.52549  0.04089  0.27214  1.0000
  C   C47       1.0  0.46963  0.93295  0.26807  1.0000
  H   H30       1.0  0.54986  0.08756  0.20624  1.0000
  N   N5        1.0  0.48795  0.96804  0.27216  1.0000
  H   H31       1.0  0.46355  0.92137  0.20628  1.0000
  C   C48       1.0  0.93540  0.47174  0.25969  1.0000
  N   N6        1.0  0.97043  0.48795  0.26401  1.0000
  H   H32       1.0  0.92388  0.46671  0.19787  1.0000
  C   C49       1.0  0.43871  0.87612  0.34577  1.0000
  C   C50       1.0  0.40095  0.80183  0.35028  1.0000
  C   C51       1.0  0.38953  0.82149  0.39915  1.0000
  C   C52       1.0  0.40811  0.85791  0.39724  1.0000
  C   C53       1.0  0.38256  0.76571  0.35775  1.0000
  C   C54       1.0  0.39178  0.62834  0.35157  1.0000
  C   C55       1.0  0.44057  0.62136  0.39286  1.0000
  C   C56       1.0  0.44589  0.57202  0.34030  1.0000
  C   C57       1.0  0.45835  0.60274  0.39134  1.0000
  C   C58       1.0  0.24393  0.60962  0.34466  1.0000
  H   H33       1.0  0.39898  0.87105  0.43390  1.0000
  H   H34       1.0  0.36761  0.80944  0.43765  1.0000
  H   H35       1.0  0.20592  0.63398  0.41823  1.0000
  H   H36       1.0  0.45054  0.64337  0.43109  1.0000
  H   H37       1.0  0.48065  0.61193  0.42794  1.0000
  H   H38       1.0  0.39486  0.64126  0.40865  1.0000
  H   H39       1.0  0.37012  0.75579  0.41534  1.0000
  H   H40       1.0  0.25257  0.59673  0.38051  1.0000
  C   C59       1.0  0.57472  0.13282  0.34571  1.0000
  C   C60       1.0  0.61245  0.20711  0.35022  1.0000
  C   C61       1.0  0.62388  0.18746  0.39910  1.0000
  C   C62       1.0  0.60532  0.15104  0.39718  1.0000
  C   C63       1.0  0.63081  0.24323  0.35770  1.0000
  C   C64       1.0  0.62158  0.38057  0.35151  1.0000
  C   C65       1.0  0.57278  0.38755  0.39278  1.0000
  C   C66       1.0  0.56748  0.43691  0.34027  1.0000
  C   C67       1.0  0.55501  0.40619  0.39127  1.0000
  C   C68       1.0  0.76945  0.39931  0.34467  1.0000
  C   C69       1.0  0.82162  0.39761  0.38363  1.0000
  C   C70       1.0  0.87862  0.44485  0.33670  1.0000
  C   C71       1.0  0.85794  0.41325  0.38260  1.0000
  H   H41       1.0  0.61445  0.13791  0.43387  1.0000
  H   H42       1.0  0.64580  0.19952  0.43760  1.0000
  H   H43       1.0  0.80746  0.37495  0.41823  1.0000
  H   H44       1.0  0.56281  0.36554  0.43098  1.0000
  H   H45       1.0  0.53271  0.39699  0.42785  1.0000
  H   H46       1.0  0.86919  0.40134  0.41582  1.0000
  H   H47       1.0  0.61846  0.36762  0.40855  1.0000
  H   H48       1.0  0.64322  0.25315  0.41532  1.0000
  H   H49       1.0  0.76080  0.41219  0.38055  1.0000
  C   C72       1.0  0.55019  0.45652  0.34234  1.0000
  C   C73       1.0  0.51546  0.49495  0.34530  1.0000
  C   C74       1.0  0.52401  0.48506  0.42801  1.0000
  C   C75       1.0  0.54114  0.46563  0.42497  1.0000
  H   H50       1.0  0.54771  0.45847  0.48384  1.0000
  C   C76       1.0  0.49793  0.51399  0.34530  1.0000
  C   C77       1.0  0.46319  0.55241  0.34236  1.0000
  C   C78       1.0  0.47225  0.54332  0.42499  1.0000
  C   C79       1.0  0.48939  0.52390  0.42801  1.0000
  C   C80       1.0  0.49820  0.51418  0.51004  1.0000
  C   C81       1.0  0.51522  0.49479  0.51004  1.0000
  H   H51       1.0  0.46571  0.55049  0.48387  1.0000
  O   O2        1.0  0.49038  0.52310  0.59011  1.0000
  O   O3        1.0  0.52307  0.48589  0.59010  1.0000
  C   C82       1.0  0.55508  0.09591  0.34766  1.0000
  C   C83       1.0  0.51634  0.02277  0.35060  1.0000
  C   C84       1.0  0.52631  0.04120  0.43332  1.0000
  C   C85       1.0  0.54588  0.07776  0.43031  1.0000
  H   H52       1.0  0.55304  0.09149  0.48918  1.0000
  C   C86       1.0  0.49711  0.98617  0.35061  1.0000
  C   C87       1.0  0.45836  0.91303  0.34770  1.0000
  C   C88       1.0  0.46757  0.93118  0.43034  1.0000
  C   C89       1.0  0.48714  0.96774  0.43334  1.0000
  C   C90       1.0  0.49696  0.98626  0.51539  1.0000
  C   C91       1.0  0.51649  0.02268  0.51537  1.0000
  H   H53       1.0  0.46040  0.91745  0.48922  1.0000
  O   O4        1.0  0.48798  0.96951  0.59545  1.0000
  O   O5        1.0  0.52548  0.03944  0.59543  1.0000
  C   C92       1.0  0.91540  0.46149  0.33921  1.0000
  C   C93       1.0  0.98841  0.49585  0.34259  1.0000
  C   C94       1.0  0.96993  0.48677  0.42525  1.0000
  C   C95       1.0  0.93334  0.46922  0.42203  1.0000
  H   H54       1.0  0.91952  0.46272  0.48075  1.0000
  C   C96       1.0  0.98847  0.49559  0.50727  1.0000
  O   O6        1.0  0.97170  0.48744  0.58731  1.0000
