data_image0
_chemical_formula_structural       CNC4H2NH2CNC4H2NH2CNC4H2NH2CNC4H2NH2CNC4H2NH2CNC4H2NH2C4HCNHNH2C4HCNHNH2C4HCNHNH2C4HCNHNH2C4HCNHNH2C4HCNHNH2C4HCNHNH2C4HCNHNH2C4HCNHNH2C4HCNHNH2C4HCNHNH2C4HCNHNH2C6H3C6H3C6H3C6H3C6H3C6H3C6H3C6H3C6H3C6H3C6H3C6H3C4HCNHNH2C4HCNHNH2C4HCNHNH2C4HCNHNH2C4HCNHNH2C4HCNHNH2CNC4H2NH2CNC4H2NH2CNC4H2NH2CNC4H2NH2CNC4H2NH2CNC4H2NH2CNC4H2NH2CNC4H2NH2CNC4H2NH2CNC4H2NH2CNC4H2NH2CNC4H2NH2
_chemical_formula_sum              "C252 N72 H180"
_cell_length_a       56.6107
_cell_length_b       56.6106
_cell_length_c       14.806
_cell_angle_alpha    90
_cell_angle_beta     90
_cell_angle_gamma    120

_space_group_name_H-M_alt    "P 1"
_space_group_IT_number       1

loop_
  _space_group_symop_operation_xyz
  'x, y, z'

loop_
  _atom_site_type_symbol
  _atom_site_label
  _atom_site_symmetry_multiplicity
  _atom_site_fract_x
  _atom_site_fract_y
  _atom_site_fract_z
  _atom_site_occupancy
  C   C1        1.0  0.24752  0.45349  0.28864  1.0000
  N   N1        1.0  0.23274  0.42580  0.29017  1.0000
  C   C2        1.0  0.19802  0.38229  0.34172  1.0000
  C   C3        1.0  0.17607  0.36798  0.28025  1.0000
  C   C4        1.0  0.16227  0.33904  0.28168  1.0000
  C   C5        1.0  0.16959  0.32422  0.34150  1.0000
  H   H1        1.0  0.14657  0.32851  0.23723  1.0000
  H   H2        1.0  0.26199  0.46264  0.23951  1.0000
  N   N2        1.0  0.16774  0.38090  0.22189  1.0000
  H   H3        1.0  0.17656  0.40066  0.21937  1.0000
  H   H4        1.0  0.15254  0.37068  0.18077  1.0000
  C   C6        1.0  0.55696  0.79134  0.28826  1.0000
  N   N3        1.0  0.58465  0.80420  0.28943  1.0000
  C   C7        1.0  0.62816  0.81297  0.34049  1.0000
  C   C8        1.0  0.64241  0.80518  0.27925  1.0000
  C   C9        1.0  0.67135  0.82044  0.27991  1.0000
  C   C10       1.0  0.68618  0.84289  0.33853  1.0000
  H   H5        1.0  0.68186  0.81517  0.23573  1.0000
  H   H6        1.0  0.54778  0.79665  0.23915  1.0000
  N   N4        1.0  0.62943  0.78370  0.22178  1.0000
  H   H7        1.0  0.60966  0.77270  0.21975  1.0000
  H   H8        1.0  0.63960  0.77865  0.18075  1.0000
  C   C11       1.0  0.21906  0.76324  0.28850  1.0000
  N   N5        1.0  0.20621  0.77809  0.28999  1.0000
  C   C12       1.0  0.19746  0.81285  0.34160  1.0000
  C   C13       1.0  0.20503  0.83473  0.27984  1.0000
  C   C14       1.0  0.18983  0.84847  0.28092  1.0000
  C   C15       1.0  0.16767  0.84117  0.34067  1.0000
  H   H9        1.0  0.19493  0.86408  0.23614  1.0000
  H   H10       1.0  0.21372  0.74878  0.23931  1.0000
  N   N6        1.0  0.22628  0.84303  0.22145  1.0000
  H   H11       1.0  0.23726  0.83425  0.21918  1.0000
  H   H12       1.0  0.23122  0.85817  0.18013  1.0000
  C   C16       1.0  0.76833  0.55192  0.28847  1.0000
  N   N7        1.0  0.78308  0.57962  0.29004  1.0000
  C   C17       1.0  0.81771  0.62314  0.34175  1.0000
  C   C18       1.0  0.83959  0.63750  0.28008  1.0000
  C   C19       1.0  0.85323  0.66643  0.28127  1.0000
  C   C20       1.0  0.84583  0.68121  0.34105  1.0000
  H   H13       1.0  0.86889  0.67700  0.23670  1.0000
  H   H14       1.0  0.75385  0.54277  0.23936  1.0000
  N   N8        1.0  0.84800  0.62464  0.22174  1.0000
  H   H15       1.0  0.83930  0.60488  0.21943  1.0000
  H   H16       1.0  0.86316  0.63490  0.18053  1.0000
  C   C21       1.0  0.45867  0.21380  0.28870  1.0000
  N   N9        1.0  0.43097  0.20084  0.29029  1.0000
  C   C22       1.0  0.38744  0.19198  0.34181  1.0000
  C   C23       1.0  0.37313  0.19959  0.28023  1.0000
  C   C24       1.0  0.34419  0.18438  0.28136  1.0000
  C   C25       1.0  0.32934  0.16218  0.34098  1.0000
  H   H17       1.0  0.33367  0.18956  0.23689  1.0000
  H   H18       1.0  0.46782  0.20847  0.23956  1.0000
  N   N10       1.0  0.38605  0.22091  0.22209  1.0000
  H   H19       1.0  0.40581  0.23192  0.21980  1.0000
  H   H20       1.0  0.37583  0.22587  0.18091  1.0000
  C   C26       1.0  0.79673  0.24242  0.28872  1.0000
  N   N11       1.0  0.80968  0.22767  0.29019  1.0000
  C   C27       1.0  0.81850  0.19297  0.34150  1.0000
  C   C28       1.0  0.81087  0.17109  0.27973  1.0000
  C   C29       1.0  0.82603  0.15731  0.28085  1.0000
  C   C30       1.0  0.84816  0.16457  0.34068  1.0000
  H   H21       1.0  0.82086  0.14165  0.23622  1.0000
  H   H22       1.0  0.80205  0.25690  0.23962  1.0000
  N   N12       1.0  0.78961  0.16279  0.22141  1.0000
  H   H23       1.0  0.77865  0.17160  0.21914  1.0000
  H   H24       1.0  0.78464  0.14764  0.18012  1.0000
  C   C31       1.0  0.24146  0.16270  0.33936  1.0000
  C   C32       1.0  0.21153  0.19093  0.34081  1.0000
  C   C33       1.0  0.20159  0.16663  0.28905  1.0000
  C   C34       1.0  0.21696  0.15307  0.28944  1.0000
  H   H25       1.0  0.21014  0.13579  0.25128  1.0000
  C   C35       1.0  0.19387  0.24421  0.30275  1.0000
  N   N13       1.0  0.20638  0.22904  0.30334  1.0000
  H   H26       1.0  0.20200  0.26121  0.26283  1.0000
  N   N14       1.0  0.17824  0.15611  0.23966  1.0000
  H   H27       1.0  0.17187  0.13948  0.20457  1.0000
  H   H28       1.0  0.16744  0.16507  0.23632  1.0000
  C   C36       1.0  0.84745  0.07617  0.33891  1.0000
  C   C37       1.0  0.81816  0.01797  0.33903  1.0000
  C   C38       1.0  0.84252  0.03204  0.28745  1.0000
  C   C39       1.0  0.85661  0.06100  0.28839  1.0000
  H   H29       1.0  0.87395  0.07127  0.25036  1.0000
  C   C40       1.0  0.76953  0.94678  0.28168  1.0000
  N   N15       1.0  0.78434  0.97449  0.28352  1.0000
  H   H30       1.0  0.75611  0.93754  0.22973  1.0000
  N   N16       1.0  0.85281  0.01885  0.23881  1.0000
  H   H31       1.0  0.86964  0.02888  0.20447  1.0000
  H   H32       1.0  0.84380  0.99907  0.23682  1.0000
  C   C41       1.0  0.93393  0.76925  0.33964  1.0000
  C   C42       1.0  0.99210  0.79891  0.34071  1.0000
  C   C43       1.0  0.97780  0.80898  0.28920  1.0000
  C   C44       1.0  0.94887  0.79376  0.28981  1.0000
  H   H33       1.0  0.93845  0.80065  0.25176  1.0000
  C   C45       1.0  0.06298  0.81623  0.30318  1.0000
  N   N17       1.0  0.03530  0.80385  0.30347  1.0000
  H   H34       1.0  0.07184  0.80812  0.26315  1.0000
  N   N18       1.0  0.99073  0.83233  0.23982  1.0000
  H   H35       1.0  0.98052  0.83880  0.20484  1.0000
  H   H36       1.0  0.01050  0.84302  0.23632  1.0000
  C   C46       1.0  0.77476  0.84374  0.34148  1.0000
  C   C47       1.0  0.80449  0.81523  0.34171  1.0000
  C   C48       1.0  0.81456  0.83973  0.29082  1.0000
  C   C49       1.0  0.79934  0.85345  0.29199  1.0000
  H   H37       1.0  0.80623  0.87083  0.25428  1.0000
  C   C50       1.0  0.82164  0.76152  0.30321  1.0000
  N   N19       1.0  0.80932  0.77688  0.30388  1.0000
  H   H38       1.0  0.81341  0.74453  0.26329  1.0000
  N   N20       1.0  0.83789  0.85020  0.24130  1.0000
  H   H39       1.0  0.84430  0.86689  0.20642  1.0000
  H   H40       1.0  0.84850  0.84106  0.23705  1.0000
  C   C51       1.0  0.16664  0.92903  0.33749  1.0000
  C   C52       1.0  0.19415  0.98728  0.34027  1.0000
  C   C53       1.0  0.16885  0.97264  0.29386  1.0000
  C   C54       1.0  0.15575  0.94373  0.29321  1.0000
  H   H41       1.0  0.13785  0.93317  0.25822  1.0000
  C   C55       1.0  0.24812  0.05794  0.30164  1.0000
  N   N21       1.0  0.23245  0.03029  0.30185  1.0000
  H   H42       1.0  0.26501  0.06659  0.26125  1.0000
  N   N22       1.0  0.15701  0.98521  0.25018  1.0000
  H   H43       1.0  0.13969  0.97477  0.21880  1.0000
  H   H44       1.0  0.16560  0.00495  0.24755  1.0000
  C   C56       1.0  0.08145  0.23601  0.33983  1.0000
  C   C57       1.0  0.02323  0.20598  0.34100  1.0000
  C   C58       1.0  0.03768  0.19609  0.28944  1.0000
  C   C59       1.0  0.06661  0.21147  0.29006  1.0000
  H   H45       1.0  0.07711  0.20468  0.25198  1.0000
  C   C60       1.0  0.95229  0.18839  0.30228  1.0000
  N   N23       1.0  0.97998  0.20089  0.30322  1.0000
  H   H46       1.0  0.94349  0.19661  0.26249  1.0000
  N   N24       1.0  0.02489  0.17276  0.23992  1.0000
  H   H47       1.0  0.03519  0.16643  0.20481  1.0000
  H   H48       1.0  0.00513  0.16198  0.23626  1.0000
  C   C61       1.0  0.24230  0.68136  0.32309  1.0000
  C   C62       1.0  0.23586  0.62842  0.33582  1.0000
  C   C63       1.0  0.24888  0.64466  0.25814  1.0000
  C   C64       1.0  0.25132  0.67079  0.25299  1.0000
  H   H49       1.0  0.26260  0.68364  0.20160  1.0000
  C   C65       1.0  0.22942  0.56135  0.29952  1.0000
  N   N25       1.0  0.22644  0.58369  0.29532  1.0000
  H   H50       1.0  0.22319  0.54830  0.24565  1.0000
  N   N26       1.0  0.26109  0.63759  0.19263  1.0000
  H   H51       1.0  0.27046  0.64967  0.14199  1.0000
  H   H52       1.0  0.26185  0.62089  0.19536  1.0000
  C   C66       1.0  0.32922  0.55858  0.32314  1.0000
  C   C67       1.0  0.38214  0.60495  0.33611  1.0000
  C   C68       1.0  0.36589  0.60185  0.25850  1.0000
  C   C69       1.0  0.33977  0.57817  0.25307  1.0000
  H   H53       1.0  0.32693  0.57671  0.20180  1.0000
  C   C70       1.0  0.44921  0.66556  0.29991  1.0000
  N   N27       1.0  0.42685  0.64025  0.29562  1.0000
  H   H54       1.0  0.46214  0.67240  0.24575  1.0000
  N   N28       1.0  0.37301  0.62120  0.19322  1.0000
  H   H55       1.0  0.36089  0.61860  0.14278  1.0000
  H   H56       1.0  0.38965  0.63870  0.19637  1.0000
  C   C71       1.0  0.45194  0.76809  0.32345  1.0000
  C   C72       1.0  0.40549  0.77459  0.33616  1.0000
  C   C73       1.0  0.40864  0.76148  0.25859  1.0000
  C   C74       1.0  0.43230  0.75898  0.25352  1.0000
  H   H57       1.0  0.43382  0.74768  0.20210  1.0000
  C   C75       1.0  0.34484  0.78098  0.29974  1.0000
  N   N29       1.0  0.37017  0.78399  0.29556  1.0000
  H   H58       1.0  0.33805  0.78724  0.24587  1.0000
  N   N30       1.0  0.38932  0.74922  0.19323  1.0000
  H   H59       1.0  0.39199  0.73978  0.14270  1.0000
  H   H60       1.0  0.37188  0.74849  0.19596  1.0000
  C   C76       1.0  0.77332  0.32406  0.32355  1.0000
  C   C77       1.0  0.77981  0.37696  0.33623  1.0000
  C   C78       1.0  0.76673  0.36071  0.25860  1.0000
  C   C79       1.0  0.76427  0.33458  0.25340  1.0000
  H   H61       1.0  0.75297  0.32173  0.20203  1.0000
  C   C80       1.0  0.78622  0.44402  0.29977  1.0000
  N   N31       1.0  0.78923  0.42169  0.29561  1.0000
  H   H62       1.0  0.79249  0.45707  0.24593  1.0000
  N   N32       1.0  0.75451  0.36779  0.19315  1.0000
  H   H63       1.0  0.74511  0.35570  0.14254  1.0000
  H   H64       1.0  0.75376  0.38450  0.19589  1.0000
  C   C81       1.0  0.68655  0.44689  0.32320  1.0000
  C   C82       1.0  0.63361  0.40041  0.33586  1.0000
  C   C83       1.0  0.64985  0.40364  0.25815  1.0000
  C   C84       1.0  0.67598  0.42732  0.25304  1.0000
  H   H65       1.0  0.68882  0.42889  0.20162  1.0000
  C   C85       1.0  0.56654  0.33978  0.29960  1.0000
  N   N33       1.0  0.58887  0.36510  0.29541  1.0000
  H   H66       1.0  0.55348  0.33298  0.24577  1.0000
  N   N34       1.0  0.64277  0.38438  0.19259  1.0000
  H   H67       1.0  0.65484  0.38710  0.14192  1.0000
  H   H68       1.0  0.62606  0.36692  0.19527  1.0000
  C   C86       1.0  0.56379  0.23723  0.32298  1.0000
  C   C87       1.0  0.61019  0.23070  0.33608  1.0000
  C   C88       1.0  0.60708  0.24380  0.25842  1.0000
  C   C89       1.0  0.58339  0.24624  0.25297  1.0000
  H   H69       1.0  0.58193  0.25761  0.20165  1.0000
  C   C90       1.0  0.67080  0.22422  0.29994  1.0000
  N   N35       1.0  0.64550  0.22127  0.29567  1.0000
  H   H70       1.0  0.67765  0.21812  0.24581  1.0000
  N   N36       1.0  0.62642  0.25602  0.19311  1.0000
  H   H71       1.0  0.62381  0.26552  0.14263  1.0000
  H   H72       1.0  0.64392  0.25688  0.19627  1.0000
  C   C91       1.0  0.11094  0.25090  0.34223  1.0000
  C   C92       1.0  0.12607  0.23712  0.34601  1.0000
  C   C93       1.0  0.15501  0.25092  0.34889  1.0000
  C   C94       1.0  0.16890  0.27986  0.34775  1.0000
  C   C95       1.0  0.15497  0.29483  0.34354  1.0000
  C   C96       1.0  0.12604  0.27982  0.34105  1.0000
  H   H73       1.0  0.18977  0.29036  0.34984  1.0000
  H   H74       1.0  0.11565  0.29029  0.33803  1.0000
  H   H75       1.0  0.11563  0.21626  0.34667  1.0000
  C   C97       1.0  0.75972  0.85820  0.34276  1.0000
  C   C98       1.0  0.77330  0.88713  0.34636  1.0000
  C   C99       1.0  0.75910  0.90184  0.34518  1.0000
  C   C100      1.0  0.73024  0.88677  0.34182  1.0000
  C   C101      1.0  0.71554  0.85785  0.33999  1.0000
  C   C102      1.0  0.73078  0.84414  0.33994  1.0000
  H   H76       1.0  0.71971  0.89713  0.34105  1.0000
  H   H77       1.0  0.72045  0.82328  0.33768  1.0000
  H   H78       1.0  0.79416  0.89789  0.34969  1.0000
  C   C103      1.0  0.15236  0.89949  0.33994  1.0000
  C   C104      1.0  0.12347  0.88408  0.34527  1.0000
  C   C105      1.0  0.10856  0.85516  0.34877  1.0000
  C   C106      1.0  0.12380  0.84148  0.34730  1.0000
  C   C107      1.0  0.15270  0.85562  0.34210  1.0000
  C   C108      1.0  0.16636  0.88454  0.33828  1.0000
  H   H79       1.0  0.11357  0.82062  0.34998  1.0000
  H   H80       1.0  0.18719  0.89503  0.33424  1.0000
  H   H81       1.0  0.11285  0.89430  0.34673  1.0000
  C   C109      1.0  0.90445  0.75447  0.34195  1.0000
  C   C110      1.0  0.88938  0.76831  0.34575  1.0000
  C   C111      1.0  0.86044  0.75457  0.34875  1.0000
  C   C112      1.0  0.84650  0.72562  0.34750  1.0000
  C   C113      1.0  0.86040  0.71060  0.34313  1.0000
  C   C114      1.0  0.88932  0.72556  0.34069  1.0000
  H   H82       1.0  0.82564  0.71515  0.34964  1.0000
  H   H83       1.0  0.89968  0.71506  0.33765  1.0000
  H   H84       1.0  0.89989  0.78917  0.34639  1.0000
  C   C115      1.0  0.25621  0.14799  0.34198  1.0000
  C   C116      1.0  0.24222  0.11909  0.34608  1.0000
  C   C117      1.0  0.25581  0.10376  0.34900  1.0000
  C   C118      1.0  0.28476  0.11859  0.34750  1.0000
  C   C119      1.0  0.29994  0.14751  0.34317  1.0000
  C   C120      1.0  0.28511  0.16162  0.34078  1.0000
  H   H85       1.0  0.29510  0.10806  0.34943  1.0000
  H   H86       1.0  0.29569  0.18247  0.33773  1.0000
  H   H87       1.0  0.22137  0.10882  0.34687  1.0000
  C   C121      1.0  0.86237  0.10565  0.34123  1.0000
  C   C122      1.0  0.89130  0.12060  0.34481  1.0000
  C   C123      1.0  0.90661  0.14955  0.34788  1.0000
  C   C124      1.0  0.89172  0.16360  0.34700  1.0000
  C   C125      1.0  0.86282  0.14984  0.34268  1.0000
  C   C126      1.0  0.84873  0.12092  0.34010  1.0000
  H   H88       1.0  0.90218  0.18446  0.34931  1.0000
  H   H89       1.0  0.82788  0.11066  0.33710  1.0000
  H   H90       1.0  0.90157  0.11001  0.34527  1.0000
  C   C127      1.0  0.30037  0.54236  0.33426  1.0000
  C   C128      1.0  0.28578  0.55631  0.34612  1.0000
  C   C129      1.0  0.25730  0.54253  0.35915  1.0000
  C   C130      1.0  0.24306  0.51368  0.35844  1.0000
  C   C131      1.0  0.25690  0.49863  0.34863  1.0000
  C   C132      1.0  0.28574  0.51352  0.33726  1.0000
  H   H91       1.0  0.22230  0.50360  0.36577  1.0000
  H   H92       1.0  0.29633  0.50332  0.33101  1.0000
  H   H93       1.0  0.29628  0.57725  0.34538  1.0000
  C   C133      1.0  0.46815  0.75546  0.33450  1.0000
  C   C134      1.0  0.45420  0.72692  0.34650  1.0000
  C   C135      1.0  0.46799  0.71222  0.35941  1.0000
  C   C136      1.0  0.49683  0.72682  0.35862  1.0000
  C   C137      1.0  0.51188  0.75571  0.34875  1.0000
  C   C138      1.0  0.49699  0.76966  0.33739  1.0000
  H   H94       1.0  0.50691  0.71614  0.36593  1.0000
  H   H95       1.0  0.50719  0.79045  0.33108  1.0000
  H   H96       1.0  0.43326  0.71647  0.34589  1.0000
  C   C139      1.0  0.25492  0.71020  0.33430  1.0000
  C   C140      1.0  0.28345  0.72475  0.34634  1.0000
  C   C141      1.0  0.29818  0.75324  0.35933  1.0000
  C   C142      1.0  0.28361  0.76751  0.35857  1.0000
  C   C143      1.0  0.25472  0.75371  0.34861  1.0000
  C   C144      1.0  0.24075  0.72488  0.33714  1.0000
  H   H97       1.0  0.29431  0.78826  0.36597  1.0000
  H   H98       1.0  0.21996  0.71430  0.33075  1.0000
  H   H99       1.0  0.29388  0.71423  0.34569  1.0000
  C   C145      1.0  0.71538  0.46309  0.33440  1.0000
  C   C146      1.0  0.72994  0.44911  0.34638  1.0000
  C   C147      1.0  0.75843  0.46287  0.35938  1.0000
  C   C148      1.0  0.77270  0.49172  0.35858  1.0000
  C   C149      1.0  0.75889  0.50680  0.34865  1.0000
  C   C150      1.0  0.73005  0.49193  0.33726  1.0000
  H   H100      1.0  0.79346  0.50178  0.36595  1.0000
  H   H101      1.0  0.71947  0.50215  0.33092  1.0000
  H   H102      1.0  0.71943  0.42817  0.34571  1.0000
  C   C151      1.0  0.54755  0.24983  0.33411  1.0000
  C   C152      1.0  0.56150  0.27837  0.34602  1.0000
  C   C153      1.0  0.54772  0.29308  0.35915  1.0000
  C   C154      1.0  0.51888  0.27847  0.35848  1.0000
  C   C155      1.0  0.50381  0.24957  0.34863  1.0000
  C   C156      1.0  0.51871  0.23563  0.33720  1.0000
  H   H103      1.0  0.50880  0.28915  0.36587  1.0000
  H   H104      1.0  0.50851  0.21484  0.33094  1.0000
  H   H105      1.0  0.58245  0.28882  0.34523  1.0000
  C   C157      1.0  0.76070  0.29522  0.33451  1.0000
  C   C158      1.0  0.73216  0.28062  0.34648  1.0000
  C   C159      1.0  0.71746  0.25213  0.35941  1.0000
  C   C160      1.0  0.73207  0.23790  0.35860  1.0000
  C   C161      1.0  0.76097  0.25175  0.34877  1.0000
  C   C162      1.0  0.77491  0.28058  0.33745  1.0000
  H   H106      1.0  0.72140  0.21714  0.36592  1.0000
  H   H107      1.0  0.79570  0.29119  0.33121  1.0000
  H   H108      1.0  0.72170  0.29111  0.34586  1.0000
  C   C163      1.0  0.24213  0.46925  0.35061  1.0000
  C   C164      1.0  0.21253  0.41117  0.35065  1.0000
  C   C165      1.0  0.20602  0.42547  0.41584  1.0000
  C   C166      1.0  0.22110  0.45442  0.41419  1.0000
  H   H109      1.0  0.21676  0.46494  0.46129  1.0000
  C   C167      1.0  0.19182  0.33997  0.39983  1.0000
  N   N37       1.0  0.20469  0.36767  0.39858  1.0000
  H   H110      1.0  0.19803  0.33082  0.44612  1.0000
  N   N38       1.0  0.18586  0.41254  0.47798  1.0000
  H   H111      1.0  0.18163  0.42276  0.52164  1.0000
  H   H112      1.0  0.17499  0.39278  0.48082  1.0000
  C   C168      1.0  0.54125  0.77029  0.35054  1.0000
  C   C169      1.0  0.59930  0.79863  0.34981  1.0000
  C   C170      1.0  0.58505  0.77792  0.41539  1.0000
  C   C171      1.0  0.55611  0.76412  0.41408  1.0000
  H   H113      1.0  0.54561  0.74932  0.46142  1.0000
  C   C172      1.0  0.67050  0.84947  0.39678  1.0000
  N   N39       1.0  0.64281  0.83451  0.39637  1.0000
  H   H114      1.0  0.67970  0.86504  0.44237  1.0000
  N   N40       1.0  0.59803  0.77077  0.47759  1.0000
  H   H115      1.0  0.58784  0.75641  0.52153  1.0000
  H   H116      1.0  0.61779  0.77965  0.48020  1.0000
  C   C173      1.0  0.24015  0.76853  0.35058  1.0000
  C   C174      1.0  0.21180  0.79829  0.35051  1.0000
  C   C175      1.0  0.23255  0.80469  0.41589  1.0000
  C   C176      1.0  0.24635  0.78954  0.41425  1.0000
  H   H117      1.0  0.26118  0.79382  0.46146  1.0000
  C   C177      1.0  0.16135  0.81910  0.39954  1.0000
  N   N41       1.0  0.17621  0.80625  0.39855  1.0000
  H   H118      1.0  0.14599  0.81290  0.44588  1.0000
  N   N42       1.0  0.23978  0.82481  0.47818  1.0000
  H   H119      1.0  0.25417  0.82896  0.52197  1.0000
  H   H120      1.0  0.23093  0.83572  0.48100  1.0000
  C   C178      1.0  0.77368  0.53618  0.35056  1.0000
  C   C179      1.0  0.80327  0.59426  0.35058  1.0000
  C   C180      1.0  0.80977  0.57996  0.41584  1.0000
  C   C181      1.0  0.79470  0.55101  0.41418  1.0000
  H   H121      1.0  0.79902  0.54049  0.46136  1.0000
  C   C182      1.0  0.82370  0.66541  0.39964  1.0000
  N   N43       1.0  0.81096  0.63771  0.39857  1.0000
  H   H122      1.0  0.81744  0.67452  0.44594  1.0000
  N   N44       1.0  0.82990  0.59289  0.47806  1.0000
  H   H123      1.0  0.83412  0.58269  0.52176  1.0000
  H   H124      1.0  0.84077  0.61266  0.48087  1.0000
  C   C183      1.0  0.47443  0.23495  0.35062  1.0000
  C   C184      1.0  0.41633  0.20639  0.35080  1.0000
  C   C185      1.0  0.43063  0.22725  0.41588  1.0000
  C   C186      1.0  0.45958  0.24114  0.41417  1.0000
  H   H125      1.0  0.47009  0.25603  0.46124  1.0000
  C   C187      1.0  0.34508  0.15572  0.39937  1.0000
  N   N45       1.0  0.37279  0.17061  0.39841  1.0000
  H   H126      1.0  0.33592  0.14033  0.44557  1.0000
  N   N46       1.0  0.41769  0.23448  0.47799  1.0000
  H   H127      1.0  0.42790  0.24894  0.52159  1.0000
  H   H128      1.0  0.39793  0.22555  0.48087  1.0000
  C   C188      1.0  0.77559  0.23700  0.35070  1.0000
  C   C189      1.0  0.80412  0.20746  0.35062  1.0000
  C   C190      1.0  0.78329  0.20089  0.41580  1.0000
  C   C191      1.0  0.76940  0.21595  0.41421  1.0000
  H   H129      1.0  0.75453  0.21158  0.46132  1.0000
  C   C192      1.0  0.85462  0.18673  0.39929  1.0000
  N   N47       1.0  0.83979  0.19958  0.39835  1.0000
  H   H130      1.0  0.86996  0.19286  0.44569  1.0000
  N   N48       1.0  0.77607  0.18072  0.47786  1.0000
  H   H131      1.0  0.76162  0.17645  0.52149  1.0000
  H   H132      1.0  0.78499  0.16986  0.48062  1.0000
  C   C193      1.0  0.25018  0.18729  0.38765  1.0000
  N   N49       1.0  0.23522  0.20003  0.38734  1.0000
  C   C194      1.0  0.19726  0.20552  0.35093  1.0000
  C   C195      1.0  0.17316  0.19602  0.40353  1.0000
  C   C196      1.0  0.15985  0.21163  0.40291  1.0000
  C   C197      1.0  0.16952  0.23595  0.35194  1.0000
  H   H133      1.0  0.14273  0.20512  0.44165  1.0000
  H   H134      1.0  0.26733  0.19539  0.42683  1.0000
  N   N50       1.0  0.16262  0.17285  0.45391  1.0000
  H   H135      1.0  0.17142  0.16190  0.45742  1.0000
  H   H136      1.0  0.14613  0.16677  0.48959  1.0000
  C   C198      1.0  0.82296  0.06057  0.38801  1.0000
  N   N51       1.0  0.80971  0.03285  0.38707  1.0000
  C   C199      1.0  0.80308  0.98909  0.34828  1.0000
  C   C200      1.0  0.80788  0.97473  0.41812  1.0000
  C   C201      1.0  0.79301  0.94578  0.41576  1.0000
  C   C202      1.0  0.77357  0.93111  0.34771  1.0000
  H   H137      1.0  0.79628  0.93513  0.46537  1.0000
  H   H138      1.0  0.81521  0.06982  0.42783  1.0000
  N   N52       1.0  0.82618  0.98763  0.48563  1.0000
  H   H139      1.0  0.83661  0.00740  0.48982  1.0000
  H   H140      1.0  0.82907  0.97740  0.53292  1.0000
  C   C203      1.0  0.94974  0.76044  0.38786  1.0000
  N   N53       1.0  0.97744  0.77527  0.38738  1.0000
  C   C204      1.0  0.02096  0.81306  0.35093  1.0000
  C   C205      1.0  0.03558  0.83706  0.40391  1.0000
  C   C206      1.0  0.06448  0.85023  0.40362  1.0000
  C   C207      1.0  0.07910  0.84054  0.35253  1.0000
  H   H141      1.0  0.07512  0.86731  0.44255  1.0000
  H   H142      1.0  0.94065  0.74330  0.42705  1.0000
  N   N54       1.0  0.02301  0.84767  0.45424  1.0000
  H   H143      1.0  0.00327  0.83899  0.45746  1.0000
  H   H144      1.0  0.03346  0.86412  0.49009  1.0000
  C   C208      1.0  0.76593  0.81901  0.38903  1.0000
  N   N55       1.0  0.78078  0.80615  0.38815  1.0000
  C   C209      1.0  0.81863  0.80047  0.35128  1.0000
  C   C210      1.0  0.84274  0.80979  0.40374  1.0000
  C   C211      1.0  0.85587  0.79401  0.40295  1.0000
  C   C212      1.0  0.84603  0.76965  0.35204  1.0000
  H   H145      1.0  0.87299  0.80042  0.44162  1.0000
  H   H146      1.0  0.74870  0.81080  0.42778  1.0000
  N   N56       1.0  0.85344  0.83295  0.45424  1.0000
  H   H147      1.0  0.84476  0.84400  0.45797  1.0000
  H   H148      1.0  0.86992  0.83889  0.48986  1.0000
  C   C213      1.0  0.19208  0.94521  0.38087  1.0000
  N   N57       1.0  0.20447  0.97289  0.38111  1.0000
  C   C214      1.0  0.20895  0.01618  0.34984  1.0000
  C   C215      1.0  0.20016  0.03108  0.40405  1.0000
  C   C216      1.0  0.21628  0.05997  0.40384  1.0000
  C   C217      1.0  0.24048  0.07431  0.35205  1.0000
  H   H149      1.0  0.21026  0.07081  0.44357  1.0000
  H   H150      1.0  0.20121  0.93645  0.41614  1.0000
  N   N58       1.0  0.17728  0.01880  0.45588  1.0000
  H   H151      1.0  0.16607  0.99908  0.45950  1.0000
  H   H152      1.0  0.17174  0.02943  0.49278  1.0000
  C   C218      1.0  0.06551  0.24468  0.38796  1.0000
  N   N59       1.0  0.03780  0.22969  0.38746  1.0000
  C   C219      1.0  0.99433  0.19169  0.35072  1.0000
  C   C220      1.0  0.97963  0.16751  0.40290  1.0000
  C   C221      1.0  0.95070  0.15419  0.40182  1.0000
  C   C222      1.0  0.93610  0.16395  0.35099  1.0000
  H   H153      1.0  0.94003  0.13701  0.44027  1.0000
  H   H154      1.0  0.07451  0.26186  0.42695  1.0000
  N   N60       1.0  0.99219  0.15691  0.45336  1.0000
  H   H155      1.0  0.01193  0.16577  0.45744  1.0000
  H   H156      1.0  0.98172  0.14042  0.48899  1.0000
  C   C223      1.0  0.22836  0.66372  0.39572  1.0000
  N   N61       1.0  0.22626  0.63877  0.39989  1.0000
  C   C224      1.0  0.23652  0.60421  0.35742  1.0000
  C   C225      1.0  0.25102  0.60217  0.43302  1.0000
  C   C226      1.0  0.25430  0.57897  0.43834  1.0000
  C   C227      1.0  0.24471  0.55880  0.37005  1.0000
  H   H157      1.0  0.26643  0.57819  0.48828  1.0000
  H   H158      1.0  0.22284  0.67059  0.45121  1.0000
  N   N62       1.0  0.26377  0.62210  0.49623  1.0000
  H   H159      1.0  0.26404  0.63932  0.49292  1.0000
  H   H160      1.0  0.27413  0.62018  0.54538  1.0000
  C   C228      1.0  0.34682  0.56210  0.39565  1.0000
  N   N63       1.0  0.37178  0.58492  0.39991  1.0000
  C   C229      1.0  0.40637  0.62978  0.35785  1.0000
  C   C230      1.0  0.40843  0.64627  0.43360  1.0000
  C   C231      1.0  0.43161  0.67275  0.43890  1.0000
  C   C232      1.0  0.45175  0.68339  0.37053  1.0000
  H   H161      1.0  0.43240  0.68566  0.48888  1.0000
  H   H162      1.0  0.33993  0.54965  0.45099  1.0000
  N   N64       1.0  0.38853  0.63905  0.49695  1.0000
  H   H163      1.0  0.37133  0.62208  0.49369  1.0000
  H   H164      1.0  0.39047  0.65130  0.54621  1.0000
  C   C233      1.0  0.44833  0.78215  0.39585  1.0000
  N   N65       1.0  0.42550  0.78427  0.40004  1.0000
  C   C234      1.0  0.38063  0.77396  0.35780  1.0000
  C   C235      1.0  0.36412  0.75951  0.43349  1.0000
  C   C236      1.0  0.33764  0.75619  0.43870  1.0000
  C   C237      1.0  0.32702  0.76575  0.37047  1.0000
  H   H165      1.0  0.32474  0.74414  0.48885  1.0000
  H   H166      1.0  0.46077  0.78773  0.45122  1.0000
  N   N66       1.0  0.37134  0.74683  0.49687  1.0000
  H   H167      1.0  0.38832  0.74661  0.49365  1.0000
  H   H168      1.0  0.35908  0.73650  0.54607  1.0000
  C   C238      1.0  0.78731  0.34168  0.39610  1.0000
  N   N67       1.0  0.78948  0.36666  0.40020  1.0000
  C   C239      1.0  0.77917  0.40119  0.35778  1.0000
  C   C240      1.0  0.76468  0.40323  0.43342  1.0000
  C   C241      1.0  0.76141  0.42642  0.43876  1.0000
  C   C242      1.0  0.77097  0.44657  0.37044  1.0000
  H   H169      1.0  0.74932  0.42723  0.48884  1.0000
  H   H170      1.0  0.79295  0.33480  0.45131  1.0000
  N   N68       1.0  0.75202  0.38333  0.49680  1.0000
  H   H171      1.0  0.75169  0.36608  0.49329  1.0000
  H   H172      1.0  0.74160  0.38522  0.54581  1.0000
  C   C243      1.0  0.66892  0.44319  0.39583  1.0000
  N   N69       1.0  0.64396  0.42035  0.39997  1.0000
  C   C244      1.0  0.60941  0.37553  0.35745  1.0000
  C   C245      1.0  0.60739  0.35898  0.43300  1.0000
  C   C246      1.0  0.58420  0.33251  0.43832  1.0000
  C   C247      1.0  0.56400  0.32193  0.37008  1.0000
  H   H173      1.0  0.58342  0.31958  0.48820  1.0000
  H   H174      1.0  0.67580  0.45557  0.45135  1.0000
  N   N70       1.0  0.62734  0.36616  0.49615  1.0000
  H   H175      1.0  0.64455  0.38311  0.49282  1.0000
  H   H176      1.0  0.62543  0.35387  0.54525  1.0000
  C   C248      1.0  0.56734  0.22318  0.39556  1.0000
  N   N71       1.0  0.59017  0.22105  0.39989  1.0000
  C   C249      1.0  0.63503  0.23130  0.35785  1.0000
  C   C250      1.0  0.65153  0.24576  0.43357  1.0000
  C   C251      1.0  0.67800  0.24906  0.43892  1.0000
  C   C252      1.0  0.68862  0.23955  0.37050  1.0000
  H   H177      1.0  0.69093  0.26120  0.48886  1.0000
  H   H178      1.0  0.55489  0.21764  0.45091  1.0000
  N   N72       1.0  0.64430  0.25845  0.49686  1.0000
  H   H179      1.0  0.62733  0.25868  0.49357  1.0000
  H   H180      1.0  0.65655  0.26878  0.54610  1.0000
