data_image0
_chemical_formula_structural       C2OHCHCHCHC8OH3C6O2H4C6O2H4C3H2NH2C4H3NH2C4H3NH2C4H3NH2C4H3NH2C4H3NH2C3HO2C3HOC3OHC3HOC3OHC4H2C3HNH2C4H2C4HNH2C2HC4HNH2C4H2C4HNH2C4H2C4HNH2C4H2C4HNH2
_chemical_formula_sum              "C108 O12 H78 N12"
_cell_length_a       31.5624
_cell_length_b       31.5624
_cell_length_c       14.8536
_cell_angle_alpha    90
_cell_angle_beta     90
_cell_angle_gamma    120

_space_group_name_H-M_alt    "P 1"
_space_group_IT_number       1

loop_
  _space_group_symop_operation_xyz
  'x, y, z'

loop_
  _atom_site_type_symbol
  _atom_site_label
  _atom_site_symmetry_multiplicity
  _atom_site_fract_x
  _atom_site_fract_y
  _atom_site_fract_z
  _atom_site_occupancy
  C   C1        1.0  0.03419  0.51869  0.34770  1.0000
  C   C2        1.0  0.06217  0.56970  0.32538  1.0000
  O   O1        1.0  0.04043  0.59474  0.29381  1.0000
  H   H1        1.0  0.03294  0.58574  0.23001  1.0000
  C   C3        1.0  0.06159  0.49563  0.37193  1.0000
  H   H2        1.0  0.04389  0.45998  0.39241  1.0000
  C   C4        1.0  0.11411  0.59635  0.33040  1.0000
  H   H3        1.0  0.11755  0.45609  0.26145  1.0000
  C   C5        1.0  0.11331  0.52025  0.37185  1.0000
  H   H4        1.0  0.11825  0.66501  0.44113  1.0000
  C   C6        1.0  0.14223  0.46662  0.31318  1.0000
  C   C7        1.0  0.13915  0.57085  0.35154  1.0000
  C   C8        1.0  0.14041  0.49534  0.38432  1.0000
  C   C9        1.0  0.14254  0.64853  0.32010  1.0000
  C   C10       1.0  0.14362  0.67909  0.39049  1.0000
  C   C11       1.0  0.98057  0.49110  0.34772  1.0000
  C   C12       1.0  0.90065  0.41343  0.33049  1.0000
  C   C13       1.0  0.95259  0.44009  0.32544  1.0000
  O   O2        1.0  0.97433  0.41504  0.29390  1.0000
  H   H5        1.0  0.98179  0.42401  0.23009  1.0000
  H   H6        1.0  0.81386  0.42092  0.29893  1.0000
  H   H7        1.0  0.20094  0.58890  0.29905  1.0000
  C   C14       1.0  0.52118  0.49193  0.34772  1.0000
  C   C15       1.0  0.59886  0.48969  0.33049  1.0000
  C   C16       1.0  0.57219  0.51496  0.32538  1.0000
  C   C17       1.0  0.49359  0.51794  0.34770  1.0000
  C   C18       1.0  0.44259  0.49492  0.32534  1.0000
  C   C19       1.0  0.41592  0.52020  0.33039  1.0000
  O   O3        1.0  0.59724  0.56176  0.29389  1.0000
  O   O4        1.0  0.41754  0.44812  0.29386  1.0000
  H   H8        1.0  0.58827  0.56027  0.23007  1.0000
  H   H9        1.0  0.42651  0.44960  0.23005  1.0000
  H   H10       1.0  0.59140  0.39541  0.29897  1.0000
  H   H11       1.0  0.42340  0.61449  0.29887  1.0000
  C   C20       1.0  0.52043  0.03175  0.34771  1.0000
  C   C21       1.0  0.52268  0.11166  0.33045  1.0000
  C   C22       1.0  0.49740  0.05972  0.32537  1.0000
  C   C23       1.0  0.49441  0.97813  0.34772  1.0000
  C   C24       1.0  0.51745  0.95016  0.32543  1.0000
  C   C25       1.0  0.49217  0.89822  0.33049  1.0000
  O   O5        1.0  0.45061  0.03798  0.29385  1.0000
  O   O6        1.0  0.56424  0.97191  0.29390  1.0000
  H   H12       1.0  0.45211  0.03050  0.23004  1.0000
  H   H13       1.0  0.56273  0.97937  0.23009  1.0000
  H   H14       1.0  0.61697  0.19849  0.29899  1.0000
  H   H15       1.0  0.39790  0.81141  0.29883  1.0000
  C   C26       1.0  0.34319  0.51368  0.25512  1.0000
  C   C27       1.0  0.29604  0.50825  0.26606  1.0000
  C   C28       1.0  0.18181  0.45806  0.30495  1.0000
  H   H16       1.0  0.18359  0.44034  0.24856  1.0000
  H   H17       1.0  0.36555  0.53634  0.20537  1.0000
  N   N1        1.0  0.28283  0.53305  0.20793  1.0000
  H   H18       1.0  0.30429  0.55269  0.15911  1.0000
  H   H19       1.0  0.25276  0.53394  0.21493  1.0000
  C   C29       1.0  0.49872  0.83205  0.25508  1.0000
  C   C30       1.0  0.50416  0.79034  0.26602  1.0000
  C   C31       1.0  0.55438  0.72632  0.30502  1.0000
  C   C32       1.0  0.54581  0.67818  0.31317  1.0000
  H   H20       1.0  0.57217  0.74587  0.24872  1.0000
  H   H21       1.0  0.55639  0.66407  0.26146  1.0000
  H   H22       1.0  0.47609  0.83177  0.20531  1.0000
  N   N2        1.0  0.47942  0.75235  0.20780  1.0000
  H   H23       1.0  0.45982  0.75420  0.15894  1.0000
  H   H24       1.0  0.47856  0.72141  0.21477  1.0000
  C   C33       1.0  0.18033  0.66909  0.25513  1.0000
  C   C34       1.0  0.22204  0.71624  0.26604  1.0000
  C   C35       1.0  0.28604  0.83049  0.30490  1.0000
  C   C36       1.0  0.33418  0.87007  0.31306  1.0000
  H   H25       1.0  0.26650  0.82872  0.24857  1.0000
  H   H26       1.0  0.34830  0.89475  0.26133  1.0000
  H   H27       1.0  0.18062  0.64672  0.20539  1.0000
  N   N3        1.0  0.26003  0.72946  0.20786  1.0000
  H   H28       1.0  0.25820  0.70799  0.15904  1.0000
  H   H29       1.0  0.29098  0.75954  0.21482  1.0000
  C   C37       1.0  0.67158  0.49622  0.25516  1.0000
  C   C38       1.0  0.71873  0.50165  0.26606  1.0000
  C   C39       1.0  0.83298  0.55186  0.30496  1.0000
  C   C40       1.0  0.87255  0.54330  0.31313  1.0000
  H   H30       1.0  0.83122  0.56964  0.24864  1.0000
  H   H31       1.0  0.89724  0.55385  0.26141  1.0000
  H   H32       1.0  0.64922  0.47357  0.20541  1.0000
  N   N4        1.0  0.73195  0.47688  0.20787  1.0000
  H   H33       1.0  0.71049  0.45726  0.15905  1.0000
  H   H34       1.0  0.76203  0.47602  0.21483  1.0000
  C   C41       1.0  0.51615  0.17787  0.25515  1.0000
  C   C42       1.0  0.51070  0.21958  0.26606  1.0000
  C   C43       1.0  0.46046  0.28358  0.30494  1.0000
  C   C44       1.0  0.46901  0.33171  0.31312  1.0000
  H   H35       1.0  0.44269  0.26404  0.24861  1.0000
  H   H36       1.0  0.45846  0.34584  0.26139  1.0000
  H   H37       1.0  0.53881  0.17816  0.20541  1.0000
  N   N5        1.0  0.53548  0.25757  0.20788  1.0000
  H   H38       1.0  0.55511  0.25574  0.15906  1.0000
  H   H39       1.0  0.53633  0.28851  0.21484  1.0000
  C   C45       1.0  0.83444  0.34072  0.25512  1.0000
  C   C46       1.0  0.79272  0.29357  0.26607  1.0000
  C   C47       1.0  0.72869  0.17934  0.30496  1.0000
  C   C48       1.0  0.68056  0.13975  0.31314  1.0000
  H   H40       1.0  0.74821  0.18113  0.24860  1.0000
  H   H41       1.0  0.66640  0.11508  0.26141  1.0000
  H   H42       1.0  0.83416  0.36308  0.20537  1.0000
  N   N6        1.0  0.75472  0.28036  0.20791  1.0000
  H   H43       1.0  0.75656  0.30181  0.15908  1.0000
  H   H44       1.0  0.72377  0.25029  0.21491  1.0000
  C   C49       1.0  0.95318  0.51416  0.37194  1.0000
  C   C50       1.0  0.90146  0.48955  0.37189  1.0000
  C   C51       1.0  0.87561  0.43895  0.35155  1.0000
  H   H45       1.0  0.97089  0.54984  0.39231  1.0000
  O   O7        1.0  0.82551  0.41374  0.35521  1.0000
  O   O8        1.0  0.18925  0.59607  0.35530  1.0000
  C   C52       1.0  0.49813  0.44147  0.37194  1.0000
  C   C53       1.0  0.52275  0.41437  0.37188  1.0000
  C   C54       1.0  0.57335  0.43913  0.35155  1.0000
  H   H46       1.0  0.46246  0.42350  0.39233  1.0000
  O   O9        1.0  0.59857  0.41425  0.35523  1.0000
  C   C55       1.0  0.44143  0.57075  0.35147  1.0000
  C   C56       1.0  0.49203  0.59551  0.37182  1.0000
  C   C57       1.0  0.51664  0.56841  0.37193  1.0000
  O   O10       1.0  0.41622  0.59564  0.35513  1.0000
  H   H47       1.0  0.55231  0.58636  0.39236  1.0000
  C   C58       1.0  0.57089  0.05915  0.37193  1.0000
  C   C59       1.0  0.59800  0.11087  0.37184  1.0000
  C   C60       1.0  0.57323  0.13671  0.35153  1.0000
  H   H48       1.0  0.58884  0.04145  0.39241  1.0000
  O   O11       1.0  0.59811  0.18681  0.35525  1.0000
  C   C61       1.0  0.44161  0.87317  0.35149  1.0000
  C   C62       1.0  0.41684  0.89901  0.37180  1.0000
  C   C63       1.0  0.44394  0.95072  0.37191  1.0000
  O   O12       1.0  0.41672  0.82307  0.35511  1.0000
  H   H49       1.0  0.42597  0.96842  0.39230  1.0000
  C   C64       1.0  0.36375  0.49645  0.32007  1.0000
  C   C65       1.0  0.26656  0.48063  0.34072  1.0000
  C   C66       1.0  0.28500  0.45816  0.39918  1.0000
  C   C67       1.0  0.33319  0.46696  0.39045  1.0000
  H   H50       1.0  0.26524  0.43942  0.45466  1.0000
  H   H51       1.0  0.34727  0.45565  0.44107  1.0000
  C   C68       1.0  0.22216  0.48010  0.36470  1.0000
  C   C69       1.0  0.17754  0.51191  0.45049  1.0000
  C   C70       1.0  0.21937  0.50660  0.44036  1.0000
  H   H52       1.0  0.17746  0.53438  0.50024  1.0000
  N   N7        1.0  0.25672  0.53070  0.50008  1.0000
  H   H53       1.0  0.28771  0.53158  0.49398  1.0000
  H   H54       1.0  0.25423  0.54955  0.54965  1.0000
  C   C71       1.0  0.51591  0.86979  0.32011  1.0000
  C   C72       1.0  0.53174  0.78845  0.34075  1.0000
  C   C73       1.0  0.55415  0.82932  0.39930  1.0000
  C   C74       1.0  0.54536  0.86873  0.39059  1.0000
  H   H55       1.0  0.57284  0.82827  0.45483  1.0000
  H   H56       1.0  0.55662  0.89408  0.44125  1.0000
  C   C75       1.0  0.53225  0.74457  0.36469  1.0000
  C   C76       1.0  0.51696  0.64752  0.38408  1.0000
  C   C77       1.0  0.50034  0.66807  0.45024  1.0000
  C   C78       1.0  0.50567  0.71522  0.44022  1.0000
  H   H57       1.0  0.47784  0.64550  0.49994  1.0000
  N   N8        1.0  0.48151  0.72841  0.49989  1.0000
  H   H58       1.0  0.48065  0.75853  0.49386  1.0000
  H   H59       1.0  0.46260  0.70704  0.54938  1.0000
  C   C79       1.0  0.22391  0.74572  0.34070  1.0000
  C   C80       1.0  0.18302  0.72728  0.39920  1.0000
  H   H60       1.0  0.18405  0.74704  0.45469  1.0000
  C   C81       1.0  0.26778  0.79013  0.36463  1.0000
  C   C82       1.0  0.36483  0.87191  0.38402  1.0000
  C   C83       1.0  0.34427  0.83476  0.45020  1.0000
  C   C84       1.0  0.29712  0.79293  0.44019  1.0000
  H   H61       1.0  0.36684  0.83485  0.49993  1.0000
  N   N9        1.0  0.28393  0.75560  0.49992  1.0000
  H   H62       1.0  0.25380  0.72461  0.49390  1.0000
  H   H63       1.0  0.30529  0.75809  0.54943  1.0000
  C   C85       1.0  0.65103  0.51344  0.32015  1.0000
  C   C86       1.0  0.74822  0.52926  0.34073  1.0000
  C   C87       1.0  0.72978  0.55170  0.39925  1.0000
  C   C88       1.0  0.68159  0.54291  0.39055  1.0000
  H   H64       1.0  0.74954  0.57042  0.45474  1.0000
  H   H65       1.0  0.66752  0.55420  0.44119  1.0000
  C   C89       1.0  0.79261  0.52977  0.36467  1.0000
  C   C90       1.0  0.87438  0.51448  0.38409  1.0000
  C   C91       1.0  0.83722  0.49789  0.45027  1.0000
  C   C92       1.0  0.79540  0.50322  0.44024  1.0000
  H   H66       1.0  0.83730  0.47541  0.50001  1.0000
  N   N10       1.0  0.75806  0.47909  0.49995  1.0000
  H   H67       1.0  0.72708  0.47824  0.49392  1.0000
  H   H68       1.0  0.76053  0.46021  0.54946  1.0000
  C   C93       1.0  0.49893  0.14009  0.32013  1.0000
  C   C94       1.0  0.48309  0.22144  0.34071  1.0000
  C   C95       1.0  0.46064  0.18055  0.39921  1.0000
  C   C96       1.0  0.46944  0.14115  0.39051  1.0000
  H   H69       1.0  0.44190  0.18158  0.45470  1.0000
  H   H70       1.0  0.45814  0.11578  0.44115  1.0000
  C   C97       1.0  0.48255  0.26531  0.36466  1.0000
  C   C98       1.0  0.49782  0.36235  0.38408  1.0000
  C   C99       1.0  0.51442  0.34179  0.45026  1.0000
  C   C100      1.0  0.50910  0.29465  0.44023  1.0000
  H   H71       1.0  0.53689  0.36435  0.50000  1.0000
  N   N11       1.0  0.53323  0.28144  0.49995  1.0000
  H   H72       1.0  0.53409  0.25132  0.49392  1.0000
  H   H73       1.0  0.55211  0.30280  0.54946  1.0000
  C   C101      1.0  0.87220  0.36125  0.32011  1.0000
  C   C102      1.0  0.79085  0.26410  0.34076  1.0000
  C   C103      1.0  0.83174  0.28255  0.39927  1.0000
  C   C104      1.0  0.87116  0.33074  0.39055  1.0000
  H   H74       1.0  0.83071  0.26279  0.45477  1.0000
  H   H75       1.0  0.89652  0.34482  0.44119  1.0000
  C   C105      1.0  0.74698  0.21970  0.36472  1.0000
  C   C106      1.0  0.65001  0.13797  0.38423  1.0000
  C   C107      1.0  0.67053  0.17508  0.45046  1.0000
  C   C108      1.0  0.71767  0.21691  0.44035  1.0000
  H   H76       1.0  0.64795  0.17499  0.50018  1.0000
  N   N12       1.0  0.73089  0.25426  0.50006  1.0000
  H   H77       1.0  0.76100  0.28525  0.49397  1.0000
  H   H78       1.0  0.70955  0.25177  0.54961  1.0000
