data_image0
_chemical_formula_structural       C3NC3NC5NC4NC35H25C21H18C16H16C2H2C2H2C2H2C2H2C2H2C2H2C2H2C2H2C2H2C2H2C2H2C2H2C18H17C3NC3NC2NC5NC34H24C3NC3NC5NC5NC36H26C8H2N2O4C8H2N2O4C8H2N2O4C8H2N2O4C8H2N2O4C8H2N2O4
_chemical_formula_sum              "C276 N24 H162 O24"
_cell_length_a       67.2307
_cell_length_b       67.2306
_cell_length_c       14.9466
_cell_angle_alpha    89.8028
_cell_angle_beta     90.1972
_cell_angle_gamma    120

_space_group_name_H-M_alt    "P 1"
_space_group_IT_number       1

loop_
  _space_group_symop_operation_xyz
  'x, y, z'

loop_
  _atom_site_type_symbol
  _atom_site_label
  _atom_site_symmetry_multiplicity
  _atom_site_fract_x
  _atom_site_fract_y
  _atom_site_fract_z
  _atom_site_occupancy
  C   C1        1.0  0.04478  0.62894  0.32886  1.0000
  C   C2        1.0  0.02106  0.61714  0.32805  1.0000
  C   C3        1.0  0.01345  0.59363  0.33145  1.0000
  N   N1        1.0  0.03280  0.59209  0.33375  1.0000
  C   C4        1.0  0.05223  0.61292  0.33233  1.0000
  C   C5        1.0  0.07562  0.61845  0.33395  1.0000
  C   C6        1.0  0.08310  0.60207  0.33452  1.0000
  N   N2        1.0  0.07007  0.57892  0.33256  1.0000
  C   C7        1.0  0.08300  0.56867  0.33353  1.0000
  C   C8        1.0  0.10583  0.58644  0.33614  1.0000
  C   C9        1.0  0.10590  0.60700  0.33685  1.0000
  C   C10       1.0  0.07538  0.54479  0.33216  1.0000
  C   C11       1.0  0.05196  0.52703  0.33135  1.0000
  N   N3        1.0  0.03261  0.52858  0.33290  1.0000
  C   C12       1.0  0.01318  0.50773  0.33222  1.0000
  C   C13       1.0  0.02064  0.49171  0.32976  1.0000
  C   C14       1.0  0.04437  0.50352  0.32913  1.0000
  C   C15       1.0  0.98981  0.50221  0.33391  1.0000
  N   N4        1.0  0.99534  0.54174  0.33242  1.0000
  C   C16       1.0  0.98242  0.55199  0.33377  1.0000
  C   C17       1.0  0.95959  0.53420  0.33707  1.0000
  C   C18       1.0  0.95954  0.51365  0.33753  1.0000
  C   C19       1.0  0.99002  0.57588  0.33223  1.0000
  C   C20       1.0  0.97277  0.58235  0.33090  1.0000
  C   C21       1.0  0.96135  0.58156  0.25040  1.0000
  C   C22       1.0  0.94320  0.58632  0.25014  1.0000
  C   C23       1.0  0.93603  0.59214  0.33002  1.0000
  C   C24       1.0  0.91675  0.59567  0.33052  1.0000
  C   C25       1.0  0.87657  0.58267  0.29086  1.0000
  C   C26       1.0  0.89599  0.57995  0.28730  1.0000
  C   C27       1.0  0.97251  0.47854  0.33555  1.0000
  C   C28       1.0  0.96209  0.46679  0.25551  1.0000
  C   C29       1.0  0.94416  0.44378  0.25780  1.0000
  C   C30       1.0  0.93603  0.43183  0.33992  1.0000
  C   C31       1.0  0.91711  0.40874  0.34238  1.0000
  C   C32       1.0  0.91507  0.39204  0.27978  1.0000
  C   C33       1.0  0.89614  0.36953  0.28121  1.0000
  C   C34       1.0  0.87853  0.36275  0.34566  1.0000
  C   C35       1.0  0.09260  0.53831  0.33169  1.0000
  C   C36       1.0  0.12908  0.52808  0.33147  1.0000
  C   C37       1.0  0.12058  0.53209  0.25054  1.0000
  C   C38       1.0  0.10262  0.53713  0.25049  1.0000
  C   C39       1.0  0.14810  0.52408  0.33184  1.0000
  C   C40       1.0  0.16768  0.53747  0.27795  1.0000
  C   C41       1.0  0.18687  0.53434  0.28093  1.0000
  C   C42       1.0  0.18709  0.51774  0.33829  1.0000
  C   C43       1.0  0.09293  0.64211  0.33541  1.0000
  C   C44       1.0  0.10341  0.65385  0.25539  1.0000
  C   C45       1.0  0.12149  0.67679  0.25765  1.0000
  C   C46       1.0  0.12972  0.68868  0.33973  1.0000
  C   C47       1.0  0.14884  0.71165  0.34223  1.0000
  C   C48       1.0  0.18789  0.75735  0.34543  1.0000
  C   C49       1.0  0.17030  0.75086  0.28075  1.0000
  C   C50       1.0  0.15114  0.72848  0.27933  1.0000
  H   H1        1.0  0.17112  0.76251  0.23453  1.0000
  H   H2        1.0  0.13868  0.72468  0.23218  1.0000
  H   H3        1.0  0.12915  0.68447  0.19854  1.0000
  H   H4        1.0  0.09829  0.64561  0.19511  1.0000
  H   H5        1.0  0.05475  0.64643  0.32665  1.0000
  H   H6        1.0  0.01120  0.62477  0.32538  1.0000
  H   H7        1.0  0.03275  0.57781  0.33778  1.0000
  H   H8        1.0  0.03266  0.54286  0.33576  1.0000
  H   H9        1.0  0.12037  0.62282  0.33882  1.0000
  H   H10       1.0  0.12025  0.58499  0.33765  1.0000
  H   H11       1.0  0.09713  0.54025  0.19089  1.0000
  H   H12       1.0  0.12742  0.53138  0.19040  1.0000
  H   H13       1.0  0.05424  0.49589  0.32758  1.0000
  H   H14       1.0  0.01069  0.47422  0.32861  1.0000
  H   H15       1.0  0.94507  0.49782  0.34002  1.0000
  H   H16       1.0  0.96718  0.47506  0.19517  1.0000
  H   H17       1.0  0.93656  0.43608  0.19864  1.0000
  H   H18       1.0  0.89551  0.35798  0.23522  1.0000
  H   H19       1.0  0.92756  0.39604  0.23282  1.0000
  H   H20       1.0  0.89452  0.56585  0.25529  1.0000
  H   H21       1.0  0.86170  0.57070  0.26046  1.0000
  H   H22       1.0  0.93519  0.58541  0.19072  1.0000
  H   H23       1.0  0.96585  0.57706  0.19172  1.0000
  H   H24       1.0  0.16852  0.55025  0.23799  1.0000
  H   H25       1.0  0.20093  0.54472  0.24272  1.0000
  C   C51       1.0  0.52295  0.59928  0.33612  1.0000
  C   C52       1.0  0.50518  0.60434  0.33875  1.0000
  C   C53       1.0  0.48462  0.58385  0.33953  1.0000
  C   C54       1.0  0.51004  0.46487  0.25303  1.0000
  C   C55       1.0  0.50527  0.44196  0.25275  1.0000
  C   C56       1.0  0.50883  0.37886  0.29330  1.0000
  C   C57       1.0  0.51158  0.40101  0.28981  1.0000
  C   C58       1.0  0.62480  0.58040  0.25788  1.0000
  C   C59       1.0  0.64781  0.58548  0.26003  1.0000
  C   C60       1.0  0.69955  0.60814  0.28173  1.0000
  C   C61       1.0  0.72207  0.61173  0.28296  1.0000
  C   C62       1.0  0.72886  0.60075  0.34716  1.0000
  C   C63       1.0  0.55948  0.67357  0.25314  1.0000
  C   C64       1.0  0.55447  0.65058  0.25309  1.0000
  C   C65       1.0  0.55405  0.71521  0.28060  1.0000
  C   C66       1.0  0.55714  0.73751  0.28359  1.0000
  C   C67       1.0  0.43792  0.53498  0.25778  1.0000
  C   C68       1.0  0.41500  0.53014  0.25992  1.0000
  C   C69       1.0  0.33436  0.51567  0.34686  1.0000
  C   C70       1.0  0.34099  0.50506  0.28099  1.0000
  C   C71       1.0  0.36333  0.50819  0.27992  1.0000
  H   H26       1.0  0.32948  0.49470  0.23358  1.0000
  H   H27       1.0  0.36724  0.49991  0.23182  1.0000
  H   H28       1.0  0.40743  0.53047  0.20087  1.0000
  H   H29       1.0  0.44626  0.53842  0.19765  1.0000
  H   H30       1.0  0.46880  0.58249  0.34161  1.0000
  H   H31       1.0  0.55133  0.64205  0.19350  1.0000
  H   H32       1.0  0.56018  0.68120  0.19301  1.0000
  H   H33       1.0  0.59573  0.64332  0.33031  1.0000
  H   H34       1.0  0.61652  0.57734  0.19759  1.0000
  H   H35       1.0  0.65550  0.58571  0.20079  1.0000
  H   H36       1.0  0.73360  0.62273  0.23696  1.0000
  H   H37       1.0  0.69553  0.61672  0.23497  1.0000
  H   H38       1.0  0.52568  0.41369  0.25772  1.0000
  H   H39       1.0  0.52079  0.37599  0.26289  1.0000
  H   H40       1.0  0.50616  0.43494  0.19331  1.0000
  H   H41       1.0  0.51457  0.47397  0.19438  1.0000
  H   H42       1.0  0.54127  0.70333  0.24063  1.0000
  H   H43       1.0  0.54675  0.74124  0.24536  1.0000
  C   C72       1.0  0.62655  0.13015  0.25416  1.0000
  C   C73       1.0  0.64945  0.14829  0.25337  1.0000
  C   C74       1.0  0.71260  0.21494  0.29208  1.0000
  C   C75       1.0  0.69045  0.19553  0.28915  1.0000
  C   C76       1.0  0.51119  0.12951  0.26050  1.0000
  C   C77       1.0  0.50608  0.14741  0.26264  1.0000
  C   C78       1.0  0.48336  0.17641  0.28433  1.0000
  C   C79       1.0  0.47976  0.19533  0.28556  1.0000
  C   C80       1.0  0.41877  0.96954  0.25341  1.0000
  C   C81       1.0  0.44174  0.98755  0.25420  1.0000
  C   C82       1.0  0.37743  0.92257  0.29042  1.0000
  C   C83       1.0  0.35515  0.90335  0.29338  1.0000
  C   C84       1.0  0.55646  0.98796  0.26035  1.0000
  C   C85       1.0  0.56131  0.96988  0.26251  1.0000
  C   C86       1.0  0.58637  0.92091  0.28363  1.0000
  C   C87       1.0  0.58325  0.94013  0.28254  1.0000
  H   H44       1.0  0.59673  0.91983  0.23623  1.0000
  H   H45       1.0  0.59153  0.95239  0.23443  1.0000
  H   H46       1.0  0.56094  0.96204  0.20349  1.0000
  H   H47       1.0  0.55300  0.99293  0.20021  1.0000
  H   H48       1.0  0.45092  0.99198  0.19587  1.0000
  H   H49       1.0  0.41180  0.96154  0.19395  1.0000
  H   H50       1.0  0.51430  0.12441  0.20022  1.0000
  H   H51       1.0  0.50591  0.15501  0.20344  1.0000
  H   H52       1.0  0.46877  0.19593  0.23950  1.0000
  H   H53       1.0  0.47480  0.16389  0.23747  1.0000
  H   H54       1.0  0.67774  0.19695  0.25709  1.0000
  H   H55       1.0  0.71544  0.22976  0.26130  1.0000
  H   H56       1.0  0.65639  0.15622  0.19374  1.0000
  H   H57       1.0  0.61737  0.12558  0.19567  1.0000
  H   H58       1.0  0.39007  0.92088  0.25952  1.0000
  H   H59       1.0  0.35216  0.88840  0.26368  1.0000
  C   C88       1.0  0.22952  0.49880  0.28932  1.0000
  C   C89       1.0  0.20954  0.50058  0.28703  1.0000
  H   H60       1.0  0.23081  0.48771  0.24617  1.0000
  H   H61       1.0  0.19691  0.49088  0.24182  1.0000
  C   C90       1.0  0.30221  0.51625  0.26813  1.0000
  C   C91       1.0  0.28082  0.51527  0.26969  1.0000
  H   H62       1.0  0.31107  0.52024  0.20909  1.0000
  H   H63       1.0  0.27488  0.51859  0.21161  1.0000
  C   C92       1.0  0.59266  0.81571  0.29197  1.0000
  C   C93       1.0  0.59089  0.79395  0.28967  1.0000
  H   H64       1.0  0.60375  0.82816  0.24885  1.0000
  H   H65       1.0  0.60060  0.79110  0.24448  1.0000
  C   C94       1.0  0.57519  0.87097  0.27077  1.0000
  C   C95       1.0  0.57618  0.85056  0.27233  1.0000
  H   H66       1.0  0.57121  0.87593  0.21173  1.0000
  H   H67       1.0  0.57287  0.84139  0.21424  1.0000
  C   C96       1.0  0.27496  0.86323  0.29555  1.0000
  C   C97       1.0  0.29673  0.88322  0.29369  1.0000
  H   H68       1.0  0.26203  0.86265  0.25723  1.0000
  H   H69       1.0  0.29915  0.89657  0.25322  1.0000
  C   C98       1.0  0.21984  0.79022  0.26656  1.0000
  C   C99       1.0  0.24020  0.81167  0.26827  1.0000
  H   H70       1.0  0.21451  0.78179  0.20675  1.0000
  H   H71       1.0  0.24894  0.81810  0.20960  1.0000
  C   C100      1.0  0.83528  0.62142  0.29593  1.0000
  C   C101      1.0  0.85550  0.62005  0.29358  1.0000
  H   H72       1.0  0.83438  0.63361  0.25780  1.0000
  H   H73       1.0  0.86868  0.63111  0.25295  1.0000
  C   C102      1.0  0.76192  0.60232  0.26787  1.0000
  C   C103      1.0  0.78355  0.60381  0.26930  1.0000
  H   H74       1.0  0.75340  0.59913  0.20810  1.0000
  H   H75       1.0  0.79002  0.60169  0.21047  1.0000
  C   C104      1.0  0.47007  0.29884  0.29846  1.0000
  C   C105      1.0  0.47145  0.32043  0.29608  1.0000
  H   H76       1.0  0.45788  0.28579  0.26029  1.0000
  H   H77       1.0  0.46041  0.32262  0.25541  1.0000
  C   C106      1.0  0.48916  0.24460  0.27052  1.0000
  C   C107      1.0  0.48767  0.26474  0.27194  1.0000
  H   H78       1.0  0.49236  0.23937  0.21077  1.0000
  H   H79       1.0  0.48981  0.27343  0.21312  1.0000
  C   C108      1.0  0.79263  0.25628  0.29586  1.0000
  C   C109      1.0  0.77104  0.23606  0.29394  1.0000
  H   H80       1.0  0.80563  0.25716  0.25751  1.0000
  H   H81       1.0  0.76881  0.22285  0.25341  1.0000
  C   C110      1.0  0.84685  0.32964  0.26684  1.0000
  C   C111      1.0  0.82672  0.30801  0.26860  1.0000
  H   H82       1.0  0.85203  0.33812  0.20698  1.0000
  H   H83       1.0  0.81797  0.30150  0.20991  1.0000
  C   C112      1.0  0.98232  0.51858  0.33460  1.0000
  C   C113      1.0  0.94791  0.59334  0.41011  1.0000
  C   C114      1.0  0.96594  0.58839  0.41074  1.0000
  C   C115      1.0  0.91747  0.61444  0.37632  1.0000
  C   C116      1.0  0.89815  0.61738  0.37897  1.0000
  C   C117      1.0  0.87743  0.60140  0.33680  1.0000
  C   C118      1.0  0.94683  0.44376  0.41969  1.0000
  C   C119      1.0  0.96477  0.46675  0.41771  1.0000
  C   C120      1.0  0.88058  0.37940  0.40842  1.0000
  C   C121      1.0  0.89945  0.40191  0.40674  1.0000
  C   C122      1.0  0.10074  0.53411  0.41270  1.0000
  C   C123      1.0  0.11866  0.52901  0.41243  1.0000
  C   C124      1.0  0.16754  0.50398  0.39106  1.0000
  C   C125      1.0  0.14837  0.50717  0.38795  1.0000
  C   C126      1.0  0.10073  0.65385  0.41751  1.0000
  C   C127      1.0  0.11882  0.67678  0.41947  1.0000
  C   C128      1.0  0.16649  0.71820  0.40683  1.0000
  C   C129      1.0  0.18557  0.74058  0.40851  1.0000
  H   H84       1.0  0.19817  0.74428  0.45497  1.0000
  H   H85       1.0  0.16597  0.70650  0.45212  1.0000
  H   H86       1.0  0.12398  0.68472  0.48025  1.0000
  H   H87       1.0  0.09353  0.64568  0.47652  1.0000
  H   H88       1.0  0.09398  0.53519  0.47254  1.0000
  H   H89       1.0  0.12460  0.52681  0.47264  1.0000
  H   H90       1.0  0.94517  0.53564  0.33937  1.0000
  H   H91       1.0  0.97196  0.47492  0.47672  1.0000
  H   H92       1.0  0.94175  0.43577  0.48050  1.0000
  H   H93       1.0  0.89978  0.41349  0.45179  1.0000
  H   H94       1.0  0.86796  0.37548  0.45472  1.0000
  H   H95       1.0  0.97371  0.58874  0.47019  1.0000
  H   H96       1.0  0.94292  0.59692  0.46966  1.0000
  H   H97       1.0  0.89914  0.63094  0.41370  1.0000
  H   H98       1.0  0.93218  0.62625  0.40807  1.0000
  H   H99       1.0  0.13453  0.49693  0.42731  1.0000
  H   H100      1.0  0.16729  0.49186  0.43339  1.0000
  C   C130      1.0  0.46269  0.50080  0.33126  1.0000
  C   C131      1.0  0.47449  0.48888  0.33050  1.0000
  C   C132      1.0  0.49800  0.50477  0.33408  1.0000
  N   N5        1.0  0.49955  0.52567  0.33648  1.0000
  C   C133      1.0  0.47871  0.52427  0.33492  1.0000
  C   C134      1.0  0.47319  0.54212  0.33652  1.0000
  C   C135      1.0  0.48955  0.56598  0.33713  1.0000
  N   N6        1.0  0.51271  0.57612  0.33512  1.0000
  C   C136      1.0  0.54683  0.61556  0.33476  1.0000
  C   C137      1.0  0.56459  0.60990  0.33401  1.0000
  N   N7        1.0  0.56305  0.58900  0.33556  1.0000
  C   C138      1.0  0.58389  0.59042  0.33487  1.0000
  C   C139      1.0  0.59991  0.61390  0.33248  1.0000
  C   C140      1.0  0.58810  0.62582  0.33185  1.0000
  C   C141      1.0  0.58941  0.57256  0.33650  1.0000
  C   C142      1.0  0.57304  0.54870  0.33721  1.0000
  N   N8        1.0  0.54988  0.53856  0.33509  1.0000
  C   C143      1.0  0.53964  0.51539  0.33645  1.0000
  C   C144      1.0  0.55743  0.51035  0.33971  1.0000
  C   C145      1.0  0.57798  0.53085  0.34012  1.0000
  C   C146      1.0  0.51576  0.49910  0.33490  1.0000
  C   C147      1.0  0.50929  0.47539  0.33356  1.0000
  C   C148      1.0  0.49944  0.42884  0.33262  1.0000
  C   C149      1.0  0.49828  0.43940  0.41274  1.0000
  C   C150      1.0  0.50323  0.46238  0.41339  1.0000
  C   C151      1.0  0.49588  0.40602  0.33310  1.0000
  C   C152      1.0  0.47712  0.38792  0.37895  1.0000
  C   C153      1.0  0.47416  0.36564  0.38160  1.0000
  C   C154      1.0  0.49011  0.36093  0.33934  1.0000
  C   C155      1.0  0.61308  0.57893  0.33802  1.0000
  C   C156      1.0  0.65979  0.58917  0.34208  1.0000
  C   C157      1.0  0.64789  0.58790  0.42194  1.0000
  C   C158      1.0  0.62489  0.58284  0.42011  1.0000
  C   C159      1.0  0.68288  0.59335  0.34436  1.0000
  C   C160      1.0  0.71225  0.58604  0.40995  1.0000
  C   C161      1.0  0.68973  0.58239  0.40847  1.0000
  C   C162      1.0  0.55331  0.63926  0.33428  1.0000
  C   C163      1.0  0.55753  0.65148  0.41529  1.0000
  C   C164      1.0  0.56259  0.67449  0.41502  1.0000
  C   C165      1.0  0.56349  0.68596  0.33407  1.0000
  C   C166      1.0  0.56746  0.70897  0.33445  1.0000
  C   C167      1.0  0.57375  0.75426  0.34089  1.0000
  C   C168      1.0  0.58754  0.74842  0.39360  1.0000
  C   C169      1.0  0.58437  0.72608  0.39052  1.0000
  C   C170      1.0  0.44952  0.53577  0.33777  1.0000
  C   C171      1.0  0.43765  0.53138  0.41969  1.0000
  C   C172      1.0  0.40296  0.52601  0.34184  1.0000
  C   C173      1.0  0.41473  0.52655  0.42151  1.0000
  C   C174      1.0  0.37999  0.52217  0.34422  1.0000
  C   C175      1.0  0.37328  0.53275  0.41004  1.0000
  C   C176      1.0  0.35092  0.52952  0.41151  1.0000
  H   H101      1.0  0.34707  0.53801  0.45895  1.0000
  H   H102      1.0  0.38484  0.54354  0.45642  1.0000
  H   H103      1.0  0.40669  0.52341  0.48216  1.0000
  H   H104      1.0  0.44573  0.53202  0.47869  1.0000
  H   H105      1.0  0.44521  0.49328  0.32886  1.0000
  H   H106      1.0  0.46686  0.47139  0.32769  1.0000
  H   H107      1.0  0.51382  0.53989  0.34071  1.0000
  H   H108      1.0  0.54876  0.57476  0.33821  1.0000
  H   H109      1.0  0.50663  0.62021  0.34042  1.0000
  H   H110      1.0  0.55643  0.64354  0.47514  1.0000
  H   H111      1.0  0.56478  0.68253  0.47524  1.0000
  H   H112      1.0  0.61740  0.62144  0.33133  1.0000
  H   H113      1.0  0.55600  0.49449  0.34196  1.0000
  H   H114      1.0  0.59381  0.53221  0.34254  1.0000
  H   H115      1.0  0.61673  0.58175  0.47918  1.0000
  H   H116      1.0  0.65590  0.59071  0.48270  1.0000
  H   H117      1.0  0.67818  0.57106  0.45359  1.0000
  H   H118      1.0  0.71619  0.57726  0.45612  1.0000
  H   H119      1.0  0.50291  0.46972  0.47286  1.0000
  H   H120      1.0  0.49468  0.43073  0.47227  1.0000
  H   H121      1.0  0.46060  0.35303  0.41639  1.0000
  H   H122      1.0  0.46533  0.39078  0.41076  1.0000
  H   H123      1.0  0.59462  0.72243  0.42988  1.0000
  H   H124      1.0  0.59965  0.76023  0.43596  1.0000
  C   C177      1.0  0.59068  0.04682  0.33294  1.0000
  C   C178      1.0  0.60261  0.07054  0.33203  1.0000
  C   C179      1.0  0.58673  0.07816  0.33585  1.0000
  N   N9        1.0  0.56583  0.05881  0.33856  1.0000
  C   C180      1.0  0.56722  0.03937  0.33696  1.0000
  C   C181      1.0  0.54936  0.01600  0.33898  1.0000
  C   C182      1.0  0.52550  0.00852  0.33983  1.0000
  N   N10       1.0  0.51537  0.02154  0.33714  1.0000
  C   C183      1.0  0.49219  0.00862  0.33856  1.0000
  C   C184      1.0  0.48715  0.98579  0.34238  1.0000
  C   C185      1.0  0.50764  0.98574  0.34317  1.0000
  C   C186      1.0  0.47590  0.01621  0.33657  1.0000
  C   C187      1.0  0.48160  0.03965  0.33565  1.0000
  N   N11       1.0  0.50250  0.05898  0.33850  1.0000
  C   C188      1.0  0.50111  0.07842  0.33694  1.0000
  C   C189      1.0  0.47765  0.07099  0.33275  1.0000
  C   C190      1.0  0.46572  0.04727  0.33165  1.0000
  C   C191      1.0  0.51897  0.10180  0.33916  1.0000
  C   C192      1.0  0.54283  0.10927  0.34003  1.0000
  N   N12       1.0  0.55296  0.09626  0.33745  1.0000
  C   C193      1.0  0.57613  0.10918  0.33875  1.0000
  C   C194      1.0  0.58118  0.13201  0.34239  1.0000
  C   C195      1.0  0.56068  0.13206  0.34317  1.0000
  C   C196      1.0  0.59242  0.10159  0.33676  1.0000
  C   C197      1.0  0.61613  0.11883  0.33494  1.0000
  C   C198      1.0  0.66267  0.15557  0.33299  1.0000
  C   C199      1.0  0.65220  0.14381  0.41338  1.0000
  C   C200      1.0  0.62923  0.12577  0.41453  1.0000
  C   C201      1.0  0.68549  0.17484  0.33292  1.0000
  C   C202      1.0  0.70365  0.17419  0.37871  1.0000
  C   C203      1.0  0.72593  0.19351  0.38079  1.0000
  C   C204      1.0  0.73059  0.21416  0.33800  1.0000
  C   C205      1.0  0.51261  0.11910  0.34061  1.0000
  C   C206      1.0  0.50233  0.15553  0.34469  1.0000
  C   C207      1.0  0.50355  0.14474  0.42453  1.0000
  C   C208      1.0  0.50862  0.12681  0.42270  1.0000
  C   C209      1.0  0.49813  0.17443  0.34699  1.0000
  C   C210      1.0  0.49070  0.21298  0.34984  1.0000
  C   C211      1.0  0.50539  0.21097  0.41273  1.0000
  C   C212      1.0  0.50906  0.19212  0.41122  1.0000
  C   C213      1.0  0.45219  0.99898  0.33476  1.0000
  C   C214      1.0  0.43905  0.99228  0.41409  1.0000
  C   C215      1.0  0.41602  0.97438  0.41293  1.0000
  C   C216      1.0  0.40552  0.96252  0.33278  1.0000
  C   C217      1.0  0.38260  0.94344  0.33273  1.0000
  C   C218      1.0  0.33725  0.90450  0.33781  1.0000
  C   C219      1.0  0.34213  0.92534  0.37899  1.0000
  C   C220      1.0  0.36453  0.94447  0.37699  1.0000
  C   C221      1.0  0.55570  0.99868  0.34030  1.0000
  C   C222      1.0  0.56011  0.99109  0.42224  1.0000
  C   C223      1.0  0.56545  0.96186  0.34444  1.0000
  C   C224      1.0  0.56493  0.97299  0.42409  1.0000
  C   C225      1.0  0.56927  0.94271  0.34685  1.0000
  C   C226      1.0  0.55870  0.92533  0.41271  1.0000
  C   C227      1.0  0.56191  0.90619  0.41415  1.0000
  C   C228      1.0  0.57576  0.90358  0.34951  1.0000
  H   H125      1.0  0.55343  0.89379  0.46164  1.0000
  H   H126      1.0  0.54792  0.92605  0.45908  1.0000
  H   H127      1.0  0.56807  0.96800  0.48474  1.0000
  H   H128      1.0  0.55949  0.99846  0.48121  1.0000
  H   H129      1.0  0.59819  0.03684  0.33056  1.0000
  H   H130      1.0  0.62010  0.08040  0.32906  1.0000
  H   H131      1.0  0.55162  0.05886  0.34295  1.0000
  H   H132      1.0  0.51671  0.05893  0.34329  1.0000
  H   H133      1.0  0.50900  0.97127  0.34613  1.0000
  H   H134      1.0  0.47129  0.97138  0.34497  1.0000
  H   H135      1.0  0.44632  0.00006  0.47359  1.0000
  H   H136      1.0  0.40724  0.96951  0.47213  1.0000
  H   H137      1.0  0.44823  0.03743  0.32850  1.0000
  H   H138      1.0  0.47014  0.08097  0.33031  1.0000
  H   H139      1.0  0.59704  0.14643  0.34461  1.0000
  H   H140      1.0  0.55932  0.14652  0.34578  1.0000
  H   H141      1.0  0.50966  0.11963  0.48175  1.0000
  H   H142      1.0  0.50069  0.14982  0.48528  1.0000
  H   H143      1.0  0.52039  0.19183  0.45632  1.0000
  H   H144      1.0  0.51418  0.22363  0.45887  1.0000
  H   H145      1.0  0.62197  0.11808  0.47418  1.0000
  H   H146      1.0  0.66095  0.14886  0.47274  1.0000
  H   H147      1.0  0.73858  0.19257  0.41555  1.0000
  H   H148      1.0  0.70083  0.15955  0.41087  1.0000
  H   H149      1.0  0.36751  0.95926  0.40801  1.0000
  H   H150      1.0  0.32955  0.92656  0.41264  1.0000
  C   C229      1.0  0.20703  0.51569  0.34523  1.0000
  C   C230      1.0  0.22500  0.52917  0.40667  1.0000
  C   C231      1.0  0.24493  0.52717  0.40774  1.0000
  C   C232      1.0  0.24753  0.51201  0.34992  1.0000
  C   C233      1.0  0.26830  0.51105  0.35023  1.0000
  C   C234      1.0  0.27752  0.50714  0.42979  1.0000
  C   C235      1.0  0.29915  0.50829  0.42713  1.0000
  C   C236      1.0  0.31195  0.51313  0.34713  1.0000
  H   H151      1.0  0.30556  0.50547  0.48499  1.0000
  H   H152      1.0  0.25804  0.53742  0.45036  1.0000
  N   N13       1.0  0.26483  0.50167  0.51046  1.0000
  N   N14       1.0  0.22472  0.54496  0.46829  1.0000
  O   O1        1.0  0.27575  0.51604  0.57090  1.0000
  O   O2        1.0  0.20847  0.53533  0.52299  1.0000
  O   O3        1.0  0.25971  0.48203  0.53830  1.0000
  O   O4        1.0  0.22367  0.56106  0.42993  1.0000
  C   C237      1.0  0.57577  0.77623  0.34782  1.0000
  C   C238      1.0  0.56228  0.78062  0.40924  1.0000
  C   C239      1.0  0.56426  0.80254  0.41032  1.0000
  C   C240      1.0  0.57943  0.82040  0.35255  1.0000
  C   C241      1.0  0.58038  0.84213  0.35287  1.0000
  C   C242      1.0  0.58428  0.85513  0.43244  1.0000
  C   C243      1.0  0.58312  0.87560  0.42979  1.0000
  C   C244      1.0  0.57829  0.88369  0.34978  1.0000
  H   H153      1.0  0.58594  0.88475  0.48766  1.0000
  H   H154      1.0  0.55401  0.80532  0.45293  1.0000
  N   N15       1.0  0.58974  0.84777  0.51313  1.0000
  N   N16       1.0  0.54649  0.76444  0.47084  1.0000
  O   O5        1.0  0.57536  0.84422  0.57353  1.0000
  O   O6        1.0  0.55612  0.75774  0.52553  1.0000
  O   O7        1.0  0.60938  0.86226  0.54100  1.0000
  O   O8        1.0  0.53040  0.74736  0.43245  1.0000
  C   C245      1.0  0.31514  0.88464  0.34463  1.0000
  C   C246      1.0  0.31139  0.86575  0.39916  1.0000
  C   C247      1.0  0.28935  0.84583  0.40075  1.0000
  C   C248      1.0  0.27091  0.84425  0.34940  1.0000
  C   C249      1.0  0.24915  0.82357  0.34963  1.0000
  C   C250      1.0  0.23680  0.81374  0.42994  1.0000
  C   C251      1.0  0.21633  0.79211  0.42703  1.0000
  C   C252      1.0  0.20770  0.77985  0.34613  1.0000
  H   H155      1.0  0.20763  0.78528  0.48546  1.0000
  H   H156      1.0  0.28695  0.83213  0.43888  1.0000
  N   N17       1.0  0.24485  0.82585  0.51163  1.0000
  N   N18       1.0  0.32964  0.86722  0.45179  1.0000
  O   O9        1.0  0.24894  0.81452  0.56843  1.0000
  O   O10       1.0  0.32494  0.86551  0.53376  1.0000
  O   O11       1.0  0.23059  0.83068  0.54428  1.0000
  O   O12       1.0  0.33426  0.85188  0.43117  1.0000
  C   C253      1.0  0.85736  0.60327  0.34424  1.0000
  C   C254      1.0  0.83870  0.58793  0.39894  1.0000
  C   C255      1.0  0.81855  0.58963  0.40101  1.0000
  C   C256      1.0  0.81652  0.60628  0.34996  1.0000
  C   C257      1.0  0.79560  0.60691  0.35056  1.0000
  C   C258      1.0  0.78573  0.60917  0.43108  1.0000
  C   C259      1.0  0.76391  0.60760  0.42846  1.0000
  C   C260      1.0  0.75151  0.60383  0.34764  1.0000
  H   H157      1.0  0.75704  0.60927  0.48703  1.0000
  H   H158      1.0  0.80501  0.57816  0.43922  1.0000
  N   N19       1.0  0.79796  0.61338  0.51270  1.0000
  N   N20       1.0  0.84061  0.57133  0.45117  1.0000
  O   O13       1.0  0.78689  0.59785  0.56929  1.0000
  O   O14       1.0  0.83898  0.57424  0.53324  1.0000
  O   O15       1.0  0.80251  0.63236  0.54574  1.0000
  O   O16       1.0  0.82548  0.55127  0.43046  1.0000
  C   C261      1.0  0.48823  0.33899  0.34679  1.0000
  C   C262      1.0  0.50355  0.33557  0.40158  1.0000
  C   C263      1.0  0.50183  0.31370  0.40368  1.0000
  C   C264      1.0  0.48519  0.29511  0.35258  1.0000
  C   C265      1.0  0.48455  0.27356  0.35318  1.0000
  C   C266      1.0  0.48227  0.26129  0.43370  1.0000
  C   C267      1.0  0.48384  0.24105  0.43109  1.0000
  C   C268      1.0  0.48763  0.23256  0.35029  1.0000
  H   H159      1.0  0.48215  0.23241  0.48966  1.0000
  H   H160      1.0  0.51328  0.31157  0.44194  1.0000
  N   N21       1.0  0.47804  0.26919  0.51530  1.0000
  N   N22       1.0  0.52013  0.35399  0.45385  1.0000
  O   O17       1.0  0.49355  0.27355  0.57195  1.0000
  O   O18       1.0  0.51720  0.34931  0.53591  1.0000
  O   O19       1.0  0.45905  0.25470  0.54826  1.0000
  O   O20       1.0  0.54020  0.35894  0.43322  1.0000
  C   C269      1.0  0.75253  0.23423  0.34495  1.0000
  C   C270      1.0  0.75600  0.25294  0.39953  1.0000
  C   C271      1.0  0.77787  0.27309  0.40115  1.0000
  C   C272      1.0  0.79640  0.27509  0.34978  1.0000
  C   C273      1.0  0.81796  0.29600  0.35001  1.0000
  C   C274      1.0  0.83030  0.30593  0.43033  1.0000
  C   C275      1.0  0.85054  0.32775  0.42738  1.0000
  C   C276      1.0  0.85896  0.34010  0.34642  1.0000
  H   H161      1.0  0.85923  0.33466  0.48582  1.0000
  H   H162      1.0  0.78004  0.28666  0.43928  1.0000
  N   N23       1.0  0.82248  0.29374  0.51210  1.0000
  N   N24       1.0  0.73764  0.25106  0.45205  1.0000
  O   O21       1.0  0.81817  0.30485  0.56873  1.0000
  O   O22       1.0  0.74241  0.25277  0.53404  1.0000
  O   O23       1.0  0.83700  0.28922  0.54492  1.0000
  O   O24       1.0  0.73265  0.26617  0.43136  1.0000
