data_image0
_chemical_formula_structural       H2C3NC3NC5NC4NC35H23C21H18C16H16NCHNCHNC2HNCHNCHNC2HC18H17C3NC3NC2NC5NC34H24C3NC3NC5NC5NC36H26C2NC2O2CH3C2NC2O2CH3CNC2O2CH3C2NC2O2CH3C2NC2O2CH3CNC2O2CH3
_chemical_formula_sum              "H150 C240 N24 O12"
_cell_length_a       58.573
_cell_length_b       58.573
_cell_length_c       14.976
_cell_angle_alpha    89.7732
_cell_angle_beta     90.2268
_cell_angle_gamma    120

_space_group_name_H-M_alt    "P 1"
_space_group_IT_number       1

loop_
  _space_group_symop_operation_xyz
  'x, y, z'

loop_
  _atom_site_type_symbol
  _atom_site_label
  _atom_site_symmetry_multiplicity
  _atom_site_fract_x
  _atom_site_fract_y
  _atom_site_fract_z
  _atom_site_occupancy
  H   H1        1.0  0.00841  0.46569  0.33787  1.0000
  H   H2        1.0  0.00851  0.63829  0.33598  1.0000
  C   C1        1.0  0.01981  0.48578  0.33712  1.0000
  C   C2        1.0  0.04703  0.49937  0.33595  1.0000
  C   C3        1.0  0.05567  0.52635  0.33500  1.0000
  N   N1        1.0  0.03344  0.52809  0.33544  1.0000
  C   C4        1.0  0.01120  0.50414  0.33669  1.0000
  C   C5        1.0  0.98437  0.49779  0.33718  1.0000
  C   C6        1.0  0.97568  0.51650  0.33609  1.0000
  N   N2        1.0  0.99059  0.54308  0.33544  1.0000
  C   C7        1.0  0.97569  0.55475  0.33441  1.0000
  C   C8        1.0  0.94949  0.53432  0.33421  1.0000
  C   C9        1.0  0.94948  0.51076  0.33556  1.0000
  C   C10       1.0  0.98440  0.58216  0.33387  1.0000
  C   C11       1.0  0.01125  0.60259  0.33487  1.0000
  N   N3        1.0  0.03347  0.60085  0.33538  1.0000
  C   C12       1.0  0.05571  0.62480  0.33675  1.0000
  C   C13       1.0  0.04711  0.64316  0.33715  1.0000
  C   C14       1.0  0.01989  0.62957  0.33586  1.0000
  C   C15       1.0  0.08254  0.63115  0.33737  1.0000
  N   N4        1.0  0.07632  0.58587  0.33568  1.0000
  C   C16       1.0  0.09122  0.57419  0.33466  1.0000
  C   C17       1.0  0.11742  0.59464  0.33447  1.0000
  C   C18       1.0  0.11743  0.61820  0.33582  1.0000
  C   C19       1.0  0.08251  0.54679  0.33412  1.0000
  C   C20       1.0  0.10229  0.53943  0.33250  1.0000
  C   C21       1.0  0.11159  0.53555  0.25039  1.0000
  C   C22       1.0  0.13246  0.53017  0.24848  1.0000
  C   C23       1.0  0.14467  0.52856  0.32830  1.0000
  C   C24       1.0  0.16697  0.52478  0.32605  1.0000
  C   C25       1.0  0.21029  0.53622  0.26468  1.0000
  C   C26       1.0  0.18772  0.53888  0.26466  1.0000
  C   C27       1.0  0.10233  0.65829  0.33976  1.0000
  C   C28       1.0  0.11348  0.67230  0.25993  1.0000
  C   C29       1.0  0.13410  0.69867  0.26276  1.0000
  C   C30       1.0  0.14421  0.71172  0.34520  1.0000
  C   C31       1.0  0.16610  0.73803  0.34798  1.0000
  C   C32       1.0  0.16777  0.75782  0.28924  1.0000
  C   C33       1.0  0.18985  0.78342  0.29009  1.0000
  C   C34       1.0  0.21083  0.79018  0.35065  1.0000
  C   C35       1.0  0.96463  0.58954  0.33227  1.0000
  C   C36       1.0  0.92268  0.60104  0.32823  1.0000
  C   C37       1.0  0.93461  0.59930  0.24836  1.0000
  C   C38       1.0  0.95528  0.59362  0.25018  1.0000
  C   C39       1.0  0.90067  0.60531  0.32609  1.0000
  C   C40       1.0  0.87976  0.59159  0.26474  1.0000
  C   C41       1.0  0.85751  0.59481  0.26473  1.0000
  C   C42       1.0  0.85519  0.61185  0.32618  1.0000
  C   C43       1.0  0.96457  0.47066  0.33954  1.0000
  C   C44       1.0  0.95315  0.45682  0.25974  1.0000
  C   C45       1.0  0.93231  0.43056  0.26259  1.0000
  C   C46       1.0  0.92223  0.41744  0.34504  1.0000
  C   C47       1.0  0.90002  0.39132  0.34788  1.0000
  C   C48       1.0  0.85459  0.33962  0.35045  1.0000
  C   C49       1.0  0.87537  0.34606  0.28976  1.0000
  C   C50       1.0  0.89779  0.37145  0.28895  1.0000
  H   H3        1.0  0.87443  0.33225  0.24591  1.0000
  H   H4        1.0  0.91258  0.37524  0.24482  1.0000
  H   H5        1.0  0.92387  0.42145  0.20355  1.0000
  H   H6        1.0  0.95947  0.46598  0.19916  1.0000
  H   H7        1.0  0.05840  0.49066  0.33610  1.0000
  H   H8        1.0  0.03345  0.54448  0.33469  1.0000
  H   H9        1.0  0.03346  0.58446  0.33461  1.0000
  H   H10       1.0  0.93289  0.49256  0.33579  1.0000
  H   H11       1.0  0.93291  0.53594  0.33354  1.0000
  H   H12       1.0  0.96316  0.59207  0.19118  1.0000
  H   H13       1.0  0.92829  0.60209  0.18764  1.0000
  H   H14       1.0  0.05850  0.66325  0.33800  1.0000
  H   H15       1.0  0.13402  0.63640  0.33604  1.0000
  H   H16       1.0  0.10708  0.66323  0.19935  1.0000
  H   H17       1.0  0.14232  0.70794  0.20369  1.0000
  H   H18       1.0  0.19040  0.79718  0.24640  1.0000
  H   H19       1.0  0.15282  0.75380  0.24523  1.0000
  H   H20       1.0  0.18710  0.55211  0.22128  1.0000
  H   H21       1.0  0.22515  0.54770  0.22141  1.0000
  H   H22       1.0  0.13877  0.52758  0.18774  1.0000
  H   H23       1.0  0.10356  0.53710  0.19141  1.0000
  H   H24       1.0  0.88003  0.57829  0.22129  1.0000
  H   H25       1.0  0.84250  0.58359  0.22146  1.0000
  C   C51       1.0  0.54491  0.51992  0.33709  1.0000
  C   C52       1.0  0.56535  0.51416  0.33691  1.0000
  C   C53       1.0  0.58890  0.53771  0.33821  1.0000
  C   C54       1.0  0.56414  0.67521  0.25320  1.0000
  C   C55       1.0  0.56951  0.70145  0.25131  1.0000
  C   C56       1.0  0.56352  0.77324  0.26733  1.0000
  C   C57       1.0  0.56082  0.74799  0.26738  1.0000
  C   C58       1.0  0.42743  0.54034  0.26198  1.0000
  C   C59       1.0  0.40106  0.53458  0.26448  1.0000
  C   C60       1.0  0.34188  0.50900  0.29013  1.0000
  C   C61       1.0  0.31627  0.50547  0.29058  1.0000
  C   C62       1.0  0.30944  0.51954  0.35102  1.0000
  C   C63       1.0  0.50051  0.43452  0.25089  1.0000
  C   C64       1.0  0.50617  0.46086  0.25276  1.0000
  C   C65       1.0  0.50826  0.38737  0.26762  1.0000
  C   C66       1.0  0.50505  0.36191  0.26758  1.0000
  C   C67       1.0  0.64276  0.59543  0.26188  1.0000
  C   C68       1.0  0.66903  0.60084  0.26447  1.0000
  C   C69       1.0  0.76002  0.61385  0.35113  1.0000
  C   C70       1.0  0.75352  0.62831  0.29060  1.0000
  C   C71       1.0  0.72816  0.62538  0.29017  1.0000
  H   H26       1.0  0.76729  0.64123  0.24656  1.0000
  H   H27       1.0  0.72432  0.63645  0.24610  1.0000
  H   H28       1.0  0.67809  0.60163  0.20534  1.0000
  H   H29       1.0  0.63355  0.59270  0.20140  1.0000
  H   H30       1.0  0.60710  0.53931  0.33849  1.0000
  H   H31       1.0  0.50782  0.47046  0.19376  1.0000
  H   H32       1.0  0.49782  0.42557  0.19016  1.0000
  H   H33       1.0  0.46137  0.46919  0.33829  1.0000
  H   H34       1.0  0.43657  0.54316  0.20151  1.0000
  H   H35       1.0  0.39184  0.53365  0.20530  1.0000
  H   H36       1.0  0.30258  0.49239  0.24664  1.0000
  H   H37       1.0  0.34595  0.49818  0.24619  1.0000
  H   H38       1.0  0.54762  0.73425  0.22389  1.0000
  H   H39       1.0  0.55203  0.77670  0.22405  1.0000
  H   H40       1.0  0.57213  0.71050  0.19058  1.0000
  H   H41       1.0  0.56258  0.66575  0.19422  1.0000
  H   H42       1.0  0.52163  0.40107  0.22440  1.0000
  H   H43       1.0  0.51634  0.35824  0.22451  1.0000
  C   C72       1.0  0.42460  0.98817  0.25450  1.0000
  C   C73       1.0  0.39836  0.96730  0.25209  1.0000
  C   C74       1.0  0.32658  0.88946  0.26664  1.0000
  C   C75       1.0  0.35182  0.91202  0.26718  1.0000
  C   C76       1.0  0.55943  0.98628  0.26465  1.0000
  C   C77       1.0  0.56520  0.96567  0.26719  1.0000
  C   C78       1.0  0.59074  0.93200  0.29317  1.0000
  C   C79       1.0  0.59427  0.90992  0.29363  1.0000
  C   C80       1.0  0.66502  0.16503  0.25175  1.0000
  C   C81       1.0  0.63868  0.14436  0.25412  1.0000
  C   C82       1.0  0.71222  0.21989  0.26728  1.0000
  C   C83       1.0  0.73768  0.24213  0.26671  1.0000
  C   C84       1.0  0.50424  0.14647  0.26430  1.0000
  C   C85       1.0  0.49879  0.16730  0.26687  1.0000
  C   C86       1.0  0.47130  0.22425  0.29287  1.0000
  C   C87       1.0  0.47424  0.20182  0.29246  1.0000
  H   H44       1.0  0.45839  0.22519  0.24878  1.0000
  H   H45       1.0  0.46319  0.18702  0.24834  1.0000
  H   H46       1.0  0.49805  0.17572  0.20774  1.0000
  H   H47       1.0  0.50698  0.14012  0.20382  1.0000
  H   H48       1.0  0.62901  0.13644  0.19531  1.0000
  H   H49       1.0  0.67389  0.17132  0.19084  1.0000
  H   H50       1.0  0.55667  0.99275  0.20415  1.0000
  H   H51       1.0  0.56615  0.95752  0.20802  1.0000
  H   H52       1.0  0.60740  0.90943  0.24987  1.0000
  H   H53       1.0  0.60161  0.94701  0.24938  1.0000
  H   H54       1.0  0.36564  0.91270  0.22392  1.0000
  H   H55       1.0  0.32318  0.87466  0.22318  1.0000
  H   H56       1.0  0.38941  0.96107  0.19118  1.0000
  H   H57       1.0  0.43415  0.99626  0.19570  1.0000
  H   H58       1.0  0.69845  0.21962  0.22432  1.0000
  H   H59       1.0  0.74128  0.25714  0.22356  1.0000
  N   N5        1.0  0.27573  0.52116  0.26795  1.0000
  C   C88       1.0  0.25295  0.52146  0.25587  1.0000
  H   H60       1.0  0.24815  0.52449  0.19304  1.0000
  N   N6        1.0  0.57860  0.85374  0.27075  1.0000
  C   C89       1.0  0.57831  0.83068  0.25868  1.0000
  H   H61       1.0  0.57534  0.82301  0.19582  1.0000
  N   N7        1.0  0.24608  0.82403  0.26827  1.0000
  C   C90       1.0  0.26915  0.84684  0.25671  1.0000
  C   C91       1.0  0.28181  0.86302  0.33131  1.0000
  H   H62       1.0  0.27693  0.85174  0.19402  1.0000
  N   N8        1.0  0.79323  0.61162  0.26797  1.0000
  C   C92       1.0  0.81573  0.61081  0.25590  1.0000
  H   H63       1.0  0.82037  0.60782  0.19303  1.0000
  N   N9        1.0  0.48821  0.28080  0.27043  1.0000
  C   C93       1.0  0.48908  0.30416  0.25839  1.0000
  H   H64       1.0  0.49227  0.31201  0.19561  1.0000
  N   N10       1.0  0.81879  0.30640  0.26808  1.0000
  C   C94       1.0  0.79542  0.28391  0.25652  1.0000
  C   C95       1.0  0.78267  0.26769  0.33106  1.0000
  H   H65       1.0  0.78749  0.27927  0.19387  1.0000
  C   C96       1.0  0.09123  0.61245  0.33633  1.0000
  C   C97       1.0  0.13483  0.53203  0.41038  1.0000
  C   C98       1.0  0.11399  0.53746  0.41257  1.0000
  C   C99       1.0  0.16965  0.50776  0.38709  1.0000
  C   C100      1.0  0.19230  0.50517  0.38732  1.0000
  C   C101      1.0  0.21310  0.51933  0.32610  1.0000
  C   C102      1.0  0.13259  0.69753  0.42481  1.0000
  C   C103      1.0  0.11195  0.67119  0.42228  1.0000
  C   C104      1.0  0.20938  0.77044  0.40883  1.0000
  C   C105      1.0  0.18733  0.74486  0.40779  1.0000
  C   C106      1.0  0.95318  0.59159  0.41239  1.0000
  C   C107      1.0  0.93254  0.59732  0.41027  1.0000
  C   C108      1.0  0.87616  0.62562  0.38739  1.0000
  C   C109      1.0  0.89848  0.62250  0.38713  1.0000
  C   C110      1.0  0.95501  0.45767  0.42207  1.0000
  C   C111      1.0  0.93415  0.43142  0.42462  1.0000
  C   C112      1.0  0.87897  0.38480  0.40779  1.0000
  C   C113      1.0  0.85660  0.35944  0.40883  1.0000
  H   H66       1.0  0.84147  0.35579  0.45121  1.0000
  H   H67       1.0  0.87930  0.39876  0.44950  1.0000
  H   H68       1.0  0.92766  0.42263  0.48561  1.0000
  H   H69       1.0  0.96285  0.46737  0.48083  1.0000
  H   H70       1.0  0.95939  0.58835  0.47266  1.0000
  H   H71       1.0  0.92409  0.59772  0.46947  1.0000
  H   H72       1.0  0.13401  0.59303  0.33383  1.0000
  H   H73       1.0  0.10427  0.66137  0.48105  1.0000
  H   H74       1.0  0.13910  0.70627  0.48579  1.0000
  H   H75       1.0  0.18740  0.73099  0.44936  1.0000
  H   H76       1.0  0.22466  0.77433  0.45114  1.0000
  H   H77       1.0  0.10786  0.54062  0.47284  1.0000
  H   H78       1.0  0.14349  0.53175  0.46953  1.0000
  H   H79       1.0  0.19336  0.49268  0.43295  1.0000
  H   H80       1.0  0.15506  0.49698  0.43220  1.0000
  H   H81       1.0  0.91323  0.63303  0.43219  1.0000
  H   H82       1.0  0.87545  0.63822  0.43301  1.0000
  C   C114      1.0  0.61386  0.63301  0.33964  1.0000
  C   C115      1.0  0.60027  0.64663  0.33856  1.0000
  C   C116      1.0  0.57329  0.62830  0.33771  1.0000
  N   N11       1.0  0.57156  0.60433  0.33813  1.0000
  C   C117      1.0  0.59550  0.60604  0.33928  1.0000
  C   C118      1.0  0.60186  0.58556  0.33971  1.0000
  C   C119      1.0  0.58316  0.55816  0.33869  1.0000
  N   N12       1.0  0.55658  0.54650  0.33807  1.0000
  C   C120      1.0  0.51751  0.50123  0.33656  1.0000
  C   C121      1.0  0.49706  0.50762  0.33751  1.0000
  N   N13       1.0  0.49880  0.53159  0.33810  1.0000
  C   C122      1.0  0.47486  0.52988  0.33930  1.0000
  C   C123      1.0  0.45650  0.50291  0.33951  1.0000
  C   C124      1.0  0.47009  0.48929  0.33829  1.0000
  C   C125      1.0  0.46850  0.55035  0.33991  1.0000
  C   C126      1.0  0.48719  0.57775  0.33898  1.0000
  N   N14       1.0  0.51377  0.58942  0.33839  1.0000
  C   C127      1.0  0.52545  0.61599  0.33743  1.0000
  C   C128      1.0  0.50500  0.62175  0.33725  1.0000
  C   C129      1.0  0.48144  0.59819  0.33850  1.0000
  C   C130      1.0  0.55285  0.63469  0.33689  1.0000
  C   C131      1.0  0.56021  0.66184  0.33531  1.0000
  C   C132      1.0  0.57109  0.71510  0.33112  1.0000
  C   C133      1.0  0.56755  0.70160  0.41318  1.0000
  C   C134      1.0  0.56216  0.67534  0.41538  1.0000
  C   C135      1.0  0.57487  0.74119  0.32889  1.0000
  C   C136      1.0  0.59186  0.76076  0.39006  1.0000
  C   C137      1.0  0.59445  0.78599  0.39031  1.0000
  C   C138      1.0  0.58034  0.79278  0.32894  1.0000
  C   C139      1.0  0.44136  0.54299  0.34198  1.0000
  C   C140      1.0  0.38790  0.53139  0.34675  1.0000
  C   C141      1.0  0.40200  0.53375  0.42654  1.0000
  C   C142      1.0  0.42836  0.53948  0.42434  1.0000
  C   C143      1.0  0.36159  0.52695  0.34920  1.0000
  C   C144      1.0  0.32909  0.53765  0.40954  1.0000
  C   C145      1.0  0.35468  0.54119  0.40888  1.0000
  C   C146      1.0  0.51012  0.47408  0.33489  1.0000
  C   C147      1.0  0.50795  0.46037  0.41501  1.0000
  C   C148      1.0  0.50225  0.43401  0.41284  1.0000
  C   C149      1.0  0.49865  0.42064  0.33078  1.0000
  C   C150      1.0  0.49442  0.39439  0.32863  1.0000
  C   C151      1.0  0.48787  0.34236  0.32861  1.0000
  C   C152      1.0  0.47400  0.34938  0.38952  1.0000
  C   C153      1.0  0.47711  0.37483  0.38930  1.0000
  C   C154      1.0  0.62900  0.59289  0.34183  1.0000
  C   C155      1.0  0.64206  0.59620  0.42422  1.0000
  C   C156      1.0  0.68222  0.60376  0.34679  1.0000
  C   C157      1.0  0.66831  0.60157  0.42651  1.0000
  C   C158      1.0  0.70834  0.60766  0.34934  1.0000
  C   C159      1.0  0.71491  0.59303  0.40915  1.0000
  C   C160      1.0  0.74025  0.59597  0.40980  1.0000
  H   H83       1.0  0.74392  0.58439  0.45206  1.0000
  H   H84       1.0  0.70099  0.57933  0.45102  1.0000
  H   H85       1.0  0.67714  0.60376  0.48741  1.0000
  H   H86       1.0  0.63240  0.59422  0.48309  1.0000
  H   H87       1.0  0.63395  0.64169  0.34031  1.0000
  H   H88       1.0  0.60898  0.66673  0.33869  1.0000
  H   H89       1.0  0.55517  0.58795  0.33745  1.0000
  H   H90       1.0  0.51519  0.54797  0.33755  1.0000
  H   H91       1.0  0.56373  0.49596  0.33636  1.0000
  H   H92       1.0  0.51113  0.46968  0.47530  1.0000
  H   H93       1.0  0.50177  0.42501  0.47206  1.0000
  H   H94       1.0  0.43641  0.49422  0.34021  1.0000
  H   H95       1.0  0.50660  0.63995  0.33660  1.0000
  H   H96       1.0  0.46324  0.59658  0.33868  1.0000
  H   H97       1.0  0.43812  0.54146  0.48323  1.0000
  H   H98       1.0  0.39320  0.53135  0.48741  1.0000
  H   H99       1.0  0.36848  0.55499  0.45077  1.0000
  H   H100      1.0  0.32514  0.54892  0.45183  1.0000
  H   H101      1.0  0.55895  0.66591  0.47564  1.0000
  H   H102      1.0  0.56783  0.71042  0.47234  1.0000
  H   H103      1.0  0.60690  0.79943  0.43606  1.0000
  H   H104      1.0  0.60260  0.75683  0.43527  1.0000
  H   H105      1.0  0.46649  0.37891  0.43411  1.0000
  H   H106      1.0  0.46131  0.33594  0.43486  1.0000
  C   C161      1.0  0.46665  0.07983  0.34182  1.0000
  C   C162      1.0  0.45303  0.05261  0.34059  1.0000
  C   C163      1.0  0.47137  0.04397  0.33984  1.0000
  N   N15       1.0  0.49533  0.06620  0.34048  1.0000
  C   C164      1.0  0.49363  0.08844  0.34163  1.0000
  C   C165      1.0  0.51410  0.11528  0.34215  1.0000
  C   C166      1.0  0.54149  0.12397  0.34109  1.0000
  N   N16       1.0  0.55316  0.10907  0.34042  1.0000
  C   C167      1.0  0.57974  0.12397  0.33928  1.0000
  C   C168      1.0  0.58549  0.15017  0.33904  1.0000
  C   C169      1.0  0.56194  0.15017  0.34053  1.0000
  C   C170      1.0  0.59843  0.11527  0.33863  1.0000
  C   C171      1.0  0.59204  0.08843  0.33974  1.0000
  N   N17       1.0  0.56808  0.06620  0.34053  1.0000
  C   C172      1.0  0.56979  0.04396  0.34181  1.0000
  C   C173      1.0  0.59676  0.05258  0.34199  1.0000
  C   C174      1.0  0.61038  0.07979  0.34056  1.0000
  C   C175      1.0  0.54932  0.01713  0.34247  1.0000
  C   C176      1.0  0.52193  0.00843  0.34144  1.0000
  N   N18       1.0  0.51026  0.02334  0.34076  1.0000
  C   C177      1.0  0.48368  0.00844  0.33962  1.0000
  C   C178      1.0  0.47793  0.98223  0.33940  1.0000
  C   C179      1.0  0.50148  0.98223  0.34083  1.0000
  C   C180      1.0  0.46498  0.01714  0.33891  1.0000
  C   C181      1.0  0.43783  0.99735  0.33685  1.0000
  C   C182      1.0  0.38459  0.95498  0.33163  1.0000
  C   C183      1.0  0.39796  0.96469  0.41395  1.0000
  C   C184      1.0  0.42422  0.98555  0.41666  1.0000
  C   C185      1.0  0.35851  0.93268  0.32885  1.0000
  C   C186      1.0  0.33883  0.92991  0.38967  1.0000
  C   C187      1.0  0.31361  0.90727  0.38938  1.0000
  C   C188      1.0  0.30692  0.88655  0.32783  1.0000
  C   C189      1.0  0.55669  0.99735  0.34462  1.0000
  C   C190      1.0  0.56827  0.95548  0.34949  1.0000
  C   C191      1.0  0.56583  0.96701  0.42926  1.0000
  C   C192      1.0  0.56010  0.98764  0.42701  1.0000
  C   C193      1.0  0.57271  0.93359  0.35197  1.0000
  C   C194      1.0  0.58013  0.88886  0.35384  1.0000
  C   C195      1.0  0.56195  0.89024  0.41217  1.0000
  C   C196      1.0  0.55841  0.91228  0.41149  1.0000
  C   C197      1.0  0.62558  0.13504  0.33649  1.0000
  C   C198      1.0  0.63940  0.14653  0.41634  1.0000
  C   C199      1.0  0.66575  0.16719  0.41366  1.0000
  C   C200      1.0  0.67901  0.17700  0.33134  1.0000
  C   C201      1.0  0.70527  0.19900  0.32865  1.0000
  C   C202      1.0  0.75730  0.24448  0.32758  1.0000
  C   C203      1.0  0.75036  0.22354  0.38882  1.0000
  C   C204      1.0  0.72491  0.20122  0.38912  1.0000
  C   C205      1.0  0.50676  0.13507  0.34425  1.0000
  C   C206      1.0  0.50342  0.14465  0.42663  1.0000
  C   C207      1.0  0.49586  0.17740  0.34917  1.0000
  C   C208      1.0  0.49804  0.16551  0.42890  1.0000
  C   C209      1.0  0.49195  0.19961  0.35170  1.0000
  C   C210      1.0  0.50654  0.22068  0.41161  1.0000
  C   C211      1.0  0.50360  0.24308  0.41219  1.0000
  C   C212      1.0  0.48573  0.24507  0.35346  1.0000
  H   H107      1.0  0.51513  0.25822  0.45457  1.0000
  H   H108      1.0  0.52023  0.22037  0.45353  1.0000
  H   H109      1.0  0.49584  0.17203  0.48980  1.0000
  H   H110      1.0  0.50538  0.13684  0.48550  1.0000
  H   H111      1.0  0.45796  0.09123  0.34243  1.0000
  H   H112      1.0  0.43294  0.04123  0.34056  1.0000
  H   H113      1.0  0.51172  0.06620  0.33994  1.0000
  H   H114      1.0  0.55169  0.06620  0.33993  1.0000
  H   H115      1.0  0.56034  0.16677  0.34072  1.0000
  H   H116      1.0  0.60369  0.16676  0.33835  1.0000
  H   H117      1.0  0.63018  0.14036  0.47680  1.0000
  H   H118      1.0  0.67484  0.17567  0.47269  1.0000
  H   H119      1.0  0.63047  0.09117  0.34042  1.0000
  H   H120      1.0  0.60546  0.04118  0.34265  1.0000
  H   H121      1.0  0.45973  0.96564  0.33859  1.0000
  H   H122      1.0  0.50310  0.96564  0.34098  1.0000
  H   H123      1.0  0.55806  0.99526  0.48588  1.0000
  H   H124      1.0  0.56815  0.96043  0.49015  1.0000
  H   H125      1.0  0.54453  0.91216  0.45309  1.0000
  H   H126      1.0  0.55061  0.87489  0.45420  1.0000
  H   H127      1.0  0.43355  0.99160  0.47709  1.0000
  H   H128      1.0  0.38904  0.95598  0.47292  1.0000
  H   H129      1.0  0.30008  0.90613  0.43486  1.0000
  H   H130      1.0  0.34268  0.94444  0.43499  1.0000
  H   H131      1.0  0.72088  0.18650  0.43417  1.0000
  H   H132      1.0  0.76385  0.22427  0.43404  1.0000
  C   C213      1.0  0.28409  0.51712  0.34824  1.0000
  C   C214      1.0  0.23664  0.51775  0.33012  1.0000
  N   N19       1.0  0.24492  0.51320  0.40982  1.0000
  C   C215      1.0  0.26765  0.51264  0.42350  1.0000
  C   C216      1.0  0.27307  0.50663  0.50769  1.0000
  O   O1        1.0  0.26365  0.51217  0.57129  1.0000
  O   O2        1.0  0.27295  0.48376  0.51411  1.0000
  C   C217      1.0  0.29243  0.48423  0.57417  1.0000
  H   H133      1.0  0.29106  0.46499  0.57180  1.0000
  H   H134      1.0  0.28885  0.48780  0.64292  1.0000
  H   H135      1.0  0.31239  0.49908  0.55466  1.0000
  C   C218      1.0  0.58255  0.86593  0.35107  1.0000
  C   C219      1.0  0.58191  0.81788  0.33299  1.0000
  N   N20       1.0  0.58637  0.83051  0.41275  1.0000
  C   C220      1.0  0.58694  0.85378  0.42639  1.0000
  C   C221      1.0  0.59279  0.86490  0.51067  1.0000
  O   O3        1.0  0.58747  0.85003  0.57476  1.0000
  O   O4        1.0  0.61599  0.88736  0.51684  1.0000
  C   C222      1.0  0.61587  0.90679  0.57514  1.0000
  H   H136      1.0  0.63537  0.92434  0.57290  1.0000
  H   H137      1.0  0.61188  0.89979  0.64417  1.0000
  H   H138      1.0  0.60149  0.91238  0.55380  1.0000
  C   C223      1.0  0.23375  0.81554  0.34836  1.0000
  N   N21       1.0  0.26905  0.85461  0.41080  1.0000
  C   C224      1.0  0.24576  0.83185  0.42394  1.0000
  C   C225      1.0  0.23447  0.82632  0.50798  1.0000
  O   O5        1.0  0.24921  0.83572  0.57238  1.0000
  O   O6        1.0  0.21197  0.82699  0.51362  1.0000
  C   C226      1.0  0.19246  0.80726  0.57151  1.0000
  H   H139      1.0  0.17488  0.80916  0.56885  1.0000
  H   H140      1.0  0.19932  0.81008  0.64071  1.0000
  H   H141      1.0  0.18695  0.78735  0.55010  1.0000
  C   C227      1.0  0.78510  0.61565  0.34833  1.0000
  C   C228      1.0  0.83198  0.61398  0.33021  1.0000
  N   N22       1.0  0.82394  0.61853  0.41000  1.0000
  C   C229      1.0  0.80149  0.61957  0.42366  1.0000
  C   C230      1.0  0.79629  0.62547  0.50805  1.0000
  O   O7        1.0  0.80516  0.61912  0.57160  1.0000
  O   O8        1.0  0.79810  0.64914  0.51366  1.0000
  C   C231      1.0  0.77901  0.64988  0.57199  1.0000
  H   H142      1.0  0.78179  0.66972  0.56959  1.0000
  H   H143      1.0  0.78175  0.64563  0.64107  1.0000
  H   H144      1.0  0.75885  0.63610  0.55078  1.0000
  C   C232      1.0  0.48393  0.26836  0.35065  1.0000
  C   C233      1.0  0.48573  0.31700  0.33258  1.0000
  N   N23       1.0  0.48092  0.30412  0.41219  1.0000
  C   C234      1.0  0.47979  0.28055  0.42587  1.0000
  C   C235      1.0  0.47359  0.26914  0.50998  1.0000
  O   O9        1.0  0.47928  0.28414  0.57364  1.0000
  O   O10       1.0  0.45056  0.24656  0.51596  1.0000
  C   C236      1.0  0.45067  0.22746  0.57652  1.0000
  H   H145      1.0  0.43133  0.20971  0.57363  1.0000
  H   H146      1.0  0.45417  0.23466  0.64525  1.0000
  H   H147      1.0  0.46540  0.22213  0.55790  1.0000
  C   C237      1.0  0.83133  0.31452  0.34810  1.0000
  N   N24       1.0  0.79564  0.27572  0.41048  1.0000
  C   C238      1.0  0.81923  0.29814  0.42362  1.0000
  C   C239      1.0  0.83065  0.30330  0.50762  1.0000
  O   O11       1.0  0.81599  0.29388  0.57204  1.0000
  O   O12       1.0  0.85300  0.30230  0.51288  1.0000
  C   C240      1.0  0.87270  0.32165  0.57129  1.0000
  H   H148      1.0  0.89014  0.31953  0.56816  1.0000
  H   H149      1.0  0.86591  0.31856  0.64049  1.0000
  H   H150      1.0  0.87839  0.34171  0.55076  1.0000
