data_image0
_chemical_formula_structural       CNC2NC4NC18H14C2NC16H12C3NC2NC5NC4NC18H14CNC16H12C11H11CNCNC4NC16H13C2H2C2H2C2H2C2H2C2H2C2H2C2H2C2H2C2H2C2H2C2H2C2H2C2H2C2H2C2H2C2H2C2H2C2H2C2H2C2H2C2H2C2H2C2H2C2H2C7NC12H12C2NC3NC3NC18H14C12H12C3NC3NC3NC18H14C3NC3NC2NC5NC20H15C8NC14H13C8H3NO2C8H3NO2C8H3NO2C8H3NO2C8H3NO2C8H3NO2C8H3NO2C8H3NO2C8H3NO2C8H3NO2C8H3NO2C8H3NO2
_chemical_formula_sum              "C408 N36 H240 O24"
_cell_length_a       68.9442
_cell_length_b       68.9442
_cell_length_c       14.9531
_cell_angle_alpha    90.0014
_cell_angle_beta     89.9714
_cell_angle_gamma    120

_space_group_name_H-M_alt    "P 1"
_space_group_IT_number       1

loop_
  _space_group_symop_operation_xyz
  'x, y, z'

loop_
  _atom_site_type_symbol
  _atom_site_label
  _atom_site_symmetry_multiplicity
  _atom_site_fract_x
  _atom_site_fract_y
  _atom_site_fract_z
  _atom_site_occupancy
  C   C1        1.0  0.27613  0.51341  0.34394  1.0000
  N   N1        1.0  0.26866  0.47860  0.33713  1.0000
  C   C2        1.0  0.29133  0.49114  0.33933  1.0000
  C   C3        1.0  0.30773  0.48435  0.33766  1.0000
  N   N2        1.0  0.28233  0.44293  0.33569  1.0000
  C   C4        1.0  0.28383  0.42410  0.33549  1.0000
  C   C5        1.0  0.30674  0.43136  0.33762  1.0000
  C   C6        1.0  0.31834  0.45446  0.33690  1.0000
  C   C7        1.0  0.26612  0.40143  0.33378  1.0000
  N   N3        1.0  0.23286  0.40733  0.33553  1.0000
  C   C8        1.0  0.21016  0.39484  0.33451  1.0000
  C   C9        1.0  0.22535  0.37253  0.33038  1.0000
  C   C10       1.0  0.21773  0.46195  0.33700  1.0000
  C   C11       1.0  0.23546  0.48453  0.33901  1.0000
  C   C12       1.0  0.22967  0.50172  0.34064  1.0000
  C   C13       1.0  0.22338  0.50823  0.26130  1.0000
  C   C14       1.0  0.21946  0.52640  0.26154  1.0000
  C   C15       1.0  0.22202  0.53888  0.34047  1.0000
  C   C16       1.0  0.15957  0.37362  0.25822  1.0000
  C   C17       1.0  0.13630  0.35860  0.25827  1.0000
  C   C18       1.0  0.27228  0.38444  0.33267  1.0000
  C   C19       1.0  0.28947  0.35426  0.33775  1.0000
  C   C20       1.0  0.29143  0.36680  0.25980  1.0000
  C   C21       1.0  0.28277  0.38146  0.25687  1.0000
  C   C22       1.0  0.33078  0.50153  0.33753  1.0000
  C   C23       1.0  0.34024  0.51536  0.26172  1.0000
  C   C24       1.0  0.36212  0.53384  0.26476  1.0000
  C   C25       1.0  0.37541  0.53881  0.34283  1.0000
  H   H1        1.0  0.36795  0.54414  0.21015  1.0000
  H   H2        1.0  0.33089  0.51268  0.20512  1.0000
  H   H3        1.0  0.27498  0.52761  0.34660  1.0000
  H   H4        1.0  0.26061  0.46257  0.33239  1.0000
  H   H5        1.0  0.24093  0.42339  0.33862  1.0000
  H   H6        1.0  0.33540  0.46411  0.33780  1.0000
  H   H7        1.0  0.31417  0.42174  0.33914  1.0000
  H   H8        1.0  0.28518  0.39079  0.20040  1.0000
  H   H9        1.0  0.29998  0.36605  0.20519  1.0000
  H   H10       1.0  0.22654  0.35836  0.32755  1.0000
  H   H11       1.0  0.16829  0.37660  0.19962  1.0000
  H   H12       1.0  0.12895  0.35076  0.19959  1.0000
  H   H13       1.0  0.21488  0.53054  0.20270  1.0000
  H   H14       1.0  0.22200  0.50004  0.20248  1.0000
  C   C26       1.0  0.54597  0.76353  0.34474  1.0000
  C   C27       1.0  0.56824  0.80099  0.33983  1.0000
  N   N4        1.0  0.61645  0.84021  0.33613  1.0000
  C   C28       1.0  0.63527  0.86053  0.33585  1.0000
  C   C29       1.0  0.62801  0.87618  0.33781  1.0000
  C   C30       1.0  0.60492  0.86469  0.33711  1.0000
  C   C31       1.0  0.65794  0.86548  0.33420  1.0000
  C   C32       1.0  0.66454  0.81612  0.33504  1.0000
  C   C33       1.0  0.68685  0.85362  0.33106  1.0000
  C   C34       1.0  0.59742  0.75658  0.33737  1.0000
  C   C35       1.0  0.55114  0.71597  0.26166  1.0000
  C   C36       1.0  0.53298  0.69387  0.26188  1.0000
  C   C37       1.0  0.68578  0.78677  0.25869  1.0000
  C   C38       1.0  0.70079  0.77851  0.25875  1.0000
  C   C39       1.0  0.67494  0.88864  0.33307  1.0000
  C   C40       1.0  0.69262  0.92541  0.26003  1.0000
  C   C41       1.0  0.67796  0.90210  0.25718  1.0000
  C   C42       1.0  0.54401  0.82563  0.26211  1.0000
  C   C43       1.0  0.52553  0.82904  0.26509  1.0000
  H   H15       1.0  0.51524  0.82457  0.21046  1.0000
  H   H16       1.0  0.54671  0.81896  0.20551  1.0000
  H   H17       1.0  0.53178  0.74818  0.34769  1.0000
  H   H18       1.0  0.59527  0.87209  0.33779  1.0000
  H   H19       1.0  0.63764  0.89323  0.33919  1.0000
  H   H20       1.0  0.66862  0.89516  0.20074  1.0000
  H   H21       1.0  0.69335  0.93470  0.20543  1.0000
  H   H22       1.0  0.70102  0.86898  0.32834  1.0000
  H   H23       1.0  0.68282  0.79252  0.20010  1.0000
  H   H24       1.0  0.70866  0.77901  0.20006  1.0000
  H   H25       1.0  0.52885  0.68516  0.20303  1.0000
  H   H26       1.0  0.55933  0.72279  0.20283  1.0000
  C   C44       1.0  0.27583  0.76329  0.34460  1.0000
  C   C45       1.0  0.29585  0.78324  0.34385  1.0000
  C   C46       1.0  0.29117  0.80075  0.33989  1.0000
  N   N5        1.0  0.26851  0.79072  0.33685  1.0000
  C   C47       1.0  0.25838  0.76805  0.33905  1.0000
  C   C48       1.0  0.23518  0.75164  0.33729  1.0000
  N   N6        1.0  0.21917  0.77705  0.33532  1.0000
  C   C49       1.0  0.19885  0.77555  0.33501  1.0000
  C   C50       1.0  0.18320  0.75264  0.33701  1.0000
  C   C51       1.0  0.19469  0.74104  0.33636  1.0000
  C   C52       1.0  0.19390  0.79327  0.33335  1.0000
  C   C53       1.0  0.21037  0.81647  0.33325  1.0000
  N   N7        1.0  0.23306  0.82653  0.33519  1.0000
  C   C54       1.0  0.24326  0.84923  0.33427  1.0000
  C   C55       1.0  0.22584  0.85403  0.33187  1.0000
  C   C56       1.0  0.20577  0.83404  0.33031  1.0000
  C   C57       1.0  0.26649  0.86556  0.33563  1.0000
  N   N8        1.0  0.28247  0.84013  0.33683  1.0000
  C   C58       1.0  0.30280  0.84164  0.33681  1.0000
  C   C59       1.0  0.30764  0.82391  0.33883  1.0000
  C   C60       1.0  0.33062  0.82970  0.34053  1.0000
  C   C61       1.0  0.34345  0.83599  0.26122  1.0000
  C   C62       1.0  0.36554  0.83992  0.26154  1.0000
  C   C63       1.0  0.37543  0.83736  0.34050  1.0000
  C   C64       1.0  0.27280  0.88872  0.33706  1.0000
  C   C65       1.0  0.27264  0.89983  0.25800  1.0000
  C   C66       1.0  0.28089  0.92310  0.25812  1.0000
  C   C67       1.0  0.28990  0.93614  0.33659  1.0000
  C   C68       1.0  0.17074  0.78711  0.33226  1.0000
  C   C69       1.0  0.12336  0.76990  0.33732  1.0000
  C   C70       1.0  0.13398  0.76801  0.25930  1.0000
  C   C71       1.0  0.15729  0.77665  0.25641  1.0000
  C   C72       1.0  0.22932  0.72860  0.33716  1.0000
  C   C73       1.0  0.23373  0.71916  0.26137  1.0000
  C   C74       1.0  0.23036  0.69729  0.26446  1.0000
  C   C75       1.0  0.22198  0.68397  0.34247  1.0000
  H   H27       1.0  0.23483  0.69147  0.20983  1.0000
  H   H28       1.0  0.24044  0.72854  0.20481  1.0000
  H   H29       1.0  0.31119  0.78439  0.34676  1.0000
  H   H30       1.0  0.26054  0.79877  0.33186  1.0000
  H   H31       1.0  0.24104  0.81844  0.33787  1.0000
  H   H32       1.0  0.18728  0.72398  0.33708  1.0000
  H   H33       1.0  0.16614  0.74522  0.33839  1.0000
  H   H34       1.0  0.16423  0.77427  0.19992  1.0000
  H   H35       1.0  0.12469  0.75945  0.20471  1.0000
  H   H36       1.0  0.19040  0.83285  0.32760  1.0000
  H   H37       1.0  0.26692  0.89113  0.19940  1.0000
  H   H38       1.0  0.28041  0.93047  0.19944  1.0000
  H   H39       1.0  0.37429  0.84453  0.20272  1.0000
  H   H40       1.0  0.33666  0.83739  0.20238  1.0000
  C   C76       1.0  0.78730  0.54898  0.33992  1.0000
  N   N9        1.0  0.79630  0.59720  0.33634  1.0000
  C   C77       1.0  0.79480  0.61602  0.33605  1.0000
  C   C78       1.0  0.77190  0.60877  0.33810  1.0000
  C   C79       1.0  0.76029  0.58567  0.33754  1.0000
  C   C80       1.0  0.81252  0.63869  0.33430  1.0000
  C   C81       1.0  0.86848  0.64528  0.33499  1.0000
  C   C82       1.0  0.85329  0.66759  0.33105  1.0000
  C   C83       1.0  0.86089  0.57816  0.33755  1.0000
  C   C84       1.0  0.85526  0.53189  0.26183  1.0000
  C   C85       1.0  0.85917  0.51372  0.26207  1.0000
  C   C86       1.0  0.91907  0.66651  0.25852  1.0000
  C   C87       1.0  0.94234  0.68152  0.25847  1.0000
  C   C88       1.0  0.80636  0.65569  0.33315  1.0000
  C   C89       1.0  0.78725  0.67333  0.26017  1.0000
  C   C90       1.0  0.79593  0.65870  0.25726  1.0000
  C   C91       1.0  0.73841  0.52478  0.26239  1.0000
  C   C92       1.0  0.71653  0.50629  0.26542  1.0000
  H   H41       1.0  0.71072  0.49600  0.21081  1.0000
  H   H42       1.0  0.74778  0.52746  0.20578  1.0000
  H   H43       1.0  0.80364  0.51251  0.34728  1.0000
  H   H44       1.0  0.74324  0.57602  0.33816  1.0000
  H   H45       1.0  0.76447  0.61840  0.33942  1.0000
  H   H46       1.0  0.79351  0.64934  0.20087  1.0000
  H   H47       1.0  0.77870  0.67407  0.20557  1.0000
  H   H48       1.0  0.85210  0.68176  0.32831  1.0000
  H   H49       1.0  0.91035  0.66352  0.19994  1.0000
  H   H50       1.0  0.94969  0.68936  0.19975  1.0000
  H   H51       1.0  0.86378  0.50959  0.20323  1.0000
  H   H52       1.0  0.85665  0.54008  0.20301  1.0000
  C   C93       1.0  0.44336  0.17959  0.33624  1.0000
  C   C94       1.0  0.45062  0.16394  0.33838  1.0000
  C   C95       1.0  0.47372  0.17544  0.33773  1.0000
  C   C96       1.0  0.52750  0.32418  0.26229  1.0000
  C   C97       1.0  0.54567  0.34627  0.26255  1.0000
  C   C98       1.0  0.39290  0.25338  0.25880  1.0000
  C   C99       1.0  0.37788  0.26163  0.25877  1.0000
  C   C100      1.0  0.38609  0.11473  0.26014  1.0000
  C   C101      1.0  0.40075  0.13804  0.25735  1.0000
  C   C102      1.0  0.53462  0.21445  0.26261  1.0000
  C   C103      1.0  0.55310  0.21105  0.26562  1.0000
  H   H53       1.0  0.56340  0.21553  0.21099  1.0000
  H   H54       1.0  0.53194  0.22113  0.20602  1.0000
  H   H55       1.0  0.54686  0.29194  0.34760  1.0000
  H   H56       1.0  0.48337  0.16803  0.33865  1.0000
  H   H57       1.0  0.41010  0.14500  0.20093  1.0000
  H   H58       1.0  0.38536  0.10545  0.20549  1.0000
  H   H59       1.0  0.37762  0.17114  0.32806  1.0000
  H   H60       1.0  0.39590  0.24765  0.20022  1.0000
  H   H61       1.0  0.37006  0.26115  0.20005  1.0000
  H   H62       1.0  0.54981  0.35500  0.20371  1.0000
  H   H63       1.0  0.51931  0.31738  0.20347  1.0000
  C   C104      1.0  0.78279  0.25688  0.34479  1.0000
  N   N10       1.0  0.81012  0.24940  0.33752  1.0000
  C   C105      1.0  0.82025  0.27207  0.33978  1.0000
  N   N11       1.0  0.85946  0.26307  0.33599  1.0000
  C   C106      1.0  0.87979  0.26458  0.33567  1.0000
  C   C107      1.0  0.89544  0.28748  0.33761  1.0000
  C   C108      1.0  0.88394  0.29908  0.33694  1.0000
  C   C109      1.0  0.88474  0.24686  0.33402  1.0000
  N   N12       1.0  0.84558  0.21360  0.33583  1.0000
  C   C110      1.0  0.83538  0.19090  0.33488  1.0000
  C   C111      1.0  0.87287  0.20609  0.33087  1.0000
  C   C112      1.0  0.77584  0.19848  0.33738  1.0000
  C   C113      1.0  0.77100  0.21621  0.33947  1.0000
  C   C114      1.0  0.73521  0.20415  0.26184  1.0000
  C   C115      1.0  0.71312  0.20022  0.26216  1.0000
  C   C116      1.0  0.70320  0.20277  0.34114  1.0000
  C   C117      1.0  0.80602  0.14031  0.25853  1.0000
  C   C118      1.0  0.79777  0.11704  0.25858  1.0000
  C   C119      1.0  0.90790  0.25302  0.33288  1.0000
  C   C120      1.0  0.95527  0.27021  0.33783  1.0000
  C   C121      1.0  0.94467  0.27211  0.25984  1.0000
  C   C122      1.0  0.92136  0.26347  0.25699  1.0000
  C   C123      1.0  0.84931  0.31152  0.33779  1.0000
  C   C124      1.0  0.84489  0.32096  0.26207  1.0000
  C   C125      1.0  0.84829  0.34284  0.26509  1.0000
  H   H64       1.0  0.84381  0.34866  0.21049  1.0000
  H   H65       1.0  0.83821  0.31159  0.20547  1.0000
  H   H66       1.0  0.76744  0.25572  0.34780  1.0000
  H   H67       1.0  0.81809  0.24136  0.33213  1.0000
  H   H68       1.0  0.89135  0.31614  0.33761  1.0000
  H   H69       1.0  0.91249  0.29491  0.33896  1.0000
  H   H70       1.0  0.91442  0.26586  0.20055  1.0000
  H   H71       1.0  0.95396  0.28067  0.20523  1.0000
  H   H72       1.0  0.88824  0.20728  0.32814  1.0000
  H   H73       1.0  0.81178  0.14903  0.19994  1.0000
  H   H74       1.0  0.79827  0.10969  0.19989  1.0000
  H   H75       1.0  0.70440  0.19564  0.20333  1.0000
  H   H76       1.0  0.74202  0.20278  0.20299  1.0000
  C   C126      1.0  0.20821  0.62604  0.27351  1.0000
  C   C127      1.0  0.20938  0.64699  0.27517  1.0000
  H   H77       1.0  0.20067  0.61563  0.22025  1.0000
  H   H78       1.0  0.20255  0.65108  0.22279  1.0000
  C   C128      1.0  0.22757  0.57358  0.26662  1.0000
  C   C129      1.0  0.22619  0.59327  0.26709  1.0000
  H   H79       1.0  0.23527  0.57093  0.21336  1.0000
  H   H80       1.0  0.23277  0.60409  0.21425  1.0000
  C   C130      1.0  0.43336  0.58297  0.27391  1.0000
  C   C131      1.0  0.41241  0.56319  0.27557  1.0000
  H   H81       1.0  0.44379  0.58583  0.22067  1.0000
  H   H82       1.0  0.40834  0.55226  0.22321  1.0000
  C   C132      1.0  0.48580  0.65479  0.26699  1.0000
  C   C133      1.0  0.46612  0.63372  0.26744  1.0000
  H   H83       1.0  0.48846  0.66514  0.21377  1.0000
  H   H84       1.0  0.45530  0.62950  0.21466  1.0000
  C   C134      1.0  0.47644  0.85120  0.27397  1.0000
  C   C135      1.0  0.49622  0.85003  0.27570  1.0000
  H   H85       1.0  0.47359  0.85875  0.22067  1.0000
  H   H86       1.0  0.50715  0.85687  0.22334  1.0000
  C   C136      1.0  0.40464  0.83186  0.26676  1.0000
  C   C137      1.0  0.42571  0.83324  0.26733  1.0000
  H   H87       1.0  0.39430  0.82414  0.21355  1.0000
  H   H88       1.0  0.42995  0.82664  0.21459  1.0000
  C   C138      1.0  0.87043  0.41408  0.27410  1.0000
  C   C139      1.0  0.86927  0.39314  0.27577  1.0000
  H   H89       1.0  0.87799  0.42450  0.22082  1.0000
  H   H90       1.0  0.87611  0.38905  0.22340  1.0000
  C   C140      1.0  0.85108  0.46654  0.26717  1.0000
  C   C141      1.0  0.85249  0.44687  0.26762  1.0000
  H   H91       1.0  0.84339  0.46919  0.21393  1.0000
  H   H92       1.0  0.84588  0.43604  0.21486  1.0000
  C   C142      1.0  0.64529  0.45717  0.27458  1.0000
  C   C143      1.0  0.66624  0.47695  0.27623  1.0000
  H   H93       1.0  0.63487  0.45431  0.22134  1.0000
  H   H94       1.0  0.67032  0.48788  0.22388  1.0000
  C   C144      1.0  0.59284  0.38535  0.26764  1.0000
  C   C145      1.0  0.61253  0.40641  0.26812  1.0000
  H   H95       1.0  0.59020  0.37501  0.21437  1.0000
  H   H96       1.0  0.62335  0.41066  0.21527  1.0000
  C   C146      1.0  0.60222  0.18893  0.27461  1.0000
  C   C147      1.0  0.58244  0.19009  0.27633  1.0000
  H   H97       1.0  0.60508  0.18137  0.22134  1.0000
  H   H98       1.0  0.57151  0.18325  0.22399  1.0000
  C   C148      1.0  0.67403  0.20830  0.26744  1.0000
  C   C149      1.0  0.65296  0.20691  0.26798  1.0000
  H   H99       1.0  0.68438  0.21602  0.21419  1.0000
  H   H100      1.0  0.64873  0.21352  0.21522  1.0000
  C   C150      1.0  0.01442  0.28822  0.26882  1.0000
  C   C151      1.0  0.99088  0.27737  0.27035  1.0000
  H   H101      1.0  0.02213  0.28564  0.21538  1.0000
  H   H102      1.0  0.98229  0.26721  0.21769  1.0000
  C   C152      1.0  0.08635  0.34049  0.26192  1.0000
  C   C153      1.0  0.06280  0.32753  0.26232  1.0000
  H   H103      1.0  0.09389  0.35068  0.20810  1.0000
  H   H104      1.0  0.05417  0.32869  0.20882  1.0000
  C   C154      1.0  0.77114  0.72698  0.26918  1.0000
  C   C155      1.0  0.78199  0.71429  0.27068  1.0000
  H   H105      1.0  0.77374  0.73728  0.21575  1.0000
  H   H106      1.0  0.79217  0.71587  0.21802  1.0000
  C   C156      1.0  0.71887  0.74663  0.26238  1.0000
  C   C157      1.0  0.73184  0.73605  0.26269  1.0000
  H   H107      1.0  0.70872  0.74402  0.20850  1.0000
  H   H108      1.0  0.73070  0.72628  0.20919  1.0000
  C   C158      1.0  0.33242  0.04498  0.26883  1.0000
  C   C159      1.0  0.34511  0.06852  0.27041  1.0000
  H   H109      1.0  0.32215  0.03729  0.21535  1.0000
  H   H110      1.0  0.34356  0.07713  0.21775  1.0000
  C   C160      1.0  0.31277  0.97305  0.26188  1.0000
  C   C161      1.0  0.32336  0.99660  0.26231  1.0000
  H   H111      1.0  0.31540  0.96552  0.20798  1.0000
  H   H112      1.0  0.33313  0.00525  0.20878  1.0000
  C   C162      1.0  0.06422  0.75188  0.26852  1.0000
  C   C163      1.0  0.08775  0.76273  0.26996  1.0000
  H   H113      1.0  0.05651  0.75447  0.21512  1.0000
  H   H114      1.0  0.09635  0.77290  0.21728  1.0000
  C   C164      1.0  0.99229  0.69960  0.26193  1.0000
  C   C165      1.0  0.01584  0.71257  0.26220  1.0000
  H   H115      1.0  0.98474  0.68944  0.20809  1.0000
  H   H116      1.0  0.02447  0.71142  0.20865  1.0000
  C   C166      1.0  0.30750  0.31313  0.26890  1.0000
  C   C167      1.0  0.29665  0.32582  0.27036  1.0000
  H   H117      1.0  0.30493  0.30285  0.21546  1.0000
  H   H118      1.0  0.28651  0.32426  0.21765  1.0000
  C   C168      1.0  0.35977  0.29347  0.26229  1.0000
  C   C169      1.0  0.34682  0.30407  0.26260  1.0000
  H   H119      1.0  0.36997  0.29613  0.20850  1.0000
  H   H120      1.0  0.34798  0.31386  0.20910  1.0000
  C   C170      1.0  0.74625  0.99516  0.26903  1.0000
  C   C171      1.0  0.73356  0.97162  0.27056  1.0000
  H   H121      1.0  0.75655  0.00287  0.21560  1.0000
  H   H122      1.0  0.73514  0.96303  0.21791  1.0000
  C   C172      1.0  0.76590  0.06709  0.26222  1.0000
  C   C173      1.0  0.75532  0.04354  0.26254  1.0000
  H   H123      1.0  0.76329  0.07463  0.20834  1.0000
  H   H124      1.0  0.74554  0.03491  0.20905  1.0000
  C   C174      1.0  0.29608  0.51334  0.34468  1.0000
  C   C175      1.0  0.25863  0.49123  0.34008  1.0000
  C   C176      1.0  0.30271  0.46170  0.33680  1.0000
  C   C177      1.0  0.24291  0.39470  0.33352  1.0000
  C   C178      1.0  0.20535  0.37261  0.33194  1.0000
  C   C179      1.0  0.19382  0.40173  0.33594  1.0000
  C   C180      1.0  0.19886  0.42441  0.33625  1.0000
  N   N13       1.0  0.21924  0.44314  0.33707  1.0000
  C   C181      1.0  0.19490  0.45486  0.33616  1.0000
  C   C182      1.0  0.18328  0.43176  0.33505  1.0000
  C   C183      1.0  0.22800  0.53190  0.41992  1.0000
  C   C184      1.0  0.23163  0.51356  0.42029  1.0000
  C   C185      1.0  0.17066  0.38488  0.33730  1.0000
  C   C186      1.0  0.12323  0.35456  0.33672  1.0000
  C   C187      1.0  0.13467  0.36578  0.41589  1.0000
  C   C188      1.0  0.15796  0.38057  0.41645  1.0000
  C   C189      1.0  0.26969  0.37153  0.40983  1.0000
  C   C190      1.0  0.27783  0.35643  0.41168  1.0000
  C   C191      1.0  0.34408  0.50606  0.41501  1.0000
  C   C192      1.0  0.36619  0.52419  0.41693  1.0000
  H   H125      1.0  0.37536  0.52688  0.47400  1.0000
  H   H126      1.0  0.33765  0.49639  0.47106  1.0000
  H   H127      1.0  0.31144  0.52749  0.34865  1.0000
  H   H128      1.0  0.26228  0.37339  0.46599  1.0000
  H   H129      1.0  0.27558  0.34735  0.46871  1.0000
  H   H130      1.0  0.18991  0.35851  0.33041  1.0000
  H   H131      1.0  0.18762  0.46463  0.33618  1.0000
  H   H132      1.0  0.16622  0.42216  0.33356  1.0000
  H   H133      1.0  0.16546  0.38887  0.47431  1.0000
  H   H134      1.0  0.12602  0.36404  0.47374  1.0000
  H   H135      1.0  0.23657  0.50944  0.47839  1.0000
  H   H136      1.0  0.23074  0.54071  0.47809  1.0000
  C   C193      1.0  0.54604  0.78355  0.34552  1.0000
  C   C194      1.0  0.56815  0.76821  0.34062  1.0000
  N   N14       1.0  0.58078  0.79086  0.33757  1.0000
  C   C195      1.0  0.57503  0.82419  0.33803  1.0000
  C   C196      1.0  0.59768  0.84182  0.33713  1.0000
  C   C197      1.0  0.66468  0.84901  0.33404  1.0000
  N   N15       1.0  0.65204  0.82632  0.33600  1.0000
  C   C198      1.0  0.68677  0.83355  0.33260  1.0000
  C   C199      1.0  0.65764  0.79289  0.33637  1.0000
  C   C200      1.0  0.63496  0.77525  0.33660  1.0000
  N   N16       1.0  0.61623  0.77691  0.33752  1.0000
  C   C201      1.0  0.60451  0.74084  0.33637  1.0000
  C   C202      1.0  0.62761  0.75233  0.33529  1.0000
  C   C203      1.0  0.57485  0.75174  0.33941  1.0000
  C   C204      1.0  0.55766  0.72876  0.34102  1.0000
  C   C205      1.0  0.52050  0.68395  0.34082  1.0000
  C   C206      1.0  0.52746  0.69690  0.42030  1.0000
  C   C207      1.0  0.54583  0.71886  0.42073  1.0000
  C   C208      1.0  0.67449  0.78658  0.33775  1.0000
  C   C209      1.0  0.70481  0.76947  0.33719  1.0000
  C   C210      1.0  0.69357  0.76969  0.41636  1.0000
  C   C211      1.0  0.67876  0.77817  0.41687  1.0000
  C   C212      1.0  0.68782  0.89898  0.41023  1.0000
  C   C213      1.0  0.70292  0.92222  0.41202  1.0000
  C   C214      1.0  0.70512  0.93602  0.33803  1.0000
  C   C215      1.0  0.55785  0.83005  0.33786  1.0000
  C   C216      1.0  0.55331  0.83885  0.41528  1.0000
  C   C217      1.0  0.52056  0.83740  0.34309  1.0000
  C   C218      1.0  0.53517  0.84282  0.41718  1.0000
  H   H137      1.0  0.53249  0.84934  0.47419  1.0000
  H   H138      1.0  0.56298  0.84211  0.47132  1.0000
  H   H139      1.0  0.53190  0.78477  0.34969  1.0000
  H   H140      1.0  0.59680  0.79884  0.33221  1.0000
  H   H141      1.0  0.63598  0.81834  0.33881  1.0000
  H   H142      1.0  0.68595  0.88972  0.46642  1.0000
  H   H143      1.0  0.71198  0.92906  0.46904  1.0000
  H   H144      1.0  0.70087  0.83220  0.33122  1.0000
  H   H145      1.0  0.59474  0.72379  0.33632  1.0000
  H   H146      1.0  0.63721  0.74487  0.33372  1.0000
  H   H147      1.0  0.67045  0.77736  0.47474  1.0000
  H   H148      1.0  0.69527  0.76274  0.47415  1.0000
  H   H149      1.0  0.54993  0.72792  0.47882  1.0000
  H   H150      1.0  0.51866  0.69082  0.47849  1.0000
  C   C219      1.0  0.21756  0.75667  0.33637  1.0000
  C   C220      1.0  0.28413  0.86052  0.33593  1.0000
  C   C221      1.0  0.31855  0.86448  0.33588  1.0000
  C   C222      1.0  0.30706  0.87609  0.33473  1.0000
  C   C223      1.0  0.36244  0.83134  0.41992  1.0000
  C   C224      1.0  0.34047  0.82774  0.42025  1.0000
  C   C225      1.0  0.28967  0.92468  0.41572  1.0000
  C   C226      1.0  0.28116  0.90139  0.41624  1.0000
  C   C227      1.0  0.16039  0.78965  0.40946  1.0000
  C   C228      1.0  0.13715  0.78151  0.41128  1.0000
  C   C229      1.0  0.22051  0.71527  0.41460  1.0000
  C   C230      1.0  0.21654  0.69317  0.41653  1.0000
  H   H151      1.0  0.21001  0.68397  0.47355  1.0000
  H   H152      1.0  0.21724  0.72169  0.47062  1.0000
  H   H153      1.0  0.27460  0.74793  0.34868  1.0000
  H   H154      1.0  0.16964  0.79704  0.46562  1.0000
  H   H155      1.0  0.13030  0.78372  0.46834  1.0000
  H   H156      1.0  0.22719  0.86948  0.33052  1.0000
  H   H157      1.0  0.33560  0.87176  0.33593  1.0000
  H   H158      1.0  0.31452  0.89315  0.33321  1.0000
  H   H159      1.0  0.28198  0.89387  0.47406  1.0000
  H   H160      1.0  0.29658  0.93331  0.47356  1.0000
  H   H161      1.0  0.33139  0.82279  0.47831  1.0000
  H   H162      1.0  0.36850  0.82863  0.47815  1.0000
  C   C231      1.0  0.78254  0.52678  0.34530  1.0000
  C   C232      1.0  0.80249  0.52671  0.34450  1.0000
  C   C233      1.0  0.82000  0.54889  0.34062  1.0000
  N   N17       1.0  0.80997  0.56152  0.33770  1.0000
  C   C234      1.0  0.77090  0.55578  0.33830  1.0000
  C   C235      1.0  0.77592  0.57843  0.33745  1.0000
  C   C236      1.0  0.83573  0.64542  0.33409  1.0000
  N   N18       1.0  0.84578  0.63279  0.33604  1.0000
  C   C237      1.0  0.87329  0.66751  0.33253  1.0000
  C   C238      1.0  0.88481  0.63838  0.33632  1.0000
  C   C239      1.0  0.87977  0.61570  0.33667  1.0000
  N   N19       1.0  0.85939  0.59698  0.33759  1.0000
  C   C240      1.0  0.88373  0.58525  0.33660  1.0000
  C   C241      1.0  0.89534  0.60835  0.33544  1.0000
  C   C242      1.0  0.84316  0.55559  0.33956  1.0000
  C   C243      1.0  0.84895  0.53839  0.34117  1.0000
  C   C244      1.0  0.85660  0.50124  0.34100  1.0000
  C   C245      1.0  0.85058  0.50819  0.42045  1.0000
  C   C246      1.0  0.84698  0.52656  0.42085  1.0000
  C   C247      1.0  0.90797  0.65523  0.33763  1.0000
  C   C248      1.0  0.95540  0.68555  0.33686  1.0000
  C   C249      1.0  0.94396  0.67432  0.41607  1.0000
  C   C250      1.0  0.92067  0.65953  0.41671  1.0000
  C   C251      1.0  0.80891  0.66859  0.41030  1.0000
  C   C252      1.0  0.80077  0.68368  0.41209  1.0000
  C   C253      1.0  0.78915  0.68586  0.33812  1.0000
  C   C254      1.0  0.74785  0.53860  0.33818  1.0000
  C   C255      1.0  0.73452  0.53406  0.41564  1.0000
  C   C256      1.0  0.70322  0.50131  0.34349  1.0000
  C   C257      1.0  0.71242  0.51592  0.41758  1.0000
  H   H163      1.0  0.70322  0.51324  0.47464  1.0000
  H   H164      1.0  0.74094  0.54373  0.47170  1.0000
  H   H165      1.0  0.76718  0.51264  0.34936  1.0000
  H   H166      1.0  0.81802  0.57755  0.33298  1.0000
  H   H167      1.0  0.83770  0.61673  0.33880  1.0000
  H   H168      1.0  0.81628  0.66671  0.46650  1.0000
  H   H169      1.0  0.80297  0.69274  0.46912  1.0000
  H   H170      1.0  0.88873  0.68161  0.33110  1.0000
  H   H171      1.0  0.89101  0.57548  0.33660  1.0000
  H   H172      1.0  0.91240  0.61795  0.33387  1.0000
  H   H173      1.0  0.91317  0.65123  0.47460  1.0000
  H   H174      1.0  0.95261  0.67606  0.47387  1.0000
  H   H175      1.0  0.84203  0.53067  0.47894  1.0000
  H   H176      1.0  0.84787  0.49941  0.47865  1.0000
  C   C258      1.0  0.53260  0.25658  0.34566  1.0000
  C   C259      1.0  0.53267  0.27660  0.34494  1.0000
  C   C260      1.0  0.51048  0.27192  0.34106  1.0000
  N   N20       1.0  0.49786  0.24926  0.33809  1.0000
  C   C261      1.0  0.51040  0.23913  0.34028  1.0000
  C   C262      1.0  0.50361  0.21593  0.33859  1.0000
  C   C263      1.0  0.48096  0.19831  0.33767  1.0000
  N   N21       1.0  0.46219  0.19992  0.33650  1.0000
  C   C264      1.0  0.42070  0.17464  0.33444  1.0000
  C   C265      1.0  0.41396  0.19111  0.33418  1.0000
  N   N22       1.0  0.42659  0.21379  0.33626  1.0000
  C   C266      1.0  0.41409  0.22400  0.33519  1.0000
  C   C267      1.0  0.39187  0.20657  0.33253  1.0000
  C   C268      1.0  0.39179  0.18650  0.33096  1.0000
  C   C269      1.0  0.42099  0.24723  0.33664  1.0000
  C   C270      1.0  0.44367  0.26487  0.33705  1.0000
  N   N23       1.0  0.46239  0.26321  0.33793  1.0000
  C   C271      1.0  0.48121  0.28354  0.33791  1.0000
  C   C272      1.0  0.47412  0.29928  0.33705  1.0000
  C   C273      1.0  0.45102  0.28779  0.33588  1.0000
  C   C274      1.0  0.50378  0.28838  0.33998  1.0000
  C   C275      1.0  0.52097  0.31136  0.34162  1.0000
  C   C276      1.0  0.55813  0.35618  0.34147  1.0000
  C   C277      1.0  0.55115  0.34320  0.42093  1.0000
  C   C278      1.0  0.53281  0.32123  0.42128  1.0000
  C   C279      1.0  0.40414  0.25353  0.33793  1.0000
  C   C280      1.0  0.37382  0.27065  0.33719  1.0000
  C   C281      1.0  0.38502  0.27042  0.41641  1.0000
  C   C282      1.0  0.39980  0.26191  0.41704  1.0000
  C   C283      1.0  0.40370  0.15148  0.33321  1.0000
  C   C284      1.0  0.39076  0.14112  0.41029  1.0000
  C   C285      1.0  0.37566  0.11788  0.41201  1.0000
  C   C286      1.0  0.37352  0.10410  0.33803  1.0000
  C   C287      1.0  0.52079  0.21007  0.33844  1.0000
  C   C288      1.0  0.52532  0.20128  0.41590  1.0000
  C   C289      1.0  0.55807  0.20272  0.34367  1.0000
  C   C290      1.0  0.54345  0.19730  0.41778  1.0000
  H   H177      1.0  0.54613  0.19081  0.47484  1.0000
  H   H178      1.0  0.51565  0.19804  0.47196  1.0000
  H   H179      1.0  0.54674  0.25536  0.34962  1.0000
  H   H180      1.0  0.48183  0.24128  0.33335  1.0000
  H   H181      1.0  0.44265  0.22177  0.33940  1.0000
  H   H182      1.0  0.44100  0.14689  0.33984  1.0000
  H   H183      1.0  0.39260  0.15036  0.46649  1.0000
  H   H184      1.0  0.36657  0.11102  0.46898  1.0000
  H   H185      1.0  0.37777  0.20792  0.33095  1.0000
  H   H186      1.0  0.48389  0.31633  0.33710  1.0000
  H   H187      1.0  0.44142  0.29525  0.33435  1.0000
  H   H188      1.0  0.40808  0.26270  0.47495  1.0000
  H   H189      1.0  0.38326  0.27731  0.47423  1.0000
  H   H190      1.0  0.52868  0.31216  0.47937  1.0000
  H   H191      1.0  0.55995  0.34926  0.47909  1.0000
  C   C291      1.0  0.80281  0.27683  0.34553  1.0000
  C   C292      1.0  0.78746  0.23937  0.34064  1.0000
  C   C293      1.0  0.84345  0.28848  0.33793  1.0000
  C   C294      1.0  0.86107  0.28345  0.33699  1.0000
  C   C295      1.0  0.86827  0.22365  0.33386  1.0000
  C   C296      1.0  0.85280  0.18609  0.33242  1.0000
  C   C297      1.0  0.81215  0.17457  0.33624  1.0000
  C   C298      1.0  0.79451  0.17961  0.33652  1.0000
  N   N24       1.0  0.79616  0.19999  0.33747  1.0000
  C   C299      1.0  0.76009  0.17564  0.33638  1.0000
  C   C300      1.0  0.77158  0.16403  0.33525  1.0000
  C   C301      1.0  0.74802  0.21042  0.34116  1.0000
  C   C302      1.0  0.71617  0.20875  0.42057  1.0000
  C   C303      1.0  0.73813  0.21234  0.42091  1.0000
  C   C304      1.0  0.80584  0.15141  0.33760  1.0000
  C   C305      1.0  0.78873  0.10398  0.33703  1.0000
  C   C306      1.0  0.78895  0.11542  0.41621  1.0000
  C   C307      1.0  0.79742  0.13871  0.41673  1.0000
  C   C308      1.0  0.91823  0.25046  0.41005  1.0000
  C   C309      1.0  0.94147  0.25861  0.41183  1.0000
  C   C310      1.0  0.85811  0.32485  0.41522  1.0000
  C   C311      1.0  0.85665  0.35615  0.34310  1.0000
  C   C312      1.0  0.86208  0.34695  0.41714  1.0000
  H   H192      1.0  0.86859  0.35614  0.47416  1.0000
  H   H193      1.0  0.86137  0.31843  0.47122  1.0000
  H   H194      1.0  0.80403  0.29219  0.34972  1.0000
  H   H195      1.0  0.83760  0.22168  0.33866  1.0000
  H   H196      1.0  0.90897  0.24307  0.46623  1.0000
  H   H197      1.0  0.94831  0.25638  0.46884  1.0000
  H   H198      1.0  0.85145  0.17065  0.33103  1.0000
  H   H199      1.0  0.74304  0.16836  0.33638  1.0000
  H   H200      1.0  0.76412  0.14697  0.33367  1.0000
  H   H201      1.0  0.79662  0.14621  0.47460  1.0000
  H   H202      1.0  0.78200  0.10677  0.47400  1.0000
  H   H203      1.0  0.74720  0.21729  0.47897  1.0000
  H   H204      1.0  0.71010  0.21146  0.47880  1.0000
  C   C313      1.0  0.21988  0.66224  0.34656  1.0000
  C   C314      1.0  0.22906  0.65571  0.41794  1.0000
  C   C315      1.0  0.22733  0.63434  0.41624  1.0000
  C   C316      1.0  0.21715  0.61937  0.34418  1.0000
  C   C317      1.0  0.21705  0.59868  0.34116  1.0000
  C   C318      1.0  0.20893  0.58356  0.41387  1.0000
  C   C319      1.0  0.21001  0.56371  0.41260  1.0000
  C   C320      1.0  0.21960  0.55838  0.33947  1.0000
  H   H205      1.0  0.20207  0.58686  0.46842  1.0000
  H   H206      1.0  0.20369  0.55315  0.46626  1.0000
  H   H207      1.0  0.23454  0.63013  0.46685  1.0000
  N   N25       1.0  0.24094  0.67092  0.48796  1.0000
  O   O1        1.0  0.23225  0.66316  0.56292  1.0000
  O   O2        1.0  0.26113  0.67589  0.48990  1.0000
  C   C321      1.0  0.39714  0.55845  0.34692  1.0000
  C   C322      1.0  0.40365  0.57417  0.41828  1.0000
  C   C323      1.0  0.42502  0.59380  0.41661  1.0000
  C   C324      1.0  0.44000  0.59858  0.34456  1.0000
  C   C325      1.0  0.46070  0.61917  0.34153  1.0000
  C   C326      1.0  0.47580  0.62617  0.41421  1.0000
  C   C327      1.0  0.49566  0.64710  0.41293  1.0000
  C   C328      1.0  0.50100  0.66202  0.33981  1.0000
  H   H208      1.0  0.47250  0.61601  0.46876  1.0000
  H   H209      1.0  0.50621  0.65133  0.46658  1.0000
  H   H210      1.0  0.42921  0.60523  0.46716  1.0000
  N   N26       1.0  0.38841  0.57084  0.48823  1.0000
  O   O3        1.0  0.39614  0.56992  0.56325  1.0000
  O   O4        1.0  0.38344  0.58606  0.49010  1.0000
  C   C329      1.0  0.50094  0.83952  0.34714  1.0000
  C   C330      1.0  0.48520  0.83032  0.41847  1.0000
  C   C331      1.0  0.46557  0.83206  0.41671  1.0000
  C   C332      1.0  0.46081  0.84225  0.34460  1.0000
  C   C333      1.0  0.44022  0.84236  0.34148  1.0000
  C   C334      1.0  0.43318  0.85046  0.41413  1.0000
  C   C335      1.0  0.41225  0.84937  0.41276  1.0000
  C   C336      1.0  0.39736  0.83980  0.33958  1.0000
  H   H211      1.0  0.44331  0.85730  0.46873  1.0000
  H   H212      1.0  0.40799  0.85568  0.46641  1.0000
  H   H213      1.0  0.45412  0.82483  0.46725  1.0000
  N   N27       1.0  0.48850  0.81842  0.48849  1.0000
  O   O5        1.0  0.48940  0.82709  0.56346  1.0000
  O   O6        1.0  0.47328  0.79823  0.49040  1.0000
  C   C337      1.0  0.85876  0.37789  0.34719  1.0000
  C   C338      1.0  0.84955  0.38441  0.41857  1.0000
  C   C339      1.0  0.85129  0.40578  0.41687  1.0000
  C   C340      1.0  0.86148  0.42074  0.34476  1.0000
  C   C341      1.0  0.86159  0.44145  0.34173  1.0000
  C   C342      1.0  0.86968  0.45655  0.41442  1.0000
  C   C343      1.0  0.86860  0.47641  0.41314  1.0000
  C   C344      1.0  0.85903  0.48174  0.34001  1.0000
  H   H214      1.0  0.87652  0.45325  0.46898  1.0000
  H   H215      1.0  0.87491  0.48696  0.46679  1.0000
  H   H216      1.0  0.84406  0.40998  0.46745  1.0000
  N   N28       1.0  0.83766  0.36919  0.48858  1.0000
  O   O7        1.0  0.84633  0.37694  0.56355  1.0000
  O   O8        1.0  0.81747  0.36422  0.49053  1.0000
  C   C345      1.0  0.68148  0.48168  0.34758  1.0000
  C   C346      1.0  0.67496  0.46595  0.41894  1.0000
  C   C347      1.0  0.65360  0.44631  0.41724  1.0000
  C   C348      1.0  0.63863  0.44154  0.34521  1.0000
  C   C349      1.0  0.61793  0.42095  0.34219  1.0000
  C   C350      1.0  0.60281  0.41393  0.41491  1.0000
  C   C351      1.0  0.58296  0.39300  0.41363  1.0000
  C   C352      1.0  0.57764  0.37810  0.34048  1.0000
  H   H217      1.0  0.60610  0.42408  0.46947  1.0000
  H   H218      1.0  0.57240  0.38876  0.46730  1.0000
  H   H219      1.0  0.64939  0.43488  0.46783  1.0000
  N   N29       1.0  0.69018  0.46927  0.48891  1.0000
  O   O9        1.0  0.68242  0.47018  0.56391  1.0000
  O   O10       1.0  0.69515  0.45405  0.49079  1.0000
  C   C353      1.0  0.57770  0.20061  0.34771  1.0000
  C   C354      1.0  0.59342  0.20982  0.41903  1.0000
  C   C355      1.0  0.61306  0.20808  0.41730  1.0000
  C   C356      1.0  0.61783  0.19789  0.34522  1.0000
  C   C357      1.0  0.63843  0.19779  0.34211  1.0000
  C   C358      1.0  0.64544  0.18967  0.41476  1.0000
  C   C359      1.0  0.66637  0.19075  0.41340  1.0000
  C   C360      1.0  0.68128  0.20034  0.34024  1.0000
  H   H220      1.0  0.63529  0.18282  0.46935  1.0000
  H   H221      1.0  0.67060  0.18443  0.46702  1.0000
  H   H222      1.0  0.62449  0.21531  0.46783  1.0000
  N   N30       1.0  0.59010  0.22172  0.48902  1.0000
  O   O11       1.0  0.58918  0.21305  0.56402  1.0000
  O   O12       1.0  0.60532  0.24191  0.49089  1.0000
  C   C361      1.0  0.97921  0.28044  0.34199  1.0000
  C   C362      1.0  0.99202  0.29472  0.41368  1.0000
  C   C363      1.0  0.01571  0.30517  0.41205  1.0000
  C   C364      1.0  0.02726  0.30231  0.33978  1.0000
  C   C365      1.0  0.05116  0.31420  0.33704  1.0000
  C   C366      1.0  0.06392  0.31392  0.41049  1.0000
  C   C367      1.0  0.08749  0.32665  0.40940  1.0000
  C   C368      1.0  0.09928  0.34046  0.33559  1.0000
  H   H223      1.0  0.05614  0.30434  0.46557  1.0000
  H   H224      1.0  0.09597  0.32568  0.46373  1.0000
  H   H225      1.0  0.02466  0.31585  0.46295  1.0000
  N   N31       1.0  0.98124  0.29945  0.48406  1.0000
  O   O13       1.0  0.98519  0.29379  0.55876  1.0000
  O   O14       1.0  0.98706  0.31987  0.48671  1.0000
  C   C369      1.0  0.77892  0.69956  0.34230  1.0000
  C   C370      1.0  0.76463  0.69808  0.41402  1.0000
  C   C371      1.0  0.75417  0.71132  0.41241  1.0000
  C   C372      1.0  0.75704  0.72572  0.34013  1.0000
  C   C373      1.0  0.74515  0.73773  0.33743  1.0000
  C   C374      1.0  0.74541  0.75077  0.41092  1.0000
  C   C375      1.0  0.73269  0.76162  0.40985  1.0000
  C   C376      1.0  0.71889  0.75960  0.33606  1.0000
  H   H226      1.0  0.75498  0.75256  0.46598  1.0000
  H   H227      1.0  0.73366  0.77107  0.46419  1.0000
  H   H228      1.0  0.74348  0.70958  0.46332  1.0000
  N   N32       1.0  0.75989  0.68257  0.48440  1.0000
  O   O15       1.0  0.76554  0.69219  0.55909  1.0000
  O   O16       1.0  0.73947  0.66797  0.48707  1.0000
  C   C377      1.0  0.35981  0.08016  0.34212  1.0000
  C   C378      1.0  0.36125  0.06733  0.41383  1.0000
  C   C379      1.0  0.34801  0.04364  0.41212  1.0000
  C   C380      1.0  0.33363  0.03212  0.33979  1.0000
  C   C381      1.0  0.32163  0.00822  0.33702  1.0000
  C   C382      1.0  0.30856  0.99543  0.41045  1.0000
  C   C383      1.0  0.29772  0.97187  0.40932  1.0000
  C   C384      1.0  0.29977  0.96010  0.33551  1.0000
  H   H229      1.0  0.30674  0.00320  0.46551  1.0000
  H   H230      1.0  0.28825  0.96337  0.46361  1.0000
  H   H231      1.0  0.34971  0.03467  0.46307  1.0000
  N   N33       1.0  0.37672  0.07809  0.48431  1.0000
  O   O17       1.0  0.36706  0.07411  0.55894  1.0000
  O   O18       1.0  0.39132  0.07227  0.48704  1.0000
  C   C385      1.0  0.09942  0.75966  0.34154  1.0000
  C   C386      1.0  0.08661  0.74538  0.41328  1.0000
  C   C387      1.0  0.06292  0.73493  0.41175  1.0000
  C   C388      1.0  0.05138  0.73779  0.33952  1.0000
  C   C389      1.0  0.02748  0.72590  0.33688  1.0000
  C   C390      1.0  0.01471  0.72618  0.41039  1.0000
  C   C391      1.0  0.99115  0.71346  0.40939  1.0000
  C   C392      1.0  0.97936  0.69964  0.33563  1.0000
  H   H232      1.0  0.02249  0.73576  0.46543  1.0000
  H   H233      1.0  0.98267  0.71443  0.46375  1.0000
  H   H234      1.0  0.05397  0.72424  0.46267  1.0000
  N   N34       1.0  0.09739  0.74064  0.48362  1.0000
  O   O19       1.0  0.09343  0.74630  0.55833  1.0000
  O   O20       1.0  0.09157  0.72022  0.48627  1.0000
  C   C393      1.0  0.29969  0.34054  0.34199  1.0000
  C   C394      1.0  0.31395  0.34200  0.41375  1.0000
  C   C395      1.0  0.32440  0.32876  0.41219  1.0000
  C   C396      1.0  0.32156  0.31436  0.33993  1.0000
  C   C397      1.0  0.33346  0.30236  0.33727  1.0000
  C   C398      1.0  0.33315  0.28930  0.41074  1.0000
  C   C399      1.0  0.34588  0.27846  0.40973  1.0000
  C   C400      1.0  0.35972  0.28050  0.33598  1.0000
  H   H235      1.0  0.32356  0.28750  0.46577  1.0000
  H   H236      1.0  0.34489  0.26900  0.46407  1.0000
  H   H237      1.0  0.33507  0.33048  0.46315  1.0000
  N   N35       1.0  0.31866  0.35750  0.48413  1.0000
  O   O21       1.0  0.31297  0.34787  0.55881  1.0000
  O   O22       1.0  0.33908  0.37210  0.48687  1.0000
  C   C401      1.0  0.71882  0.95996  0.34219  1.0000
  C   C402      1.0  0.71734  0.97276  0.41389  1.0000
  C   C403      1.0  0.73058  0.99646  0.41226  1.0000
  C   C404      1.0  0.74499  0.00800  0.33998  1.0000
  C   C405      1.0  0.75700  0.03190  0.33727  1.0000
  C   C406      1.0  0.77004  0.04467  0.41074  1.0000
  C   C407      1.0  0.78088  0.06823  0.40967  1.0000
  C   C408      1.0  0.77886  0.08002  0.33589  1.0000
  H   H238      1.0  0.77182  0.03688  0.46580  1.0000
  H   H239      1.0  0.79033  0.07671  0.46400  1.0000
  H   H240      1.0  0.72884  0.00541  0.46317  1.0000
  N   N36       1.0  0.70182  0.96198  0.48427  1.0000
  O   O23       1.0  0.71143  0.96595  0.55896  1.0000
  O   O24       1.0  0.68723  0.96781  0.48693  1.0000
