data_image0
_chemical_formula_structural       C3NCH3C3NCH3C3NCH3C3NCH3C3NCH3C3NCH3CNHCNHCNHCNHCNHCNHC3NCH3C3NCH3C3NCH3C3NCH3C3NCH3C3NCH3C6H3C6H3C6H3C6H3C6H3C6H3C6H3C6H3C6H3C6H3C6H3C6H3CNHCNHCNHCNHCNHCNHC3NCH3C3NCH3C3NCH3C3NCH3C3NCH3C3NCH3CNHCNHCNHCNHCNHCNH
_chemical_formula_sum              "C162 N36 H108"
_cell_length_a       39.4115
_cell_length_b       39.4114
_cell_length_c       14.8035
_cell_angle_alpha    90
_cell_angle_beta     90
_cell_angle_gamma    120

_space_group_name_H-M_alt    "P 1"
_space_group_IT_number       1

loop_
  _space_group_symop_operation_xyz
  'x, y, z'

loop_
  _atom_site_type_symbol
  _atom_site_label
  _atom_site_symmetry_multiplicity
  _atom_site_fract_x
  _atom_site_fract_y
  _atom_site_fract_z
  _atom_site_occupancy
  C   C1        1.0  0.23460  0.48612  0.26569  1.0000
  C   C2        1.0  0.20285  0.46258  0.32487  1.0000
  C   C3        1.0  0.27419  0.46240  0.33281  1.0000
  N   N1        1.0  0.26866  0.48547  0.27354  1.0000
  C   C4        1.0  0.23403  0.51145  0.19247  1.0000
  H   H1        1.0  0.20486  0.50713  0.18015  1.0000
  H   H2        1.0  0.24397  0.50484  0.12954  1.0000
  H   H3        1.0  0.25376  0.54214  0.20956  1.0000
  C   C5        1.0  0.54908  0.77045  0.26568  1.0000
  C   C6        1.0  0.57266  0.76226  0.32477  1.0000
  C   C7        1.0  0.57283  0.83377  0.33273  1.0000
  N   N2        1.0  0.54973  0.80515  0.27352  1.0000
  C   C8        1.0  0.52374  0.74453  0.19248  1.0000
  H   H4        1.0  0.52806  0.71968  0.18018  1.0000
  H   H5        1.0  0.53034  0.76108  0.12955  1.0000
  H   H6        1.0  0.49305  0.73357  0.20961  1.0000
  C   C9        1.0  0.26480  0.80070  0.26570  1.0000
  C   C10       1.0  0.27300  0.83244  0.32489  1.0000
  C   C11       1.0  0.20149  0.76109  0.33279  1.0000
  N   N3        1.0  0.23010  0.76664  0.27352  1.0000
  C   C12       1.0  0.29072  0.80129  0.19249  1.0000
  H   H7        1.0  0.31556  0.83046  0.18020  1.0000
  H   H8        1.0  0.27418  0.79135  0.12956  1.0000
  H   H9        1.0  0.30168  0.78156  0.20959  1.0000
  C   C13       1.0  0.79779  0.55207  0.26568  1.0000
  C   C14       1.0  0.82955  0.57565  0.32477  1.0000
  C   C15       1.0  0.75817  0.57576  0.33280  1.0000
  N   N4        1.0  0.76371  0.55269  0.27354  1.0000
  C   C16       1.0  0.79837  0.52675  0.19246  1.0000
  H   H10       1.0  0.82755  0.53110  0.18013  1.0000
  H   H11       1.0  0.78841  0.53334  0.12954  1.0000
  H   H12       1.0  0.77867  0.49606  0.20958  1.0000
  C   C17       1.0  0.48326  0.26776  0.26581  1.0000
  C   C18       1.0  0.45967  0.27594  0.32488  1.0000
  C   C19       1.0  0.45952  0.20442  0.33283  1.0000
  N   N5        1.0  0.48261  0.23305  0.27362  1.0000
  C   C20       1.0  0.50858  0.29366  0.19259  1.0000
  H   H13       1.0  0.50425  0.31850  0.18026  1.0000
  H   H14       1.0  0.50199  0.27711  0.12966  1.0000
  H   H15       1.0  0.53928  0.30464  0.20970  1.0000
  C   C21       1.0  0.76753  0.23753  0.26562  1.0000
  C   C22       1.0  0.75935  0.20575  0.32467  1.0000
  C   C23       1.0  0.83083  0.27715  0.33276  1.0000
  N   N6        1.0  0.80222  0.27160  0.27349  1.0000
  C   C24       1.0  0.74161  0.23695  0.19243  1.0000
  H   H16       1.0  0.71678  0.20778  0.18011  1.0000
  H   H17       1.0  0.75816  0.24692  0.12951  1.0000
  H   H18       1.0  0.73063  0.25666  0.20959  1.0000
  C   C25       1.0  0.16632  0.61048  0.30383  1.0000
  N   N7        1.0  0.16580  0.57576  0.30416  1.0000
  H   H19       1.0  0.18131  0.62992  0.25322  1.0000
  C   C26       1.0  0.42477  0.57787  0.30404  1.0000
  N   N8        1.0  0.45952  0.61204  0.30428  1.0000
  H   H20       1.0  0.40538  0.57337  0.25327  1.0000
  C   C27       1.0  0.45740  0.86898  0.30385  1.0000
  N   N9        1.0  0.42323  0.86955  0.30414  1.0000
  H   H21       1.0  0.46187  0.85403  0.25318  1.0000
  C   C28       1.0  0.86610  0.42779  0.30380  1.0000
  N   N10       1.0  0.86665  0.46252  0.30411  1.0000
  H   H22       1.0  0.85111  0.40835  0.25319  1.0000
  C   C29       1.0  0.60755  0.46033  0.30393  1.0000
  N   N11       1.0  0.57279  0.42617  0.30418  1.0000
  H   H23       1.0  0.62693  0.46481  0.25318  1.0000
  C   C30       1.0  0.57494  0.16923  0.30382  1.0000
  N   N12       1.0  0.60913  0.16869  0.30415  1.0000
  H   H24       1.0  0.57048  0.18419  0.25316  1.0000
  C   C31       1.0  0.99827  0.37876  0.26065  1.0000
  C   C32       1.0  0.97563  0.36605  0.34126  1.0000
  C   C33       1.0  0.05800  0.40669  0.34607  1.0000
  N   N13       1.0  0.03812  0.39910  0.26679  1.0000
  C   C34       1.0  0.98186  0.37516  0.16890  1.0000
  H   H25       1.0  0.94994  0.35804  0.16780  1.0000
  H   H26       1.0  0.99293  0.36077  0.12459  1.0000
  H   H27       1.0  0.99094  0.40429  0.14212  1.0000
  C   C35       1.0  0.65673  0.64169  0.26063  1.0000
  C   C36       1.0  0.66924  0.63162  0.34137  1.0000
  C   C37       1.0  0.62860  0.67332  0.34569  1.0000
  N   N14       1.0  0.63639  0.66120  0.26648  1.0000
  C   C38       1.0  0.66064  0.62909  0.16888  1.0000
  H   H28       1.0  0.67776  0.61429  0.16797  1.0000
  H   H29       1.0  0.67519  0.65466  0.12492  1.0000
  H   H30       1.0  0.63161  0.60912  0.14153  1.0000
  C   C39       1.0  0.39391  0.03698  0.26069  1.0000
  C   C40       1.0  0.40368  0.05962  0.34136  1.0000
  C   C41       1.0  0.36189  0.97732  0.34594  1.0000
  N   N15       1.0  0.37438  0.99713  0.26668  1.0000
  C   C42       1.0  0.40694  0.05341  0.16901  1.0000
  H   H31       1.0  0.42172  0.08533  0.16789  1.0000
  H   H32       1.0  0.38157  0.04233  0.12438  1.0000
  H   H33       1.0  0.42705  0.04435  0.14262  1.0000
  C   C43       1.0  0.03408  0.65922  0.26051  1.0000
  C   C44       1.0  0.05669  0.67210  0.34115  1.0000
  C   C45       1.0  0.97441  0.63162  0.34596  1.0000
  N   N16       1.0  0.99423  0.63893  0.26668  1.0000
  C   C46       1.0  0.05048  0.66254  0.16884  1.0000
  H   H34       1.0  0.08240  0.67965  0.16770  1.0000
  H   H35       1.0  0.03941  0.67681  0.12413  1.0000
  H   H36       1.0  0.04139  0.63334  0.14257  1.0000
  C   C47       1.0  0.37625  0.39707  0.26058  1.0000
  C   C48       1.0  0.36325  0.40666  0.34130  1.0000
  C   C49       1.0  0.40368  0.36482  0.34578  1.0000
  N   N17       1.0  0.39651  0.37748  0.26656  1.0000
  C   C50       1.0  0.37293  0.41020  0.16897  1.0000
  H   H37       1.0  0.35580  0.42499  0.16787  1.0000
  H   H38       1.0  0.35869  0.38489  0.12417  1.0000
  H   H39       1.0  0.40214  0.43035  0.14274  1.0000
  C   C51       1.0  0.63847  0.00119  0.26059  1.0000
  C   C52       1.0  0.62864  0.97858  0.34124  1.0000
  C   C53       1.0  0.67042  0.06091  0.34599  1.0000
  N   N18       1.0  0.65799  0.04103  0.26675  1.0000
  C   C54       1.0  0.62551  0.98477  0.16889  1.0000
  H   H40       1.0  0.61071  0.95286  0.16777  1.0000
  H   H41       1.0  0.65090  0.99584  0.12436  1.0000
  H   H42       1.0  0.60542  0.99386  0.14238  1.0000
  C   C55       1.0  0.14059  0.50958  0.35898  1.0000
  C   C56       1.0  0.10282  0.47617  0.36101  1.0000
  C   C57       1.0  0.09707  0.43811  0.34892  1.0000
  C   C58       1.0  0.13015  0.43355  0.33570  1.0000
  C   C59       1.0  0.16868  0.46649  0.33420  1.0000
  C   C60       1.0  0.17311  0.50424  0.34634  1.0000
  H   H43       1.0  0.12608  0.40603  0.32615  1.0000
  H   H44       1.0  0.20061  0.52838  0.34786  1.0000
  H   H45       1.0  0.07888  0.47974  0.36806  1.0000
  C   C61       1.0  0.52569  0.65301  0.35904  1.0000
  C   C62       1.0  0.55910  0.64865  0.36098  1.0000
  C   C63       1.0  0.59717  0.68097  0.34885  1.0000
  C   C64       1.0  0.60171  0.71859  0.33557  1.0000
  C   C65       1.0  0.56877  0.72419  0.33414  1.0000
  C   C66       1.0  0.53103  0.69088  0.34640  1.0000
  H   H46       1.0  0.62922  0.74204  0.32587  1.0000
  H   H47       1.0  0.50689  0.69424  0.34797  1.0000
  H   H48       1.0  0.55554  0.62115  0.36798  1.0000
  C   C67       1.0  0.38226  0.89475  0.35901  1.0000
  C   C68       1.0  0.38660  0.93251  0.36108  1.0000
  C   C69       1.0  0.35428  0.93825  0.34892  1.0000
  C   C70       1.0  0.31665  0.90515  0.33576  1.0000
  C   C71       1.0  0.31108  0.86663  0.33429  1.0000
  C   C72       1.0  0.34441  0.86222  0.34639  1.0000
  H   H49       1.0  0.29319  0.90920  0.32614  1.0000
  H   H50       1.0  0.34105  0.83472  0.34788  1.0000
  H   H51       1.0  0.41411  0.95646  0.36796  1.0000
  C   C73       1.0  0.89185  0.52869  0.35896  1.0000
  C   C74       1.0  0.92962  0.56212  0.36105  1.0000
  C   C75       1.0  0.93535  0.60017  0.34884  1.0000
  C   C76       1.0  0.90225  0.60470  0.33568  1.0000
  C   C77       1.0  0.86373  0.57176  0.33419  1.0000
  C   C78       1.0  0.85932  0.53402  0.34632  1.0000
  H   H52       1.0  0.90631  0.63221  0.32607  1.0000
  H   H53       1.0  0.83182  0.50987  0.34780  1.0000
  H   H54       1.0  0.95356  0.55856  0.36797  1.0000
  C   C79       1.0  0.50662  0.38521  0.35898  1.0000
  C   C80       1.0  0.47319  0.38954  0.36102  1.0000
  C   C81       1.0  0.43513  0.35721  0.34889  1.0000
  C   C82       1.0  0.43061  0.31958  0.33572  1.0000
  C   C83       1.0  0.46356  0.31401  0.33429  1.0000
  C   C84       1.0  0.50130  0.34735  0.34642  1.0000
  H   H55       1.0  0.40310  0.29612  0.32608  1.0000
  H   H56       1.0  0.52545  0.34400  0.34794  1.0000
  H   H57       1.0  0.47674  0.41704  0.36787  1.0000
  C   C85       1.0  0.65009  0.14349  0.35903  1.0000
  C   C86       1.0  0.64575  0.10572  0.36110  1.0000
  C   C87       1.0  0.67807  0.09998  0.34898  1.0000
  C   C88       1.0  0.71569  0.13306  0.33565  1.0000
  C   C89       1.0  0.72127  0.17159  0.33416  1.0000
  C   C90       1.0  0.68795  0.17601  0.34634  1.0000
  H   H58       1.0  0.73914  0.12900  0.32602  1.0000
  H   H59       1.0  0.69131  0.20351  0.34780  1.0000
  H   H60       1.0  0.61824  0.08178  0.36810  1.0000
  C   C91       1.0  0.50696  0.14260  0.35669  1.0000
  C   C92       1.0  0.47366  0.10477  0.35098  1.0000
  C   C93       1.0  0.43535  0.09897  0.34480  1.0000
  C   C94       1.0  0.43041  0.13215  0.34165  1.0000
  C   C95       1.0  0.46335  0.17057  0.34116  1.0000
  C   C96       1.0  0.50131  0.17518  0.34855  1.0000
  H   H61       1.0  0.40279  0.12822  0.33590  1.0000
  H   H62       1.0  0.52527  0.20280  0.35138  1.0000
  H   H63       1.0  0.47737  0.08080  0.35242  1.0000
  C   C97       1.0  0.64891  0.52832  0.35673  1.0000
  C   C98       1.0  0.64438  0.56162  0.35100  1.0000
  C   C99       1.0  0.67689  0.59993  0.34484  1.0000
  C   C100      1.0  0.71500  0.60486  0.34161  1.0000
  C   C101      1.0  0.72049  0.57192  0.34114  1.0000
  C   C102      1.0  0.68714  0.53397  0.34861  1.0000
  H   H64       1.0  0.73870  0.63248  0.33584  1.0000
  H   H65       1.0  0.69079  0.51000  0.35140  1.0000
  H   H66       1.0  0.61670  0.55792  0.35244  1.0000
  C   C103      1.0  0.89267  0.38640  0.35671  1.0000
  C   C104      1.0  0.93050  0.39092  0.35100  1.0000
  C   C105      1.0  0.93629  0.35840  0.34480  1.0000
  C   C106      1.0  0.90310  0.32029  0.34159  1.0000
  C   C107      1.0  0.86468  0.31482  0.34112  1.0000
  C   C108      1.0  0.86009  0.34818  0.34852  1.0000
  H   H67       1.0  0.90702  0.29659  0.33580  1.0000
  H   H68       1.0  0.83247  0.34453  0.35140  1.0000
  H   H69       1.0  0.95448  0.41859  0.35242  1.0000
  C   C109      1.0  0.52537  0.89557  0.35675  1.0000
  C   C110      1.0  0.55866  0.93340  0.35102  1.0000
  C   C111      1.0  0.59697  0.93921  0.34478  1.0000
  C   C112      1.0  0.60192  0.90605  0.34167  1.0000
  C   C113      1.0  0.56899  0.86762  0.34111  1.0000
  C   C114      1.0  0.53102  0.86300  0.34853  1.0000
  H   H70       1.0  0.62955  0.90998  0.33571  1.0000
  H   H71       1.0  0.50707  0.83538  0.35140  1.0000
  H   H72       1.0  0.55494  0.95737  0.35244  1.0000
  C   C115      1.0  0.38344  0.50989  0.35687  1.0000
  C   C116      1.0  0.38801  0.47662  0.35110  1.0000
  C   C117      1.0  0.35552  0.43830  0.34480  1.0000
  C   C118      1.0  0.31739  0.43332  0.34174  1.0000
  C   C119      1.0  0.31188  0.46625  0.34119  1.0000
  C   C120      1.0  0.34521  0.50421  0.34863  1.0000
  H   H73       1.0  0.29371  0.40569  0.33577  1.0000
  H   H74       1.0  0.34153  0.52816  0.35152  1.0000
  H   H75       1.0  0.41570  0.48034  0.35258  1.0000
  C   C121      1.0  0.13970  0.65184  0.35675  1.0000
  C   C122      1.0  0.10186  0.64729  0.35096  1.0000
  C   C123      1.0  0.09605  0.67979  0.34476  1.0000
  C   C124      1.0  0.12922  0.71791  0.34166  1.0000
  C   C125      1.0  0.16765  0.72341  0.34116  1.0000
  C   C126      1.0  0.17227  0.69007  0.34859  1.0000
  H   H76       1.0  0.12528  0.74160  0.33577  1.0000
  H   H77       1.0  0.19989  0.69373  0.35143  1.0000
  H   H78       1.0  0.07789  0.61961  0.35238  1.0000
  C   C127      1.0  0.20880  0.43775  0.38409  1.0000
  N   N19       1.0  0.24368  0.43849  0.38702  1.0000
  H   H79       1.0  0.18776  0.42048  0.42982  1.0000
  C   C128      1.0  0.59751  0.79304  0.38396  1.0000
  N   N20       1.0  0.59677  0.82718  0.38687  1.0000
  H   H80       1.0  0.61483  0.78931  0.42960  1.0000
  C   C129      1.0  0.24221  0.82650  0.38406  1.0000
  N   N21       1.0  0.20809  0.79160  0.38702  1.0000
  H   H81       1.0  0.24598  0.84750  0.42991  1.0000
  C   C130      1.0  0.82357  0.60045  0.38406  1.0000
  N   N22       1.0  0.78868  0.59968  0.38700  1.0000
  H   H82       1.0  0.84460  0.61773  0.42978  1.0000
  C   C131      1.0  0.43487  0.24516  0.38415  1.0000
  N   N23       1.0  0.43561  0.21102  0.38704  1.0000
  H   H83       1.0  0.41756  0.24889  0.42983  1.0000
  C   C132      1.0  0.79013  0.21172  0.38393  1.0000
  N   N24       1.0  0.82424  0.24663  0.38693  1.0000
  H   H84       1.0  0.78636  0.19072  0.42975  1.0000
  C   C133      1.0  0.12350  0.58864  0.43357  1.0000
  C   C134      1.0  0.14402  0.61812  0.36715  1.0000
  C   C135      1.0  0.14478  0.54734  0.36574  1.0000
  N   N25       1.0  0.12416  0.55455  0.42867  1.0000
  C   C136      1.0  0.10130  0.59163  0.51097  1.0000
  H   H85       1.0  0.10570  0.62103  0.51956  1.0000
  H   H86       1.0  0.11083  0.58411  0.57328  1.0000
  H   H87       1.0  0.07009  0.57115  0.50155  1.0000
  C   C137      1.0  0.44663  0.55690  0.43375  1.0000
  C   C138      1.0  0.41714  0.54794  0.36737  1.0000
  C   C139      1.0  0.48794  0.61946  0.36585  1.0000
  N   N26       1.0  0.48073  0.59164  0.42882  1.0000
  C   C140      1.0  0.44365  0.53171  0.51115  1.0000
  H   H88       1.0  0.41424  0.50670  0.51973  1.0000
  H   H89       1.0  0.45116  0.54875  0.57346  1.0000
  H   H90       1.0  0.46412  0.52097  0.50172  1.0000
  C   C141      1.0  0.47838  0.91178  0.43363  1.0000
  C   C142      1.0  0.48732  0.89123  0.36724  1.0000
  C   C143      1.0  0.41583  0.89057  0.36572  1.0000
  N   N27       1.0  0.44365  0.91116  0.42870  1.0000
  C   C144      1.0  0.50357  0.93396  0.51103  1.0000
  H   H91       1.0  0.52856  0.92953  0.51963  1.0000
  H   H92       1.0  0.48652  0.92445  0.57335  1.0000
  H   H93       1.0  0.51433  0.96518  0.50160  1.0000
  C   C145      1.0  0.90892  0.44962  0.43353  1.0000
  C   C146      1.0  0.88836  0.42013  0.36718  1.0000
  C   C147      1.0  0.88767  0.49094  0.36567  1.0000
  N   N28       1.0  0.90828  0.48372  0.42861  1.0000
  C   C148      1.0  0.93111  0.44662  0.51094  1.0000
  H   H94       1.0  0.92668  0.41721  0.51955  1.0000
  H   H95       1.0  0.92160  0.45416  0.57325  1.0000
  H   H96       1.0  0.96233  0.46708  0.50150  1.0000
  C   C149      1.0  0.58570  0.48134  0.43360  1.0000
  C   C150      1.0  0.61520  0.49028  0.36724  1.0000
  C   C151      1.0  0.54436  0.41878  0.36572  1.0000
  N   N29       1.0  0.55159  0.44661  0.42867  1.0000
  C   C152      1.0  0.58869  0.50655  0.51097  1.0000
  H   H97       1.0  0.61811  0.53153  0.51959  1.0000
  H   H98       1.0  0.58114  0.48950  0.57330  1.0000
  H   H99       1.0  0.56825  0.51731  0.50148  1.0000
  C   C153      1.0  0.55395  0.12641  0.43357  1.0000
  C   C154      1.0  0.54500  0.14691  0.36709  1.0000
  C   C155      1.0  0.61652  0.14767  0.36573  1.0000
  N   N30       1.0  0.58870  0.12706  0.42868  1.0000
  C   C156      1.0  0.52875  0.10421  0.51095  1.0000
  H   H100      1.0  0.50376  0.10862  0.51955  1.0000
  H   H101      1.0  0.54580  0.11373  0.57328  1.0000
  H   H102      1.0  0.51802  0.07300  0.50152  1.0000
  C   C157      1.0  0.99679  0.37473  0.42328  1.0000
  N   N31       1.0  0.03656  0.39555  0.42334  1.0000
  H   H103      1.0  0.98268  0.36933  0.48407  1.0000
  C   C158      1.0  0.66039  0.64402  0.42330  1.0000
  N   N32       1.0  0.63949  0.66289  0.42314  1.0000
  H   H104      1.0  0.66546  0.63506  0.48411  1.0000
  C   C159      1.0  0.39094  0.03841  0.42326  1.0000
  N   N33       1.0  0.37196  0.99864  0.42335  1.0000
  H   H105      1.0  0.39951  0.05251  0.48408  1.0000
  C   C160      1.0  0.03560  0.66384  0.42318  1.0000
  N   N34       1.0  0.99582  0.64296  0.42325  1.0000
  H   H106      1.0  0.04971  0.66925  0.48395  1.0000
  C   C161      1.0  0.37146  0.39367  0.42318  1.0000
  N   N35       1.0  0.39227  0.37472  0.42320  1.0000
  H   H107      1.0  0.36583  0.40219  0.48397  1.0000
  C   C162      1.0  0.64129  0.99971  0.42324  1.0000
  N   N36       1.0  0.66024  0.03948  0.42328  1.0000
  H   H108      1.0  0.63267  0.98559  0.48404  1.0000
