data_image0
_chemical_formula_structural       C3NC3NC5NC5NC20H18C4H4C3NC3NC5NC5NC20H18C4H4C3NC3NC5NC5NC20H18C4H4NC2HN2C2HN2C2HN2C2HN2C2HN2C2HNC8H8C8H8C8H8CNCNH2NCNCNH2NCNCNH2NCNCNH2NCNCNH2NCNCNH2N
_chemical_formula_sum              "C168 N42 H108"
_cell_length_a       50.4993
_cell_length_b       50.4993
_cell_length_c       14.7739
_cell_angle_alpha    90.016
_cell_angle_beta     89.984
_cell_angle_gamma    120

_space_group_name_H-M_alt    "P 1"
_space_group_IT_number       1

loop_
  _space_group_symop_operation_xyz
  'x, y, z'

loop_
  _atom_site_type_symbol
  _atom_site_label
  _atom_site_symmetry_multiplicity
  _atom_site_fract_x
  _atom_site_fract_y
  _atom_site_fract_z
  _atom_site_occupancy
  C   C1        1.0  0.02356  0.63953  0.33678  1.0000
  C   C2        1.0  0.05518  0.65547  0.33734  1.0000
  C   C3        1.0  0.06541  0.63437  0.33804  1.0000
  N   N1        1.0  0.03959  0.60651  0.33900  1.0000
  C   C4        1.0  0.01363  0.60827  0.33739  1.0000
  C   C5        1.0  0.98247  0.58444  0.33559  1.0000
  C   C6        1.0  0.97270  0.55267  0.33586  1.0000
  N   N2        1.0  0.98999  0.53911  0.33988  1.0000
  C   C7        1.0  0.97282  0.50824  0.33653  1.0000
  C   C8        1.0  0.94250  0.50162  0.33020  1.0000
  C   C9        1.0  0.94242  0.52887  0.33005  1.0000
  C   C10       1.0  0.98277  0.48638  0.33695  1.0000
  C   C11       1.0  0.01404  0.49403  0.33814  1.0000
  N   N3        1.0  0.03986  0.52189  0.33913  1.0000
  C   C12       1.0  0.06582  0.52012  0.33747  1.0000
  C   C13       1.0  0.05590  0.48886  0.33701  1.0000
  C   C14       1.0  0.02427  0.47292  0.33758  1.0000
  C   C15       1.0  0.09698  0.54395  0.33552  1.0000
  C   C16       1.0  0.10675  0.57572  0.33594  1.0000
  N   N4        1.0  0.08946  0.58928  0.33996  1.0000
  C   C17       1.0  0.10664  0.62015  0.33670  1.0000
  C   C18       1.0  0.13696  0.62678  0.33039  1.0000
  C   C19       1.0  0.13703  0.59951  0.33012  1.0000
  C   C20       1.0  0.09669  0.64201  0.33693  1.0000
  C   C21       1.0  0.11988  0.67355  0.32947  1.0000
  C   C22       1.0  0.17181  0.73366  0.30646  1.0000
  C   C23       1.0  0.15221  0.71761  0.23303  1.0000
  C   C24       1.0  0.12684  0.68805  0.24407  1.0000
  C   C25       1.0  0.12032  0.53588  0.32752  1.0000
  C   C26       1.0  0.17307  0.52900  0.30652  1.0000
  C   C27       1.0  0.15546  0.52832  0.23085  1.0000
  C   C28       1.0  0.12963  0.53181  0.24098  1.0000
  C   C29       1.0  0.95959  0.45485  0.32939  1.0000
  C   C30       1.0  0.95271  0.44034  0.24398  1.0000
  C   C31       1.0  0.92739  0.41076  0.23290  1.0000
  C   C32       1.0  0.90780  0.39465  0.30632  1.0000
  C   C33       1.0  0.95911  0.59250  0.32763  1.0000
  C   C34       1.0  0.94989  0.59672  0.24116  1.0000
  C   C35       1.0  0.90628  0.59922  0.30670  1.0000
  C   C36       1.0  0.92403  0.60014  0.23108  1.0000
  H   H1        1.0  0.91775  0.60240  0.16689  1.0000
  H   H2        1.0  0.96130  0.59621  0.18449  1.0000
  H   H3        1.0  0.01023  0.64949  0.33561  1.0000
  H   H4        1.0  0.06831  0.67878  0.33664  1.0000
  H   H5        1.0  0.03967  0.58753  0.33885  1.0000
  H   H6        1.0  0.03978  0.54086  0.33846  1.0000
  H   H7        1.0  0.92317  0.53061  0.32434  1.0000
  H   H8        1.0  0.92331  0.48060  0.32461  1.0000
  H   H9        1.0  0.96551  0.45165  0.18843  1.0000
  H   H10       1.0  0.92293  0.40142  0.16933  1.0000
  H   H11       1.0  0.01114  0.44962  0.33686  1.0000
  H   H12       1.0  0.06922  0.47890  0.33573  1.0000
  H   H13       1.0  0.15614  0.64779  0.32452  1.0000
  H   H14       1.0  0.15627  0.59777  0.32425  1.0000
  H   H15       1.0  0.11830  0.53244  0.18430  1.0000
  H   H16       1.0  0.16177  0.52613  0.16665  1.0000
  H   H17       1.0  0.11403  0.67677  0.18851  1.0000
  H   H18       1.0  0.15673  0.72694  0.16945  1.0000
  C   C37       1.0  0.19945  0.52701  0.29289  1.0000
  C   C38       1.0  0.88212  0.36586  0.29125  1.0000
  C   C39       1.0  0.87983  0.60110  0.29307  1.0000
  C   C40       1.0  0.19758  0.76239  0.29141  1.0000
  H   H19       1.0  0.20436  0.52368  0.23009  1.0000
  H   H20       1.0  0.87994  0.35624  0.23089  1.0000
  H   H21       1.0  0.87498  0.60453  0.23033  1.0000
  H   H22       1.0  0.19981  0.77203  0.23110  1.0000
  C   C41       1.0  0.46392  0.47178  0.33709  1.0000
  C   C42       1.0  0.44798  0.48748  0.33765  1.0000
  C   C43       1.0  0.46909  0.51881  0.33807  1.0000
  N   N5        1.0  0.49695  0.52084  0.33904  1.0000
  C   C44       1.0  0.49518  0.49311  0.33749  1.0000
  C   C45       1.0  0.51901  0.48578  0.33549  1.0000
  C   C46       1.0  0.55077  0.50777  0.33569  1.0000
  N   N6        1.0  0.56434  0.53862  0.33971  1.0000
  C   C47       1.0  0.59521  0.55231  0.33627  1.0000
  C   C48       1.0  0.60183  0.52862  0.32987  1.0000
  C   C49       1.0  0.57457  0.50128  0.32968  1.0000
  C   C50       1.0  0.61708  0.58412  0.33667  1.0000
  C   C51       1.0  0.60944  0.60776  0.33799  1.0000
  N   N7        1.0  0.58158  0.60572  0.33898  1.0000
  C   C52       1.0  0.58335  0.63345  0.33742  1.0000
  C   C53       1.0  0.61461  0.65478  0.33695  1.0000
  C   C54       1.0  0.63055  0.63909  0.33753  1.0000
  C   C55       1.0  0.55953  0.64078  0.33554  1.0000
  C   C56       1.0  0.52776  0.61879  0.33567  1.0000
  N   N8        1.0  0.51419  0.58795  0.33967  1.0000
  C   C57       1.0  0.48332  0.57425  0.33629  1.0000
  C   C58       1.0  0.47671  0.59795  0.32994  1.0000
  C   C59       1.0  0.50397  0.62528  0.32978  1.0000
  C   C60       1.0  0.46145  0.54244  0.33670  1.0000
  C   C61       1.0  0.42992  0.53410  0.32924  1.0000
  C   C62       1.0  0.36980  0.52588  0.30638  1.0000
  C   C63       1.0  0.38584  0.52232  0.23292  1.0000
  C   C64       1.0  0.41539  0.52648  0.24390  1.0000
  C   C65       1.0  0.56760  0.67220  0.32748  1.0000
  C   C66       1.0  0.57449  0.73182  0.30643  1.0000
  C   C67       1.0  0.57517  0.71487  0.23077  1.0000
  C   C68       1.0  0.57165  0.68555  0.24092  1.0000
  C   C69       1.0  0.64861  0.59247  0.32916  1.0000
  C   C70       1.0  0.66316  0.60014  0.24382  1.0000
  C   C71       1.0  0.69275  0.60442  0.23283  1.0000
  C   C72       1.0  0.70883  0.60092  0.30628  1.0000
  C   C73       1.0  0.51094  0.45436  0.32754  1.0000
  C   C74       1.0  0.50672  0.44089  0.24108  1.0000
  C   C75       1.0  0.50425  0.39481  0.30659  1.0000
  C   C76       1.0  0.50332  0.41162  0.23097  1.0000
  H   H23       1.0  0.50105  0.40308  0.16679  1.0000
  H   H24       1.0  0.50721  0.45280  0.18441  1.0000
  H   H25       1.0  0.45395  0.44849  0.33579  1.0000
  H   H26       1.0  0.42468  0.47730  0.33676  1.0000
  H   H27       1.0  0.51593  0.53989  0.33825  1.0000
  H   H28       1.0  0.56260  0.58666  0.33849  1.0000
  H   H29       1.0  0.57283  0.48030  0.32406  1.0000
  H   H30       1.0  0.62285  0.53044  0.32423  1.0000
  H   H31       1.0  0.65189  0.60169  0.18828  1.0000
  H   H32       1.0  0.70214  0.60936  0.16932  1.0000
  H   H33       1.0  0.65385  0.64926  0.33667  1.0000
  H   H34       1.0  0.62458  0.67807  0.33572  1.0000
  H   H35       1.0  0.45569  0.59613  0.32448  1.0000
  H   H36       1.0  0.50571  0.64627  0.32438  1.0000
  H   H37       1.0  0.57101  0.67356  0.18426  1.0000
  H   H38       1.0  0.57732  0.72334  0.16655  1.0000
  H   H39       1.0  0.42666  0.52495  0.18831  1.0000
  H   H40       1.0  0.37648  0.51746  0.16937  1.0000
  C   C77       1.0  0.57651  0.76021  0.29278  1.0000
  C   C78       1.0  0.73763  0.60406  0.29129  1.0000
  C   C79       1.0  0.50238  0.36648  0.29294  1.0000
  C   C80       1.0  0.34106  0.52292  0.29138  1.0000
  H   H41       1.0  0.57984  0.76843  0.22999  1.0000
  H   H42       1.0  0.74729  0.61153  0.23101  1.0000
  H   H43       1.0  0.49896  0.35820  0.23021  1.0000
  H   H44       1.0  0.33142  0.51549  0.23107  1.0000
  C   C81       1.0  0.63169  0.07990  0.33674  1.0000
  C   C82       1.0  0.61600  0.04827  0.33732  1.0000
  C   C83       1.0  0.58467  0.03804  0.33788  1.0000
  N   N9        1.0  0.58263  0.06386  0.33890  1.0000
  C   C84       1.0  0.61036  0.08982  0.33734  1.0000
  C   C85       1.0  0.61769  0.12098  0.33556  1.0000
  C   C86       1.0  0.59569  0.13075  0.33583  1.0000
  N   N10       1.0  0.56484  0.11347  0.33981  1.0000
  C   C87       1.0  0.55114  0.13064  0.33652  1.0000
  C   C88       1.0  0.57484  0.16096  0.33017  1.0000
  C   C89       1.0  0.60217  0.16103  0.32994  1.0000
  C   C90       1.0  0.51933  0.12069  0.33686  1.0000
  C   C91       1.0  0.49570  0.08941  0.33794  1.0000
  N   N11       1.0  0.49775  0.06360  0.33892  1.0000
  C   C92       1.0  0.47002  0.03763  0.33722  1.0000
  C   C93       1.0  0.44868  0.04756  0.33656  1.0000
  C   C94       1.0  0.46437  0.07918  0.33718  1.0000
  C   C95       1.0  0.46269  0.00647  0.33540  1.0000
  C   C96       1.0  0.48468  0.99670  0.33559  1.0000
  N   N12       1.0  0.51553  0.01399  0.33952  1.0000
  C   C97       1.0  0.52923  0.99682  0.33622  1.0000
  C   C98       1.0  0.50553  0.96650  0.32997  1.0000
  C   C99       1.0  0.47820  0.96642  0.32985  1.0000
  C   C100      1.0  0.56104  0.00677  0.33665  1.0000
  C   C101      1.0  0.56938  0.98357  0.32915  1.0000
  C   C102      1.0  0.57761  0.93167  0.30627  1.0000
  C   C103      1.0  0.58114  0.95124  0.23278  1.0000
  C   C104      1.0  0.57695  0.97661  0.24377  1.0000
  C   C105      1.0  0.43128  0.98312  0.32731  1.0000
  C   C106      1.0  0.37164  0.93041  0.30638  1.0000
  C   C107      1.0  0.38860  0.94799  0.23068  1.0000
  C   C108      1.0  0.41791  0.97381  0.24078  1.0000
  C   C109      1.0  0.51098  0.14387  0.32924  1.0000
  C   C110      1.0  0.50341  0.15078  0.24383  1.0000
  C   C111      1.0  0.49911  0.17607  0.23276  1.0000
  C   C112      1.0  0.50258  0.19566  0.30618  1.0000
  C   C113      1.0  0.64910  0.14434  0.32756  1.0000
  C   C114      1.0  0.66255  0.15356  0.24109  1.0000
  C   C115      1.0  0.70866  0.19717  0.30661  1.0000
  C   C116      1.0  0.69182  0.17944  0.23098  1.0000
  H   H45       1.0  0.70038  0.18569  0.16680  1.0000
  H   H46       1.0  0.65063  0.14215  0.18442  1.0000
  H   H47       1.0  0.65498  0.09322  0.33554  1.0000
  H   H48       1.0  0.62618  0.03514  0.33644  1.0000
  H   H49       1.0  0.56358  0.06378  0.33854  1.0000
  H   H50       1.0  0.51680  0.06367  0.33885  1.0000
  H   H51       1.0  0.62315  0.18028  0.32438  1.0000
  H   H52       1.0  0.57301  0.18015  0.32463  1.0000
  H   H53       1.0  0.50189  0.13795  0.18830  1.0000
  H   H54       1.0  0.49426  0.18055  0.16918  1.0000
  H   H55       1.0  0.45419  0.09231  0.33634  1.0000
  H   H56       1.0  0.42540  0.03423  0.33523  1.0000
  H   H57       1.0  0.50735  0.94729  0.32472  1.0000
  H   H58       1.0  0.45721  0.94716  0.32455  1.0000
  H   H59       1.0  0.42991  0.98510  0.18409  1.0000
  H   H60       1.0  0.38012  0.94164  0.16648  1.0000
  H   H61       1.0  0.57848  0.98942  0.18819  1.0000
  H   H62       1.0  0.58598  0.94672  0.16924  1.0000
  C   C117      1.0  0.34326  0.90402  0.29278  1.0000
  C   C118      1.0  0.49948  0.22134  0.29113  1.0000
  C   C119      1.0  0.73698  0.22363  0.29297  1.0000
  C   C120      1.0  0.58061  0.90592  0.29129  1.0000
  H   H63       1.0  0.33504  0.89910  0.22999  1.0000
  H   H64       1.0  0.49209  0.22355  0.23074  1.0000
  H   H65       1.0  0.74527  0.22848  0.23023  1.0000
  H   H66       1.0  0.58809  0.90372  0.23104  1.0000
  N   N13       1.0  0.25718  0.52819  0.27401  1.0000
  C   C121      1.0  0.28387  0.52796  0.26725  1.0000
  C   C122      1.0  0.29976  0.52889  0.34695  1.0000
  H   H67       1.0  0.29214  0.52757  0.20454  1.0000
  N   N14       1.0  0.32656  0.52964  0.35050  1.0000
  N   N15       1.0  0.57534  0.81676  0.27387  1.0000
  C   C123      1.0  0.57558  0.84368  0.26713  1.0000
  C   C124      1.0  0.57461  0.85863  0.34682  1.0000
  H   H68       1.0  0.57597  0.85233  0.20441  1.0000
  N   N16       1.0  0.57385  0.88468  0.35035  1.0000
  N   N17       1.0  0.28672  0.84629  0.27395  1.0000
  C   C125      1.0  0.25980  0.81960  0.26722  1.0000
  C   C126      1.0  0.24485  0.80371  0.34694  1.0000
  H   H69       1.0  0.25114  0.81132  0.20452  1.0000
  N   N18       1.0  0.21880  0.77691  0.35051  1.0000
  N   N19       1.0  0.82190  0.59948  0.27405  1.0000
  C   C127      1.0  0.79513  0.59955  0.26725  1.0000
  C   C128      1.0  0.77911  0.59839  0.34691  1.0000
  H   H70       1.0  0.78688  0.59994  0.20453  1.0000
  N   N20       1.0  0.75223  0.59746  0.35042  1.0000
  N   N21       1.0  0.50402  0.31017  0.27392  1.0000
  C   C129      1.0  0.50397  0.28335  0.26711  1.0000
  C   C130      1.0  0.50509  0.26847  0.34678  1.0000
  H   H71       1.0  0.50358  0.27469  0.20439  1.0000
  N   N22       1.0  0.50600  0.24251  0.35030  1.0000
  N   N23       1.0  0.79330  0.28157  0.27398  1.0000
  C   C131      1.0  0.82014  0.30834  0.26719  1.0000
  C   C132      1.0  0.83500  0.32435  0.34687  1.0000
  H   H72       1.0  0.82879  0.31660  0.20448  1.0000
  N   N24       1.0  0.86095  0.35123  0.35040  1.0000
  C   C133      1.0  0.13892  0.68958  0.40359  1.0000
  C   C134      1.0  0.16442  0.71912  0.39226  1.0000
  C   C135      1.0  0.13739  0.53612  0.40363  1.0000
  C   C136      1.0  0.16327  0.53263  0.39328  1.0000
  C   C137      1.0  0.91511  0.40920  0.39212  1.0000
  C   C138      1.0  0.94055  0.43878  0.40347  1.0000
  C   C139      1.0  0.94194  0.59209  0.40374  1.0000
  C   C140      1.0  0.91603  0.59551  0.39342  1.0000
  H   H73       1.0  0.90384  0.59438  0.45006  1.0000
  H   H74       1.0  0.94756  0.58819  0.46695  1.0000
  H   H75       1.0  0.94451  0.44899  0.46571  1.0000
  H   H76       1.0  0.90159  0.39863  0.44712  1.0000
  H   H77       1.0  0.13170  0.53990  0.46690  1.0000
  H   H78       1.0  0.17534  0.53357  0.44996  1.0000
  H   H79       1.0  0.17797  0.72964  0.44725  1.0000
  H   H80       1.0  0.13494  0.67936  0.46579  1.0000
  C   C141      1.0  0.41391  0.53712  0.40341  1.0000
  C   C142      1.0  0.38436  0.53307  0.39214  1.0000
  C   C143      1.0  0.56739  0.68906  0.40358  1.0000
  C   C144      1.0  0.57089  0.71842  0.39321  1.0000
  C   C145      1.0  0.69425  0.59366  0.39202  1.0000
  C   C146      1.0  0.66465  0.58949  0.40330  1.0000
  C   C147      1.0  0.51140  0.43762  0.40362  1.0000
  C   C148      1.0  0.50799  0.40829  0.39331  1.0000
  H   H81       1.0  0.50912  0.39724  0.44994  1.0000
  H   H82       1.0  0.51528  0.44714  0.46684  1.0000
  H   H83       1.0  0.65441  0.58320  0.46548  1.0000
  H   H84       1.0  0.70478  0.59066  0.44702  1.0000
  H   H85       1.0  0.56365  0.67962  0.46688  1.0000
  H   H86       1.0  0.56998  0.72959  0.44988  1.0000
  H   H87       1.0  0.37386  0.53612  0.44715  1.0000
  H   H88       1.0  0.42415  0.54340  0.46558  1.0000
  C   C149      1.0  0.56641  0.96458  0.40333  1.0000
  C   C150      1.0  0.57046  0.93908  0.39206  1.0000
  C   C151      1.0  0.41442  0.96609  0.40346  1.0000
  C   C152      1.0  0.38504  0.94025  0.39315  1.0000
  C   C153      1.0  0.50978  0.18833  0.39200  1.0000
  C   C154      1.0  0.51394  0.16290  0.40334  1.0000
  C   C155      1.0  0.66586  0.16151  0.40367  1.0000
  C   C156      1.0  0.69518  0.18744  0.39333  1.0000
  H   H89       1.0  0.70624  0.19961  0.44997  1.0000
  H   H90       1.0  0.65633  0.15589  0.46688  1.0000
  H   H91       1.0  0.52016  0.15894  0.46558  1.0000
  H   H92       1.0  0.51275  0.20187  0.44699  1.0000
  H   H93       1.0  0.42387  0.97181  0.46676  1.0000
  H   H94       1.0  0.37389  0.92818  0.44984  1.0000
  H   H95       1.0  0.56746  0.92556  0.44710  1.0000
  H   H96       1.0  0.56017  0.96857  0.46554  1.0000
  C   C157      1.0  0.24429  0.52919  0.35405  1.0000
  N   N25       1.0  0.28704  0.53029  0.42660  1.0000
  C   C158      1.0  0.26018  0.53041  0.43455  1.0000
  N   N26       1.0  0.25020  0.53172  0.51861  1.0000
  H   H97       1.0  0.23119  0.53179  0.52812  1.0000
  H   H98       1.0  0.26192  0.53247  0.57177  1.0000
  N   N27       1.0  0.21816  0.52986  0.35655  1.0000
  C   C159      1.0  0.57430  0.80286  0.35392  1.0000
  N   N28       1.0  0.57318  0.84452  0.42647  1.0000
  C   C160      1.0  0.57306  0.81753  0.43441  1.0000
  N   N29       1.0  0.57172  0.80625  0.51847  1.0000
  H   H99       1.0  0.57164  0.78716  0.52798  1.0000
  H   H100      1.0  0.57096  0.81722  0.57163  1.0000
  N   N30       1.0  0.57363  0.77607  0.35642  1.0000
  C   C161      1.0  0.30061  0.85919  0.35398  1.0000
  N   N31       1.0  0.25896  0.81643  0.42657  1.0000
  C   C162      1.0  0.28595  0.84330  0.43449  1.0000
  N   N32       1.0  0.29723  0.85327  0.51854  1.0000
  H   H101      1.0  0.31631  0.87229  0.52803  1.0000
  H   H102      1.0  0.28626  0.84155  0.57172  1.0000
  N   N33       1.0  0.32740  0.88531  0.35645  1.0000
  C   C163      1.0  0.83477  0.59847  0.35410  1.0000
  N   N34       1.0  0.79181  0.59699  0.42657  1.0000
  C   C164      1.0  0.81876  0.59705  0.43456  1.0000
  N   N35       1.0  0.82870  0.59571  0.51862  1.0000
  H   H103      1.0  0.84777  0.59575  0.52816  1.0000
  H   H104      1.0  0.81689  0.59481  0.57176  1.0000
  N   N36       1.0  0.86098  0.59798  0.35663  1.0000
  C   C165      1.0  0.50500  0.32405  0.35398  1.0000
  N   N37       1.0  0.50646  0.28257  0.42644  1.0000
  C   C166      1.0  0.50640  0.30947  0.43444  1.0000
  N   N38       1.0  0.50772  0.32075  0.51850  1.0000
  H   H105      1.0  0.50766  0.33977  0.52804  1.0000
  H   H106      1.0  0.50859  0.30983  0.57164  1.0000
  N   N39       1.0  0.50550  0.35076  0.35651  1.0000
  C   C167      1.0  0.77942  0.26869  0.35402  1.0000
  N   N40       1.0  0.82089  0.31163  0.42652  1.0000
  C   C168      1.0  0.79399  0.28468  0.43449  1.0000
  N   N41       1.0  0.78270  0.27473  0.51855  1.0000
  H   H107      1.0  0.76367  0.25566  0.52807  1.0000
  H   H108      1.0  0.79360  0.28652  0.57169  1.0000
  N   N42       1.0  0.75271  0.24247  0.35653  1.0000
