data_image0
_chemical_formula_structural       C3NOCH3C3NOCH3C3NOCH3C3NOCH3CNHCNHCNHCNHCNHCNHCNHCNHC3NOCH3C3NOCH3C3NOCH3C3NOCH3C3NOCH3C3NOCH3C3NOCH3C3NOCH3CNHCNHCNHCNHCNHCNHCNHCNHCNHCNHCNCNCNCNCNCNCNCNCNCNCNCNCNCNCNCNCNCNCNCNCNCNCNCNCNCNCNCNCNCNCNCNCNCNCNCNCNCNCNCNCNCNCNCNCNCNCNCNCNCNCNCNCNCNCNCNCNCNCNCNCNHCNHCNHCNHC3NOCH3C3NOCH3C3NOCH3C3NOCH3C3NOCH3C3NOCH3C3NOCH3C3NOCH3CNHCNHCNHCNHCNHCNHCNHCNHC3NOCH3C3NOCH3C3NOCH3C3NOCH3C3NOCH3C3NOCH3C3NOCH3C3NOCH3C3NOCH3C3NOCH3
_chemical_formula_sum              "C210 N120 O30 H120"
_cell_length_a       43.4713
_cell_length_b       43.4713
_cell_length_c       14.8861
_cell_angle_alpha    90
_cell_angle_beta     90
_cell_angle_gamma    90

_space_group_name_H-M_alt    "P 1"
_space_group_IT_number       1

loop_
  _space_group_symop_operation_xyz
  'x, y, z'

loop_
  _atom_site_type_symbol
  _atom_site_label
  _atom_site_symmetry_multiplicity
  _atom_site_fract_x
  _atom_site_fract_y
  _atom_site_fract_z
  _atom_site_occupancy
  C   C1        1.0  0.36404  0.02463  0.33558  1.0000
  C   C2        1.0  0.37466  0.05464  0.35738  1.0000
  C   C3        1.0  0.31198  0.04052  0.34995  1.0000
  N   N1        1.0  0.33339  0.01857  0.33347  1.0000
  O   O1        1.0  0.38334  0.00068  0.31618  1.0000
  C   C4        1.0  0.38763  0.99624  0.22119  1.0000
  H   H1        1.0  0.36593  0.99085  0.18757  1.0000
  H   H2        1.0  0.40317  0.97683  0.21172  1.0000
  H   H3        1.0  0.39803  0.01647  0.18986  1.0000
  C   C5        1.0  0.64395  0.98211  0.33520  1.0000
  C   C6        1.0  0.63318  0.95182  0.35279  1.0000
  C   C7        1.0  0.69587  0.96606  0.35196  1.0000
  N   N2        1.0  0.67460  0.98819  0.33599  1.0000
  O   O2        1.0  0.62478  0.00627  0.31693  1.0000
  C   C8        1.0  0.62077  0.01158  0.22224  1.0000
  H   H4        1.0  0.64253  0.01763  0.18994  1.0000
  H   H5        1.0  0.60494  0.03082  0.21397  1.0000
  H   H6        1.0  0.61082  0.99152  0.18875  1.0000
  C   C9        1.0  0.98262  0.36348  0.33556  1.0000
  C   C10       1.0  0.95260  0.37410  0.35729  1.0000
  C   C11       1.0  0.96673  0.31142  0.34991  1.0000
  N   N3        1.0  0.98869  0.33283  0.33347  1.0000
  O   O3        1.0  0.00657  0.38279  0.31626  1.0000
  C   C12       1.0  0.01106  0.38708  0.22130  1.0000
  H   H7        1.0  0.01647  0.36538  0.18770  1.0000
  H   H8        1.0  0.03047  0.40262  0.21191  1.0000
  H   H9        1.0  0.99084  0.39747  0.18988  1.0000
  C   C13       1.0  0.02517  0.64339  0.33513  1.0000
  C   C14       1.0  0.05545  0.63262  0.35277  1.0000
  C   C15       1.0  0.04124  0.69531  0.35172  1.0000
  N   N4        1.0  0.01910  0.67405  0.33580  1.0000
  O   O4        1.0  0.00100  0.62423  0.31687  1.0000
  C   C16       1.0  0.99572  0.62018  0.22218  1.0000
  H   H10       1.0  0.98968  0.64193  0.18980  1.0000
  H   H11       1.0  0.97646  0.60436  0.21393  1.0000
  H   H12       1.0  0.01577  0.61021  0.18877  1.0000
  C   C17       1.0  0.15661  0.57630  0.32266  1.0000
  N   N5        1.0  0.18675  0.56881  0.32217  1.0000
  H   H13       1.0  0.15090  0.59853  0.30775  1.0000
  C   C18       1.0  0.85160  0.42972  0.34805  1.0000
  N   N6        1.0  0.82145  0.43699  0.34275  1.0000
  H   H14       1.0  0.85749  0.40731  0.33646  1.0000
  C   C19       1.0  0.57698  0.85061  0.32281  1.0000
  N   N7        1.0  0.56953  0.82046  0.32245  1.0000
  H   H15       1.0  0.59922  0.85634  0.30809  1.0000
  C   C20       1.0  0.43039  0.15559  0.34765  1.0000
  N   N8        1.0  0.43770  0.18573  0.34225  1.0000
  H   H16       1.0  0.40799  0.14971  0.33578  1.0000
  C   C21       1.0  0.17097  0.11624  0.31515  1.0000
  N   N9        1.0  0.18380  0.08749  0.31600  1.0000
  H   H17       1.0  0.14946  0.11863  0.28837  1.0000
  C   C22       1.0  0.83688  0.89027  0.31952  1.0000
  N   N10       1.0  0.82406  0.91902  0.32060  1.0000
  H   H18       1.0  0.85845  0.88792  0.29313  1.0000
  C   C23       1.0  0.89095  0.17035  0.31682  1.0000
  N   N11       1.0  0.91969  0.18319  0.31734  1.0000
  H   H19       1.0  0.88857  0.14876  0.29059  1.0000
  C   C24       1.0  0.11703  0.83623  0.31763  1.0000
  N   N12       1.0  0.08827  0.82342  0.31904  1.0000
  H   H20       1.0  0.11940  0.85771  0.29066  1.0000
  C   C25       1.0  0.29147  0.63537  0.29108  1.0000
  C   C26       1.0  0.32082  0.64162  0.32821  1.0000
  C   C27       1.0  0.29601  0.58151  0.32412  1.0000
  N   N13       1.0  0.28038  0.60635  0.29250  1.0000
  O   O5        1.0  0.27199  0.65744  0.25856  1.0000
  C   C28       1.0  0.27496  0.66204  0.16331  1.0000
  H   H21       1.0  0.29816  0.66954  0.14531  1.0000
  H   H22       1.0  0.25888  0.68005  0.14347  1.0000
  H   H23       1.0  0.26921  0.64115  0.12607  1.0000
  C   C29       1.0  0.71663  0.37102  0.29289  1.0000
  C   C30       1.0  0.68709  0.36474  0.32876  1.0000
  C   C31       1.0  0.71200  0.42481  0.32649  1.0000
  N   N14       1.0  0.72777  0.40001  0.29518  1.0000
  O   O6        1.0  0.73621  0.34898  0.26080  1.0000
  C   C32       1.0  0.73361  0.34449  0.16542  1.0000
  H   H24       1.0  0.71048  0.33702  0.14657  1.0000
  H   H25       1.0  0.74976  0.32650  0.14594  1.0000
  H   H26       1.0  0.73952  0.36542  0.12857  1.0000
  C   C33       1.0  0.63627  0.71584  0.29262  1.0000
  C   C34       1.0  0.64249  0.68637  0.32901  1.0000
  C   C35       1.0  0.58237  0.71119  0.32498  1.0000
  N   N15       1.0  0.60725  0.72691  0.29404  1.0000
  O   O7        1.0  0.65836  0.73544  0.26090  1.0000
  C   C36       1.0  0.66304  0.73286  0.16559  1.0000
  H   H27       1.0  0.67055  0.70973  0.14683  1.0000
  H   H28       1.0  0.68107  0.74901  0.14643  1.0000
  H   H29       1.0  0.64218  0.73878  0.12840  1.0000
  C   C37       1.0  0.37181  0.29052  0.29188  1.0000
  C   C38       1.0  0.36551  0.32000  0.32805  1.0000
  C   C39       1.0  0.42557  0.29515  0.32580  1.0000
  N   N16       1.0  0.40081  0.27939  0.29418  1.0000
  O   O8        1.0  0.34979  0.27098  0.25945  1.0000
  C   C40       1.0  0.34534  0.27373  0.16410  1.0000
  H   H30       1.0  0.33786  0.29689  0.14554  1.0000
  H   H31       1.0  0.32737  0.25760  0.14432  1.0000
  H   H32       1.0  0.36629  0.26789  0.12723  1.0000
  C   C41       1.0  0.19335  0.92772  0.30624  1.0000
  C   C42       1.0  0.21602  0.90475  0.32326  1.0000
  C   C43       1.0  0.22956  0.96848  0.32680  1.0000
  N   N17       1.0  0.20060  0.95830  0.30961  1.0000
  O   O9        1.0  0.16344  0.92056  0.28701  1.0000
  C   C44       1.0  0.15757  0.91865  0.19203  1.0000
  H   H33       1.0  0.16180  0.94066  0.15871  1.0000
  H   H34       1.0  0.13342  0.91270  0.18263  1.0000
  H   H35       1.0  0.17152  0.90076  0.16033  1.0000
  C   C45       1.0  0.81481  0.07866  0.31053  1.0000
  C   C46       1.0  0.79205  0.10171  0.32566  1.0000
  C   C47       1.0  0.77844  0.03799  0.33042  1.0000
  N   N18       1.0  0.80751  0.04809  0.31446  1.0000
  O   O10       1.0  0.84486  0.08571  0.29295  1.0000
  C   C48       1.0  0.85149  0.08700  0.19831  1.0000
  H   H36       1.0  0.84755  0.06478  0.16596  1.0000
  H   H37       1.0  0.87571  0.09291  0.19026  1.0000
  H   H38       1.0  0.83779  0.10467  0.16467  1.0000
  C   C49       1.0  0.07937  0.19258  0.30625  1.0000
  C   C50       1.0  0.10240  0.21526  0.32262  1.0000
  C   C51       1.0  0.03869  0.22889  0.32662  1.0000
  N   N19       1.0  0.04880  0.19989  0.30984  1.0000
  O   O11       1.0  0.08645  0.16261  0.28759  1.0000
  C   C52       1.0  0.08813  0.15648  0.19271  1.0000
  H   H39       1.0  0.06605  0.16063  0.15975  1.0000
  H   H40       1.0  0.09403  0.13230  0.18377  1.0000
  H   H41       1.0  0.10596  0.17033  0.16032  1.0000
  C   C53       1.0  0.92855  0.81420  0.31139  1.0000
  C   C54       1.0  0.90552  0.79139  0.32623  1.0000
  C   C55       1.0  0.96926  0.77783  0.33034  1.0000
  N   N20       1.0  0.95912  0.80692  0.31497  1.0000
  O   O12       1.0  0.92146  0.84429  0.29447  1.0000
  C   C56       1.0  0.92011  0.85116  0.19999  1.0000
  H   H42       1.0  0.94232  0.84732  0.16744  1.0000
  H   H43       1.0  0.91418  0.87539  0.19248  1.0000
  H   H44       1.0  0.90243  0.83753  0.16614  1.0000
  C   C57       1.0  0.31493  0.42684  0.33979  1.0000
  N   N21       1.0  0.30823  0.45749  0.33981  1.0000
  H   H45       1.0  0.33688  0.42056  0.32349  1.0000
  C   C58       1.0  0.69313  0.57949  0.34023  1.0000
  N   N22       1.0  0.69981  0.54883  0.34083  1.0000
  H   H46       1.0  0.67123  0.58576  0.32343  1.0000
  C   C59       1.0  0.42764  0.69217  0.34035  1.0000
  N   N23       1.0  0.45829  0.69889  0.34027  1.0000
  H   H47       1.0  0.42136  0.67021  0.32426  1.0000
  C   C60       1.0  0.58020  0.31405  0.33966  1.0000
  N   N24       1.0  0.54955  0.30734  0.34029  1.0000
  H   H48       1.0  0.58646  0.33595  0.32277  1.0000
  C   C61       1.0  0.22511  0.30400  0.33497  1.0000
  N   N25       1.0  0.20293  0.28176  0.33165  1.0000
  H   H49       1.0  0.21842  0.32636  0.32680  1.0000
  C   C62       1.0  0.78287  0.70242  0.33725  1.0000
  N   N26       1.0  0.80505  0.72469  0.33427  1.0000
  H   H50       1.0  0.78960  0.68007  0.32917  1.0000
  C   C63       1.0  0.70313  0.22435  0.33652  1.0000
  N   N27       1.0  0.72539  0.20218  0.33341  1.0000
  H   H51       1.0  0.68077  0.21763  0.32849  1.0000
  C   C64       1.0  0.30479  0.78201  0.33574  1.0000
  N   N28       1.0  0.28256  0.80420  0.33255  1.0000
  H   H52       1.0  0.32716  0.78869  0.32762  1.0000
  C   C65       1.0  0.47583  0.99679  0.32850  1.0000
  N   N29       1.0  0.49808  0.97510  0.32404  1.0000
  H   H53       1.0  0.45523  0.99212  0.29847  1.0000
  C   C66       1.0  0.01041  0.47529  0.32859  1.0000
  N   N30       1.0  0.03211  0.49752  0.32425  1.0000
  H   H54       1.0  0.01511  0.45467  0.29866  1.0000
  C   C67       1.0  0.22936  0.05419  0.34276  1.0000
  N   N31       1.0  0.21837  0.02474  0.33339  1.0000
  C   C68       1.0  0.23813  1.00000  0.33110  1.0000
  N   N32       1.0  0.26889  0.00558  0.33666  1.0000
  C   C69       1.0  0.28044  0.03424  0.34497  1.0000
  N   N33       1.0  0.26028  0.05767  0.34823  1.0000
  C   C70       1.0  0.77850  0.95230  0.34720  1.0000
  N   N34       1.0  0.78955  0.98173  0.33785  1.0000
  C   C71       1.0  0.76983  0.00649  0.33523  1.0000
  N   N35       1.0  0.73905  0.00095  0.34037  1.0000
  C   C72       1.0  0.72744  0.97232  0.34871  1.0000
  N   N36       1.0  0.74756  0.94885  0.35218  1.0000
  C   C73       1.0  0.95300  0.22880  0.34315  1.0000
  N   N37       1.0  0.98243  0.21778  0.33370  1.0000
  C   C74       1.0  0.00719  0.23751  0.33118  1.0000
  N   N38       1.0  0.00164  0.26829  0.33660  1.0000
  C   C75       1.0  0.97300  0.27987  0.34499  1.0000
  N   N39       1.0  0.94955  0.25974  0.34848  1.0000
  C   C76       1.0  0.05497  0.77795  0.34657  1.0000
  N   N40       1.0  0.02553  0.78898  0.33736  1.0000
  C   C77       1.0  0.00077  0.76925  0.33494  1.0000
  N   N41       1.0  0.00634  0.73847  0.34013  1.0000
  C   C78       1.0  0.03498  0.72688  0.34834  1.0000
  N   N42       1.0  0.05844  0.74701  0.35164  1.0000
  C   C79       1.0  0.27938  0.55346  0.33175  1.0000
  N   N43       1.0  0.29053  0.52415  0.34242  1.0000
  C   C80       1.0  0.27085  0.49957  0.35175  1.0000
  N   N44       1.0  0.24003  0.50515  0.35098  1.0000
  C   C81       1.0  0.22835  0.53369  0.34065  1.0000
  N   N45       1.0  0.24841  0.55704  0.33122  1.0000
  C   C82       1.0  0.72865  0.45277  0.33571  1.0000
  N   N46       1.0  0.71747  0.48216  0.34426  1.0000
  C   C83       1.0  0.73709  0.50670  0.35533  1.0000
  N   N47       1.0  0.76785  0.50096  0.35864  1.0000
  C   C84       1.0  0.77957  0.47234  0.35075  1.0000
  N   N48       1.0  0.75958  0.44903  0.33939  1.0000
  C   C85       1.0  0.55430  0.72780  0.33250  1.0000
  N   N49       1.0  0.52498  0.71664  0.34293  1.0000
  C   C86       1.0  0.50037  0.73629  0.35194  1.0000
  N   N50       1.0  0.50592  0.76712  0.35107  1.0000
  C   C87       1.0  0.53446  0.77883  0.34088  1.0000
  N   N51       1.0  0.55783  0.75878  0.33177  1.0000
  C   C88       1.0  0.45352  0.27849  0.33526  1.0000
  N   N52       1.0  0.48291  0.28967  0.34375  1.0000
  C   C89       1.0  0.50744  0.27006  0.35494  1.0000
  N   N53       1.0  0.50170  0.23929  0.35838  1.0000
  C   C90       1.0  0.47307  0.22758  0.35049  1.0000
  N   N54       1.0  0.44977  0.24757  0.33900  1.0000
  C   C91       1.0  0.17627  0.17329  0.33771  1.0000
  N   N55       1.0  0.14579  0.17991  0.33044  1.0000
  C   C92       1.0  0.13485  0.20929  0.32569  1.0000
  N   N56       1.0  0.15601  0.23267  0.32892  1.0000
  C   C93       1.0  0.18684  0.22751  0.33560  1.0000
  N   N57       1.0  0.19592  0.19765  0.33988  1.0000
  C   C94       1.0  0.83157  0.83320  0.34142  1.0000
  N   N58       1.0  0.86205  0.82663  0.33426  1.0000
  C   C95       1.0  0.87305  0.79728  0.32926  1.0000
  N   N59       1.0  0.85193  0.77387  0.33209  1.0000
  C   C96       1.0  0.82107  0.77896  0.33864  1.0000
  N   N60       1.0  0.81194  0.80881  0.34319  1.0000
  C   C97       1.0  0.83391  0.17567  0.33943  1.0000
  N   N61       1.0  0.82732  0.14518  0.33267  1.0000
  C   C98       1.0  0.79796  0.13418  0.32823  1.0000
  N   N62       1.0  0.77456  0.15531  0.33124  1.0000
  C   C99       1.0  0.77966  0.18616  0.33743  1.0000
  N   N63       1.0  0.80951  0.19530  0.34141  1.0000
  C   C100      1.0  0.17409  0.83091  0.33953  1.0000
  N   N64       1.0  0.18072  0.86137  0.33189  1.0000
  C   C101      1.0  0.21008  0.87229  0.32662  1.0000
  N   N65       1.0  0.23347  0.85114  0.32973  1.0000
  C   C102      1.0  0.22831  0.82031  0.33674  1.0000
  N   N66       1.0  0.19846  0.81124  0.34151  1.0000
  C   C103      1.0  0.33187  0.67243  0.33729  1.0000
  N   N67       1.0  0.36225  0.67937  0.34460  1.0000
  C   C104      1.0  0.37269  0.70885  0.35238  1.0000
  N   N68       1.0  0.35107  0.73179  0.35273  1.0000
  C   C105      1.0  0.32020  0.72650  0.34697  1.0000
  N   N69       1.0  0.31187  0.69650  0.33909  1.0000
  C   C106      1.0  0.67599  0.33392  0.33735  1.0000
  N   N70       1.0  0.64560  0.32697  0.34456  1.0000
  C   C107      1.0  0.63517  0.29749  0.35232  1.0000
  N   N71       1.0  0.65679  0.27455  0.35283  1.0000
  C   C108      1.0  0.68766  0.27985  0.34717  1.0000
  N   N72       1.0  0.69598  0.30985  0.33931  1.0000
  C   C109      1.0  0.67330  0.67528  0.33801  1.0000
  N   N73       1.0  0.68024  0.64489  0.34513  1.0000
  C   C110      1.0  0.70972  0.63445  0.35294  1.0000
  N   N74       1.0  0.73267  0.65607  0.35354  1.0000
  C   C111      1.0  0.72737  0.68694  0.34795  1.0000
  N   N75       1.0  0.69737  0.69527  0.34004  1.0000
  C   C112      1.0  0.33468  0.33107  0.33669  1.0000
  N   N76       1.0  0.32774  0.36146  0.34407  1.0000
  C   C113      1.0  0.29826  0.37189  0.35181  1.0000
  N   N77       1.0  0.27531  0.35028  0.35207  1.0000
  C   C114      1.0  0.28061  0.31942  0.34625  1.0000
  N   N78       1.0  0.31061  0.31108  0.33844  1.0000
  C   C115      1.0  0.44515  0.10150  0.37044  1.0000
  N   N79       1.0  0.46665  0.07887  0.37354  1.0000
  C   C116      1.0  0.45888  0.04859  0.37223  1.0000
  N   N80       1.0  0.42866  0.04112  0.36636  1.0000
  C   C117      1.0  0.40623  0.06271  0.36312  1.0000
  N   N81       1.0  0.41524  0.09260  0.36508  1.0000
  C   C118      1.0  0.56275  0.90479  0.34517  1.0000
  N   N82       1.0  0.54115  0.92727  0.34798  1.0000
  C   C119      1.0  0.54899  0.95733  0.35423  1.0000
  N   N83       1.0  0.57913  0.96511  0.35706  1.0000
  C   C120      1.0  0.60162  0.94357  0.35249  1.0000
  N   N84       1.0  0.59274  0.91364  0.34719  1.0000
  C   C121      1.0  0.90569  0.44456  0.37031  1.0000
  N   N85       1.0  0.92832  0.46607  0.37345  1.0000
  C   C122      1.0  0.95860  0.45832  0.37215  1.0000
  N   N86       1.0  0.96609  0.42811  0.36627  1.0000
  C   C123      1.0  0.94452  0.40567  0.36300  1.0000
  N   N87       1.0  0.91462  0.41466  0.36495  1.0000
  C   C124      1.0  0.10243  0.56215  0.34540  1.0000
  N   N88       1.0  0.07994  0.54057  0.34823  1.0000
  C   C125      1.0  0.04988  0.54843  0.35447  1.0000
  N   N89       1.0  0.04212  0.57858  0.35722  1.0000
  C   C126      1.0  0.06368  0.60104  0.35261  1.0000
  N   N90       1.0  0.09360  0.59215  0.34734  1.0000
  C   C127      1.0  0.35168  0.07700  0.37350  1.0000
  N   N91       1.0  0.32158  0.06946  0.36924  1.0000
  H   H55       1.0  0.35705  0.09922  0.38961  1.0000
  C   C128      1.0  0.65601  0.92931  0.36895  1.0000
  N   N92       1.0  0.68613  0.93691  0.36780  1.0000
  H   H56       1.0  0.65049  0.90690  0.38204  1.0000
  C   C129      1.0  0.93023  0.35111  0.37336  1.0000
  N   N93       1.0  0.93778  0.32102  0.36913  1.0000
  H   H57       1.0  0.90801  0.35648  0.38943  1.0000
  C   C130      1.0  0.07796  0.65545  0.36889  1.0000
  N   N94       1.0  0.07038  0.68556  0.36762  1.0000
  H   H58       1.0  0.10037  0.64992  0.38202  1.0000
  C   C131      1.0  0.14507  0.52392  0.36279  1.0000
  C   C132      1.0  0.13401  0.55394  0.34293  1.0000
  C   C133      1.0  0.19675  0.53992  0.34031  1.0000
  N   N95       1.0  0.17572  0.51792  0.36012  1.0000
  O   O13       1.0  0.12618  0.49989  0.38471  1.0000
  C   C134      1.0  0.12323  0.49540  0.48009  1.0000
  H   H59       1.0  0.14535  0.48962  0.51071  1.0000
  H   H60       1.0  0.10752  0.47624  0.49128  1.0000
  H   H61       1.0  0.11366  0.51574  0.51303  1.0000
  C   C135      1.0  0.86247  0.48268  0.38215  1.0000
  C   C136      1.0  0.87394  0.45247  0.36767  1.0000
  C   C137      1.0  0.81112  0.46609  0.35533  1.0000
  N   N96       1.0  0.83184  0.48841  0.37451  1.0000
  O   O14       1.0  0.88102  0.50714  0.40240  1.0000
  C   C138      1.0  0.87722  0.51798  0.49311  1.0000
  H   H62       1.0  0.85368  0.52560  0.50612  1.0000
  H   H63       1.0  0.89234  0.53769  0.50269  1.0000
  H   H64       1.0  0.88355  0.50019  0.54162  1.0000
  C   C139      1.0  0.52454  0.86211  0.36239  1.0000
  C   C140      1.0  0.55457  0.87320  0.34276  1.0000
  C   C141      1.0  0.54063  0.81043  0.34039  1.0000
  N   N97       1.0  0.51859  0.83145  0.35985  1.0000
  O   O15       1.0  0.50046  0.88099  0.38394  1.0000
  C   C142      1.0  0.49583  0.88397  0.47925  1.0000
  H   H65       1.0  0.49002  0.86187  0.50988  1.0000
  H   H66       1.0  0.47664  0.89968  0.49013  1.0000
  H   H67       1.0  0.51611  0.89358  0.51241  1.0000
  C   C143      1.0  0.48329  0.14469  0.38253  1.0000
  C   C144      1.0  0.45309  0.13324  0.36773  1.0000
  C   C145      1.0  0.46679  0.19603  0.35515  1.0000
  N   N98       1.0  0.48907  0.17532  0.37475  1.0000
  O   O16       1.0  0.50769  0.12615  0.40331  1.0000
  C   C146      1.0  0.51824  0.12992  0.49431  1.0000
  H   H68       1.0  0.52576  0.15348  0.50766  1.0000
  H   H69       1.0  0.53798  0.11485  0.50429  1.0000
  H   H70       1.0  0.50034  0.12350  0.54233  1.0000
  C   C147      1.0  0.21718  0.13631  0.38061  1.0000
  C   C148      1.0  0.18766  0.14249  0.34456  1.0000
  C   C149      1.0  0.21276  0.08239  0.34741  1.0000
  N   N99       1.0  0.22831  0.10732  0.37878  1.0000
  O   O17       1.0  0.23663  0.15832  0.41366  1.0000
  C   C150      1.0  0.23430  0.16196  0.50944  1.0000
  H   H71       1.0  0.21115  0.16900  0.52946  1.0000
  H   H72       1.0  0.25030  0.17995  0.52984  1.0000
  H   H73       1.0  0.24057  0.14080  0.54460  1.0000
  C   C151      1.0  0.79057  0.87012  0.38414  1.0000
  C   C152      1.0  0.82015  0.86398  0.34843  1.0000
  C   C153      1.0  0.79506  0.92408  0.35167  1.0000
  N   N100      1.0  0.77945  0.89911  0.38257  1.0000
  O   O18       1.0  0.77111  0.84806  0.41684  1.0000
  C   C154      1.0  0.77333  0.84433  0.51261  1.0000
  H   H74       1.0  0.79647  0.83729  0.53279  1.0000
  H   H75       1.0  0.75731  0.82631  0.53271  1.0000
  H   H76       1.0  0.76700  0.86545  0.54788  1.0000
  C   C155      1.0  0.87087  0.21674  0.38116  1.0000
  C   C156      1.0  0.86469  0.18711  0.34585  1.0000
  C   C157      1.0  0.92479  0.21223  0.34804  1.0000
  N   N101      1.0  0.89985  0.22787  0.37906  1.0000
  O   O19       1.0  0.84886  0.23627  0.41379  1.0000
  C   C158      1.0  0.84527  0.23424  0.50965  1.0000
  H   H77       1.0  0.83827  0.21115  0.53032  1.0000
  H   H78       1.0  0.82729  0.25030  0.52970  1.0000
  H   H79       1.0  0.86645  0.24064  0.54454  1.0000
  C   C159      1.0  0.13714  0.79008  0.38341  1.0000
  C   C160      1.0  0.14330  0.81955  0.34692  1.0000
  C   C161      1.0  0.08319  0.79452  0.35085  1.0000
  N   N102      1.0  0.10814  0.77898  0.38213  1.0000
  O   O20       1.0  0.15920  0.77070  0.41654  1.0000
  C   C162      1.0  0.16298  0.77323  0.51223  1.0000
  H   H80       1.0  0.17006  0.79642  0.53173  1.0000
  H   H81       1.0  0.18099  0.75726  0.53269  1.0000
  H   H82       1.0  0.14186  0.76704  0.54777  1.0000
  C   C163      1.0  0.33759  0.61544  0.35758  1.0000
  N   N103      1.0  0.32482  0.58669  0.35651  1.0000
  H   H83       1.0  0.35893  0.61791  0.38548  1.0000
  C   C164      1.0  0.67021  0.39091  0.35771  1.0000
  N   N104      1.0  0.68302  0.41965  0.35750  1.0000
  H   H84       1.0  0.64872  0.38843  0.38456  1.0000
  C   C165      1.0  0.61627  0.66951  0.35769  1.0000
  N   N105      1.0  0.58751  0.68229  0.35665  1.0000
  H   H85       1.0  0.61871  0.64809  0.38501  1.0000
  C   C166      1.0  0.39164  0.33687  0.35734  1.0000
  N   N106      1.0  0.42038  0.32408  0.35715  1.0000
  H   H86       1.0  0.38912  0.35831  0.38446  1.0000
  C   C167      1.0  0.24595  0.91611  0.33973  1.0000
  N   N107      1.0  0.25153  0.94672  0.34113  1.0000
  H   H87       1.0  0.26396  0.90170  0.35304  1.0000
  C   C168      1.0  0.76202  0.09041  0.34095  1.0000
  N   N108      1.0  0.75641  0.05981  0.34296  1.0000
  H   H88       1.0  0.74393  0.10487  0.35275  1.0000
  C   C169      1.0  0.09109  0.24524  0.33871  1.0000
  N   N109      1.0  0.06050  0.25086  0.34035  1.0000
  H   H89       1.0  0.10554  0.26325  0.35152  1.0000
  C   C170      1.0  0.91686  0.76134  0.34090  1.0000
  N   N110      1.0  0.94746  0.75575  0.34262  1.0000
  H   H90       1.0  0.90242  0.74321  0.35248  1.0000
  C   C171      1.0  0.26258  0.41608  0.37902  1.0000
  C   C172      1.0  0.29205  0.40425  0.35721  1.0000
  C   C173      1.0  0.27955  0.46816  0.35822  1.0000
  N   N111      1.0  0.25754  0.44686  0.37699  1.0000
  O   O21       1.0  0.23774  0.39793  0.39816  1.0000
  C   C174      1.0  0.23296  0.39382  0.49303  1.0000
  H   H91       1.0  0.25280  0.38286  0.52489  1.0000
  H   H92       1.0  0.21309  0.37885  0.50209  1.0000
  H   H93       1.0  0.22814  0.41572  0.52631  1.0000
  C   C175      1.0  0.74535  0.59027  0.38087  1.0000
  C   C176      1.0  0.71595  0.60209  0.35829  1.0000
  C   C177      1.0  0.72842  0.53816  0.36020  1.0000
  N   N112      1.0  0.75037  0.55949  0.37940  1.0000
  O   O22       1.0  0.77012  0.60844  0.40069  1.0000
  C   C178      1.0  0.77462  0.61253  0.49568  1.0000
  H   H94       1.0  0.75469  0.62346  0.52710  1.0000
  H   H95       1.0  0.79445  0.62752  0.50525  1.0000
  H   H96       1.0  0.77938  0.59063  0.52902  1.0000
  C   C179      1.0  0.41688  0.74456  0.37922  1.0000
  C   C180      1.0  0.40505  0.71507  0.35768  1.0000
  C   C181      1.0  0.46896  0.72759  0.35839  1.0000
  N   N113      1.0  0.44765  0.74961  0.37707  1.0000
  O   O23       1.0  0.39873  0.76942  0.39820  1.0000
  C   C182      1.0  0.39465  0.77428  0.49304  1.0000
  H   H97       1.0  0.38369  0.75448  0.52509  1.0000
  H   H98       1.0  0.37967  0.79416  0.50198  1.0000
  H   H99       1.0  0.41655  0.77913  0.52623  1.0000
  C   C183      1.0  0.59101  0.26185  0.38051  1.0000
  C   C184      1.0  0.60281  0.29125  0.35779  1.0000
  C   C185      1.0  0.53890  0.27873  0.35975  1.0000
  N   N114      1.0  0.56024  0.25680  0.37906  1.0000
  O   O24       1.0  0.60920  0.23711  0.40046  1.0000
  C   C186      1.0  0.61330  0.23268  0.49548  1.0000
  H   H100      1.0  0.62423  0.25263  0.52676  1.0000
  H   H101      1.0  0.62830  0.21286  0.50516  1.0000
  H   H102      1.0  0.59141  0.22793  0.52886  1.0000
  C   C187      1.0  0.26265  0.26454  0.35748  1.0000
  C   C188      1.0  0.25664  0.29650  0.34655  1.0000
  C   C189      1.0  0.20943  0.25125  0.33990  1.0000
  N   N115      1.0  0.23943  0.24365  0.35276  1.0000
  O   O25       1.0  0.29147  0.25277  0.37059  1.0000
  C   C190      1.0  0.29885  0.24835  0.46391  1.0000
  H   H103      1.0  0.29812  0.27004  0.50104  1.0000
  H   H104      1.0  0.32219  0.23927  0.46801  1.0000
  H   H105      1.0  0.28333  0.23179  0.49541  1.0000
  C   C191      1.0  0.74527  0.74184  0.35942  1.0000
  C   C192      1.0  0.75133  0.70989  0.34854  1.0000
  C   C193      1.0  0.79851  0.75519  0.34254  1.0000
  N   N116      1.0  0.76848  0.76276  0.35505  1.0000
  O   O26       1.0  0.71642  0.75359  0.37222  1.0000
  C   C194      1.0  0.70892  0.75802  0.46545  1.0000
  H   H106      1.0  0.70963  0.73634  0.50263  1.0000
  H   H107      1.0  0.68557  0.76707  0.46929  1.0000
  H   H108      1.0  0.72438  0.77461  0.49708  1.0000
  C   C195      1.0  0.74256  0.26196  0.35849  1.0000
  C   C196      1.0  0.71060  0.25590  0.34772  1.0000
  C   C197      1.0  0.75590  0.20873  0.34151  1.0000
  N   N117      1.0  0.76347  0.23875  0.35398  1.0000
  O   O27       1.0  0.75432  0.29081  0.37119  1.0000
  C   C198      1.0  0.75876  0.29834  0.46439  1.0000
  H   H109      1.0  0.73709  0.29765  0.50160  1.0000
  H   H110      1.0  0.76784  0.32168  0.46816  1.0000
  H   H111      1.0  0.77535  0.28287  0.49604  1.0000
  C   C199      1.0  0.26532  0.74447  0.35819  1.0000
  C   C200      1.0  0.29729  0.75048  0.34729  1.0000
  C   C201      1.0  0.25204  0.79770  0.34085  1.0000
  N   N118      1.0  0.24444  0.76770  0.35361  1.0000
  O   O28       1.0  0.25355  0.71564  0.37123  1.0000
  C   C202      1.0  0.24910  0.70825  0.46453  1.0000
  H   H112      1.0  0.27077  0.70900  0.50175  1.0000
  H   H113      1.0  0.24003  0.68491  0.46858  1.0000
  H   H114      1.0  0.23251  0.72376  0.49596  1.0000
  C   C203      1.0  0.51090  0.02923  0.41061  1.0000
  C   C204      1.0  0.48152  0.02534  0.37102  1.0000
  C   C205      1.0  0.52639  0.97995  0.35944  1.0000
  N   N119      1.0  0.53230  0.00674  0.40258  1.0000
  O   O29       1.0  0.51840  0.05404  0.46261  1.0000
  C   C206      1.0  0.51291  0.04835  0.55667  1.0000
  H   H115      1.0  0.48851  0.04426  0.56988  1.0000
  H   H116      1.0  0.51991  0.06859  0.59462  1.0000
  H   H117      1.0  0.52636  0.02883  0.58121  1.0000
  C   C207      1.0  0.97794  0.51036  0.41057  1.0000
  C   C208      1.0  0.98184  0.48097  0.37100  1.0000
  C   C209      1.0  0.02725  0.52584  0.35961  1.0000
  N   N120      1.0  0.00043  0.53176  0.40261  1.0000
  O   O30       1.0  0.95309  0.51787  0.46236  1.0000
  C   C210      1.0  0.95870  0.51243  0.55648  1.0000
  H   H118      1.0  0.96278  0.48804  0.56983  1.0000
  H   H119      1.0  0.93842  0.51943  0.59424  1.0000
  H   H120      1.0  0.97819  0.52591  0.58111  1.0000
