data_image0
_chemical_formula_structural       C4NC4NH4N2C4NC4NH4N2C4NC4NH4N2C3H2CHC3H2CHC3H2CHC3H2CHC3H2CHC3H2CHC2HC2H3N2C2HC2H3N2C2HC2H3N2C3HNO2CHC3HNO2CHC3HNO2CHC3HNO2CHC3HNO2CHC3HNO2CH
_chemical_formula_sum              "C84 N24 H54 O12"
_cell_length_a       31.7165
_cell_length_b       31.7165
_cell_length_c       15.0546
_cell_angle_alpha    90
_cell_angle_beta     90
_cell_angle_gamma    120

_space_group_name_H-M_alt    "P 1"
_space_group_IT_number       1

loop_
  _space_group_symop_operation_xyz
  'x, y, z'

loop_
  _atom_site_type_symbol
  _atom_site_label
  _atom_site_symmetry_multiplicity
  _atom_site_fract_x
  _atom_site_fract_y
  _atom_site_fract_z
  _atom_site_occupancy
  C   C1        1.0  0.97133  0.48458  0.32385  1.0000
  C   C2        1.0  0.86659  0.42997  0.32695  1.0000
  C   C3        1.0  0.89433  0.40637  0.33951  1.0000
  C   C4        1.0  0.94543  0.43415  0.34432  1.0000
  N   N1        1.0  0.81693  0.40428  0.32835  1.0000
  C   C5        1.0  0.02326  0.51181  0.32379  1.0000
  C   C6        1.0  0.04916  0.56224  0.34425  1.0000
  C   C7        1.0  0.10025  0.59002  0.33936  1.0000
  C   C8        1.0  0.12799  0.56643  0.32678  1.0000
  N   N2        1.0  0.17764  0.59211  0.32817  1.0000
  H   H1        1.0  0.19578  0.62601  0.34570  1.0000
  H   H2        1.0  0.79880  0.37038  0.34586  1.0000
  H   H3        1.0  0.96377  0.41630  0.36004  1.0000
  H   H4        1.0  0.03082  0.58009  0.36004  1.0000
  N   N3        1.0  0.12009  0.63892  0.34692  1.0000
  N   N4        1.0  0.87449  0.35748  0.34703  1.0000
  C   C9        1.0  0.51086  0.48583  0.32383  1.0000
  C   C10       1.0  0.56545  0.43569  0.32685  1.0000
  C   C11       1.0  0.58906  0.48702  0.33941  1.0000
  C   C12       1.0  0.56129  0.51034  0.34435  1.0000
  N   N5        1.0  0.59113  0.41171  0.32825  1.0000
  C   C13       1.0  0.48364  0.51053  0.32384  1.0000
  C   C14       1.0  0.43322  0.48601  0.34439  1.0000
  C   C15       1.0  0.40544  0.50933  0.33945  1.0000
  C   C16       1.0  0.42905  0.56066  0.32690  1.0000
  N   N6        1.0  0.40336  0.58463  0.32828  1.0000
  H   H5        1.0  0.36945  0.56886  0.34576  1.0000
  H   H6        1.0  0.62503  0.42747  0.34578  1.0000
  H   H7        1.0  0.57915  0.54655  0.36002  1.0000
  H   H8        1.0  0.41536  0.44981  0.36005  1.0000
  N   N7        1.0  0.35655  0.48027  0.34698  1.0000
  N   N8        1.0  0.63796  0.51608  0.34692  1.0000
  C   C17       1.0  0.50966  0.02416  0.32378  1.0000
  C   C18       1.0  0.55980  0.12888  0.32670  1.0000
  C   C19       1.0  0.50848  0.10117  0.33934  1.0000
  C   C20       1.0  0.48515  0.05007  0.34423  1.0000
  N   N9        1.0  0.58379  0.17854  0.32809  1.0000
  C   C21       1.0  0.48494  0.97223  0.32386  1.0000
  C   C22       1.0  0.50946  0.94632  0.34439  1.0000
  C   C23       1.0  0.48614  0.89523  0.33947  1.0000
  C   C24       1.0  0.43481  0.86750  0.32688  1.0000
  N   N10       1.0  0.41084  0.81784  0.32823  1.0000
  H   H9        1.0  0.42660  0.79970  0.34584  1.0000
  H   H10       1.0  0.56805  0.19668  0.34576  1.0000
  H   H11       1.0  0.44897  0.03174  0.36007  1.0000
  H   H12       1.0  0.54567  0.96466  0.36002  1.0000
  N   N11       1.0  0.51520  0.87539  0.34696  1.0000
  N   N12       1.0  0.47943  0.12102  0.34691  1.0000
  C   C25       1.0  0.27514  0.46776  0.31715  1.0000
  C   C26       1.0  0.24257  0.46385  0.24897  1.0000
  C   C27       1.0  0.19957  0.46453  0.26798  1.0000
  H   H13       1.0  0.25122  0.46334  0.18357  1.0000
  H   H14       1.0  0.17962  0.46597  0.21587  1.0000
  C   C28       1.0  0.32253  0.47929  0.29157  1.0000
  H   H15       1.0  0.33390  0.49278  0.22876  1.0000
  C   C29       1.0  0.52769  0.80647  0.31715  1.0000
  C   C30       1.0  0.53157  0.77780  0.24898  1.0000
  C   C31       1.0  0.53090  0.73412  0.26800  1.0000
  H   H16       1.0  0.53205  0.78693  0.18357  1.0000
  H   H17       1.0  0.52943  0.71272  0.21591  1.0000
  C   C32       1.0  0.51615  0.84233  0.29157  1.0000
  H   H18       1.0  0.50265  0.84021  0.22878  1.0000
  C   C33       1.0  0.18901  0.72034  0.31712  1.0000
  C   C34       1.0  0.21767  0.75291  0.24896  1.0000
  C   C35       1.0  0.26134  0.79591  0.26799  1.0000
  H   H19       1.0  0.20853  0.74426  0.18355  1.0000
  H   H20       1.0  0.28274  0.81585  0.21589  1.0000
  C   C36       1.0  0.15314  0.67295  0.29153  1.0000
  H   H21       1.0  0.15527  0.66159  0.22872  1.0000
  C   C37       1.0  0.71935  0.52853  0.31709  1.0000
  C   C38       1.0  0.75190  0.53242  0.24890  1.0000
  C   C39       1.0  0.79484  0.53163  0.26793  1.0000
  H   H22       1.0  0.74327  0.53294  0.18350  1.0000
  H   H23       1.0  0.81490  0.53034  0.21587  1.0000
  C   C40       1.0  0.67197  0.51703  0.29151  1.0000
  H   H24       1.0  0.66058  0.50354  0.22872  1.0000
  C   C41       1.0  0.46695  0.18995  0.31709  1.0000
  C   C42       1.0  0.46304  0.21860  0.24892  1.0000
  C   C43       1.0  0.46380  0.26231  0.26795  1.0000
  H   H25       1.0  0.46252  0.20944  0.18351  1.0000
  H   H26       1.0  0.46507  0.28364  0.21588  1.0000
  C   C44       1.0  0.47848  0.15408  0.29151  1.0000
  H   H27       1.0  0.49195  0.15617  0.22870  1.0000
  C   C45       1.0  0.80557  0.27608  0.31712  1.0000
  C   C46       1.0  0.77694  0.24353  0.24891  1.0000
  C   C47       1.0  0.73321  0.20059  0.26788  1.0000
  H   H28       1.0  0.78612  0.25217  0.18351  1.0000
  H   H29       1.0  0.71189  0.18053  0.21579  1.0000
  C   C48       1.0  0.84146  0.32347  0.29159  1.0000
  H   H30       1.0  0.83936  0.33485  0.22878  1.0000
  C   C49       1.0  0.94298  0.50673  0.30499  1.0000
  C   C50       1.0  0.89194  0.48126  0.31317  1.0000
  H   H31       1.0  0.95958  0.54294  0.28966  1.0000
  C   C51       1.0  0.10264  0.51514  0.31296  1.0000
  C   C52       1.0  0.05159  0.48967  0.30478  1.0000
  H   H32       1.0  0.03499  0.45344  0.28965  1.0000
  H   H33       1.0  0.19706  0.57772  0.31043  1.0000
  H   H34       1.0  0.79751  0.41867  0.31066  1.0000
  N   N13       1.0  0.12387  0.48713  0.31358  1.0000
  N   N14       1.0  0.87068  0.50924  0.31363  1.0000
  C   C53       1.0  0.48872  0.43535  0.30482  1.0000
  C   C54       1.0  0.51417  0.40976  0.31307  1.0000
  H   H35       1.0  0.45249  0.41574  0.28965  1.0000
  C   C55       1.0  0.48034  0.58660  0.31318  1.0000
  C   C56       1.0  0.50579  0.56101  0.30486  1.0000
  H   H36       1.0  0.54201  0.58063  0.28969  1.0000
  H   H37       1.0  0.41776  0.61845  0.31058  1.0000
  H   H38       1.0  0.57673  0.37789  0.31058  1.0000
  N   N15       1.0  0.50833  0.63584  0.31368  1.0000
  N   N16       1.0  0.48616  0.36052  0.31360  1.0000
  C   C57       1.0  0.56013  0.05247  0.30471  1.0000
  C   C58       1.0  0.58572  0.10353  0.31281  1.0000
  H   H39       1.0  0.57974  0.03586  0.28957  1.0000
  C   C59       1.0  0.40888  0.89284  0.31308  1.0000
  C   C60       1.0  0.43446  0.94389  0.30496  1.0000
  H   H40       1.0  0.41486  0.96051  0.28967  1.0000
  H   H41       1.0  0.37702  0.79842  0.31057  1.0000
  H   H42       1.0  0.61761  0.19796  0.31043  1.0000
  N   N17       1.0  0.35963  0.87162  0.31365  1.0000
  N   N18       1.0  0.63496  0.12474  0.31342  1.0000
  C   C61       1.0  0.19007  0.47323  0.35563  1.0000
  C   C62       1.0  0.22013  0.47294  0.42463  1.0000
  C   C63       1.0  0.26176  0.46874  0.40707  1.0000
  H   H43       1.0  0.21345  0.47867  0.48879  1.0000
  N   N19       1.0  0.29254  0.47179  0.47804  1.0000
  O   O1        1.0  0.27062  0.43753  0.53242  1.0000
  O   O2        1.0  0.30988  0.51161  0.51891  1.0000
  C   C64       1.0  0.15695  0.48945  0.37308  1.0000
  H   H44       1.0  0.15985  0.50673  0.43224  1.0000
  C   C65       1.0  0.52224  0.71596  0.35567  1.0000
  C   C66       1.0  0.52255  0.74632  0.42466  1.0000
  C   C67       1.0  0.52676  0.79215  0.40709  1.0000
  H   H45       1.0  0.51686  0.73394  0.48884  1.0000
  N   N20       1.0  0.52373  0.81990  0.47804  1.0000
  O   O3        1.0  0.55801  0.83225  0.53237  1.0000
  O   O4        1.0  0.48393  0.79744  0.51897  1.0000
  C   C68       1.0  0.50604  0.66661  0.37318  1.0000
  H   H46       1.0  0.48878  0.65227  0.43236  1.0000
  C   C69       1.0  0.27952  0.80541  0.35565  1.0000
  C   C70       1.0  0.24916  0.77534  0.42464  1.0000
  C   C71       1.0  0.20333  0.73371  0.40705  1.0000
  H   H47       1.0  0.26155  0.78203  0.48880  1.0000
  N   N21       1.0  0.17559  0.70294  0.47800  1.0000
  O   O5        1.0  0.16324  0.72485  0.53236  1.0000
  O   O6        1.0  0.19806  0.68559  0.51891  1.0000
  C   C72       1.0  0.32886  0.83854  0.37314  1.0000
  H   H48       1.0  0.34321  0.83562  0.43231  1.0000
  C   C73       1.0  0.80444  0.52310  0.35563  1.0000
  C   C74       1.0  0.77439  0.52342  0.42460  1.0000
  C   C75       1.0  0.73274  0.52759  0.40702  1.0000
  H   H49       1.0  0.78110  0.51777  0.48879  1.0000
  N   N22       1.0  0.70198  0.52457  0.47798  1.0000
  O   O7        1.0  0.72390  0.55886  0.53229  1.0000
  O   O8        1.0  0.68465  0.48478  0.51893  1.0000
  C   C76       1.0  0.83764  0.50698  0.37316  1.0000
  H   H50       1.0  0.83478  0.48978  0.43239  1.0000
  C   C77       1.0  0.47233  0.28044  0.35563  1.0000
  C   C78       1.0  0.47205  0.25008  0.42462  1.0000
  C   C79       1.0  0.46790  0.20428  0.40703  1.0000
  H   H51       1.0  0.47770  0.26245  0.48880  1.0000
  N   N23       1.0  0.47094  0.17655  0.47798  1.0000
  O   O9        1.0  0.43666  0.16416  0.53231  1.0000
  O   O10       1.0  0.51074  0.19903  0.51892  1.0000
  C   C80       1.0  0.48842  0.32976  0.37317  1.0000
  H   H52       1.0  0.50567  0.34411  0.43237  1.0000
  C   C81       1.0  0.71504  0.19097  0.35555  1.0000
  C   C82       1.0  0.74538  0.22102  0.42456  1.0000
  C   C83       1.0  0.79120  0.26268  0.40703  1.0000
  H   H53       1.0  0.73298  0.21430  0.48872  1.0000
  N   N24       1.0  0.81891  0.29344  0.47802  1.0000
  O   O11       1.0  0.83126  0.27151  0.53236  1.0000
  O   O12       1.0  0.79642  0.31075  0.51893  1.0000
  C   C84       1.0  0.66571  0.15775  0.37302  1.0000
  H   H54       1.0  0.65134  0.16063  0.43220  1.0000
