data_image0
_chemical_formula_structural       C2NHC2HCHCHCHCHCHC2HC3H2C3H2NC2H2C3H2NC2H2C3H2NC2H2C3H2NC2H2C3H2NC2H2C3H2NC7H3NH2NC7H3NH2NC3H3NC7H3NH2NC7H3NH2NC4HNH2NC7H3NH2NC7H3NH2NC7H3NH2NC7H3NH2NC7H3NH2NC7H3NH2NCNCNCNC3H3CNCNCNC3H3CNCNCNC3H3CNCNCNC3H3CNCNCNC3H3CNCNCNC3H3CNCNCNC3H3CNCNCNC3H3CNCNCNC3H3CNCNCNC3H3CNCNCNC3H3CNCNCNC3H3C7H3NH2NC7H3NH2NC7H3NH2NC7H3NH2NC7H3NH2NC7H3NH2NC2H2C3H2NC2H2C3H2NC3H2NC2H2C3H2NC2H2C3H2NC2H2NC2H2C3H2NC2H2C3H2NC2H2C3H2NC2H2C3H2NC2H2C3H2NC2H2C3H2N
_chemical_formula_sum              "C288 N90 H198"
_cell_length_a       74.4504
_cell_length_b       74.4504
_cell_length_c       14.9713
_cell_angle_alpha    90
_cell_angle_beta     90
_cell_angle_gamma    120

_space_group_name_H-M_alt    "P 1"
_space_group_IT_number       1

loop_
  _space_group_symop_operation_xyz
  'x, y, z'

loop_
  _atom_site_type_symbol
  _atom_site_label
  _atom_site_symmetry_multiplicity
  _atom_site_fract_x
  _atom_site_fract_y
  _atom_site_fract_z
  _atom_site_occupancy
  C   C1        1.0  0.02196  0.81208  0.23570  1.0000
  C   C2        1.0  0.01092  0.80784  0.31813  1.0000
  N   N1        1.0  0.01243  0.80797  0.15458  1.0000
  H   H1        1.0  0.02035  0.81136  0.09928  1.0000
  C   C3        1.0  0.00957  0.19604  0.32286  1.0000
  C   C4        1.0  0.02121  0.21666  0.29143  1.0000
  H   H2        1.0  0.01389  0.22392  0.26433  1.0000
  C   C5        1.0  0.02216  0.81359  0.39936  1.0000
  H   H3        1.0  0.01457  0.81039  0.45938  1.0000
  C   C6        1.0  0.02030  0.18668  0.36054  1.0000
  H   H4        1.0  0.01231  0.17175  0.38369  1.0000
  C   C7        1.0  0.04386  0.82138  0.23795  1.0000
  H   H5        1.0  0.05197  0.82434  0.17936  1.0000
  C   C8        1.0  0.04299  0.22749  0.29604  1.0000
  H   H6        1.0  0.05092  0.24219  0.27068  1.0000
  C   C9        1.0  0.04390  0.82316  0.39989  1.0000
  H   H7        1.0  0.05160  0.82676  0.45964  1.0000
  C   C10       1.0  0.05374  0.21809  0.33343  1.0000
  C   C11       1.0  0.04212  0.19751  0.36485  1.0000
  H   H8        1.0  0.04948  0.19025  0.39141  1.0000
  C   C12       1.0  0.05494  0.82717  0.31902  1.0000
  C   C13       1.0  0.18684  0.36784  0.27367  1.0000
  C   C14       1.0  0.17598  0.34605  0.27271  1.0000
  H   H9        1.0  0.19380  0.37559  0.21594  1.0000
  H   H10       1.0  0.17497  0.33844  0.21438  1.0000
  C   C15       1.0  0.22163  0.44509  0.34517  1.0000
  C   C16       1.0  0.20211  0.43374  0.30321  1.0000
  C   C17       1.0  0.19120  0.41190  0.30437  1.0000
  H   H11       1.0  0.19567  0.44132  0.27124  1.0000
  H   H12       1.0  0.17703  0.40409  0.27374  1.0000
  N   N2        1.0  0.23082  0.46571  0.34346  1.0000
  C   C18       1.0  0.62790  0.81282  0.27366  1.0000
  C   C19       1.0  0.64969  0.82375  0.27271  1.0000
  H   H13       1.0  0.62015  0.81204  0.21593  1.0000
  H   H14       1.0  0.65730  0.83035  0.21437  1.0000
  C   C20       1.0  0.55065  0.77036  0.34517  1.0000
  C   C21       1.0  0.56200  0.76220  0.30321  1.0000
  C   C22       1.0  0.58384  0.77313  0.30437  1.0000
  H   H15       1.0  0.55442  0.74818  0.27122  1.0000
  H   H16       1.0  0.59165  0.76676  0.27373  1.0000
  N   N3        1.0  0.53003  0.75894  0.34344  1.0000
  C   C23       1.0  0.18292  0.80890  0.27367  1.0000
  C   C24       1.0  0.17199  0.81976  0.27271  1.0000
  H   H17       1.0  0.18370  0.80194  0.21594  1.0000
  H   H18       1.0  0.16539  0.82077  0.21438  1.0000
  C   C25       1.0  0.22538  0.77411  0.34517  1.0000
  C   C26       1.0  0.23354  0.79363  0.30321  1.0000
  C   C27       1.0  0.22261  0.80454  0.30437  1.0000
  H   H19       1.0  0.24756  0.80006  0.27123  1.0000
  H   H20       1.0  0.22898  0.81871  0.27373  1.0000
  N   N4        1.0  0.23680  0.76492  0.34345  1.0000
  C   C28       1.0  0.81160  0.62520  0.27366  1.0000
  C   C29       1.0  0.82246  0.64699  0.27271  1.0000
  H   H21       1.0  0.80464  0.61745  0.21593  1.0000
  H   H22       1.0  0.82347  0.65460  0.21438  1.0000
  C   C30       1.0  0.77681  0.54796  0.34516  1.0000
  C   C31       1.0  0.79633  0.55931  0.30321  1.0000
  C   C32       1.0  0.80724  0.58114  0.30437  1.0000
  H   H23       1.0  0.80276  0.55172  0.27122  1.0000
  H   H24       1.0  0.82141  0.58895  0.27372  1.0000
  N   N5        1.0  0.76761  0.52733  0.34344  1.0000
  C   C33       1.0  0.37054  0.18023  0.27367  1.0000
  C   C34       1.0  0.34875  0.16929  0.27271  1.0000
  H   H25       1.0  0.37829  0.18101  0.21594  1.0000
  H   H26       1.0  0.34114  0.16269  0.21438  1.0000
  C   C35       1.0  0.44778  0.22268  0.34517  1.0000
  C   C36       1.0  0.43644  0.23085  0.30321  1.0000
  C   C37       1.0  0.41460  0.21992  0.30437  1.0000
  H   H27       1.0  0.44402  0.24487  0.27123  1.0000
  H   H28       1.0  0.40679  0.22628  0.27373  1.0000
  N   N6        1.0  0.46841  0.23410  0.34345  1.0000
  C   C38       1.0  0.81552  0.18414  0.27367  1.0000
  C   C39       1.0  0.82645  0.17328  0.27271  1.0000
  H   H29       1.0  0.81473  0.19110  0.21593  1.0000
  H   H30       1.0  0.83305  0.17228  0.21438  1.0000
  C   C40       1.0  0.77306  0.21893  0.34517  1.0000
  C   C41       1.0  0.76490  0.19941  0.30321  1.0000
  C   C42       1.0  0.77583  0.18851  0.30437  1.0000
  H   H31       1.0  0.75087  0.19298  0.27122  1.0000
  H   H32       1.0  0.76946  0.17433  0.27373  1.0000
  N   N7        1.0  0.76164  0.22813  0.34344  1.0000
  C   C43       1.0  0.16857  0.22159  0.31902  1.0000
  C   C44       1.0  0.17436  0.21630  0.23795  1.0000
  C   C45       1.0  0.18366  0.20370  0.23570  1.0000
  C   C46       1.0  0.18790  0.19691  0.31813  1.0000
  C   C47       1.0  0.19874  0.18569  0.32286  1.0000
  C   C48       1.0  0.21936  0.19468  0.29144  1.0000
  C   C49       1.0  0.23019  0.18371  0.29605  1.0000
  H   H33       1.0  0.22662  0.20925  0.26434  1.0000
  H   H34       1.0  0.24489  0.19049  0.27068  1.0000
  H   H35       1.0  0.17140  0.22145  0.17936  1.0000
  N   N8        1.0  0.18777  0.19829  0.15459  1.0000
  H   H36       1.0  0.18438  0.20281  0.09928  1.0000
  H   H37       1.0  0.19300  0.18872  0.14885  1.0000
  N   N9        1.0  0.16049  0.23394  0.31743  1.0000
  C   C50       1.0  0.77415  0.94080  0.31903  1.0000
  C   C51       1.0  0.77944  0.95188  0.23796  1.0000
  C   C52       1.0  0.79203  0.97378  0.23570  1.0000
  C   C53       1.0  0.79883  0.98481  0.31813  1.0000
  C   C54       1.0  0.81005  0.00687  0.32286  1.0000
  C   C55       1.0  0.80107  0.01851  0.29143  1.0000
  C   C56       1.0  0.81203  0.04030  0.29604  1.0000
  H   H38       1.0  0.78649  0.01119  0.26433  1.0000
  H   H39       1.0  0.80525  0.04822  0.27067  1.0000
  H   H40       1.0  0.77429  0.94377  0.17937  1.0000
  N   N10       1.0  0.79745  0.98331  0.15459  1.0000
  H   H41       1.0  0.79293  0.97539  0.09928  1.0000
  H   H42       1.0  0.80702  0.99809  0.14885  1.0000
  N   N11       1.0  0.76180  0.92037  0.31745  1.0000
  C   C57       1.0  0.98887  0.79700  0.32286  1.0000
  C   C58       1.0  0.97723  0.77638  0.29143  1.0000
  C   C59       1.0  0.95544  0.76555  0.29604  1.0000
  H   H43       1.0  0.98455  0.76912  0.26433  1.0000
  H   H44       1.0  0.94752  0.75085  0.27068  1.0000
  H   H45       1.0  0.99764  0.80275  0.14885  1.0000
  N   N12       1.0  0.07537  0.83525  0.31743  1.0000
  C   C60       1.0  0.82987  0.77145  0.31903  1.0000
  C   C61       1.0  0.82408  0.77674  0.23796  1.0000
  C   C62       1.0  0.81477  0.78934  0.23570  1.0000
  C   C63       1.0  0.81054  0.79614  0.31813  1.0000
  C   C64       1.0  0.79970  0.80735  0.32286  1.0000
  C   C65       1.0  0.77908  0.79837  0.29143  1.0000
  C   C66       1.0  0.76825  0.80933  0.29604  1.0000
  H   H46       1.0  0.77182  0.78379  0.26433  1.0000
  H   H47       1.0  0.75355  0.80255  0.27067  1.0000
  H   H48       1.0  0.82704  0.77159  0.17937  1.0000
  N   N13       1.0  0.81067  0.79476  0.15459  1.0000
  H   H49       1.0  0.81406  0.79023  0.09928  1.0000
  H   H50       1.0  0.80544  0.80432  0.14885  1.0000
  N   N14       1.0  0.83794  0.75910  0.31745  1.0000
  C   C67       1.0  0.22429  0.05224  0.31902  1.0000
  C   C68       1.0  0.21900  0.04116  0.23795  1.0000
  C   C69       1.0  0.20640  0.01926  0.23570  1.0000
  C   C70       1.0  0.19960  0.00823  0.31813  1.0000
  C   C71       1.0  0.18839  0.98617  0.32286  1.0000
  C   C72       1.0  0.19737  0.97454  0.29144  1.0000
  C   C73       1.0  0.18641  0.95274  0.29605  1.0000
  H   H51       1.0  0.21195  0.98185  0.26434  1.0000
  H   H52       1.0  0.19319  0.94482  0.27068  1.0000
  H   H53       1.0  0.22415  0.04928  0.17936  1.0000
  N   N15       1.0  0.20099  0.00973  0.15459  1.0000
  H   H54       1.0  0.20551  0.01765  0.09928  1.0000
  H   H55       1.0  0.19142  0.99495  0.14885  1.0000
  N   N16       1.0  0.23664  0.07267  0.31743  1.0000
  C   C74       1.0  0.94350  0.16587  0.31903  1.0000
  C   C75       1.0  0.95458  0.17166  0.23796  1.0000
  C   C76       1.0  0.97648  0.18097  0.23570  1.0000
  C   C77       1.0  0.98751  0.18520  0.31813  1.0000
  H   H56       1.0  0.94646  0.16870  0.17937  1.0000
  N   N17       1.0  0.98601  0.18507  0.15459  1.0000
  H   H57       1.0  0.97809  0.18168  0.09928  1.0000
  H   H58       1.0  0.00079  0.19030  0.14885  1.0000
  N   N18       1.0  0.92307  0.15780  0.31745  1.0000
  C   C78       1.0  0.22509  0.65684  0.32402  1.0000
  C   C79       1.0  0.22236  0.64736  0.23982  1.0000
  C   C80       1.0  0.22075  0.62766  0.23059  1.0000
  C   C81       1.0  0.22169  0.61720  0.30879  1.0000
  C   C82       1.0  0.22503  0.59998  0.30482  1.0000
  C   C83       1.0  0.24354  0.60271  0.26602  1.0000
  C   C84       1.0  0.24849  0.58683  0.26964  1.0000
  H   H59       1.0  0.25399  0.61658  0.23769  1.0000
  H   H60       1.0  0.26234  0.58953  0.24351  1.0000
  H   H61       1.0  0.22280  0.65549  0.18388  1.0000
  N   N19       1.0  0.21870  0.61960  0.14711  1.0000
  H   H62       1.0  0.21794  0.62691  0.09459  1.0000
  H   H63       1.0  0.21665  0.60580  0.13752  1.0000
  N   N20       1.0  0.23033  0.67673  0.32773  1.0000
  C   C85       1.0  0.33890  0.56208  0.32402  1.0000
  C   C86       1.0  0.34838  0.56883  0.23982  1.0000
  C   C87       1.0  0.36808  0.58692  0.23059  1.0000
  C   C88       1.0  0.37854  0.59832  0.30879  1.0000
  C   C89       1.0  0.39576  0.61887  0.30482  1.0000
  C   C90       1.0  0.39303  0.63466  0.26603  1.0000
  C   C91       1.0  0.40891  0.65549  0.26964  1.0000
  H   H64       1.0  0.37916  0.63123  0.23769  1.0000
  H   H65       1.0  0.40621  0.66664  0.24352  1.0000
  H   H66       1.0  0.34024  0.56113  0.18388  1.0000
  N   N21       1.0  0.37613  0.59292  0.14711  1.0000
  H   H67       1.0  0.36883  0.58486  0.09459  1.0000
  H   H68       1.0  0.38994  0.60468  0.13752  1.0000
  N   N22       1.0  0.31901  0.54743  0.32773  1.0000
  C   C92       1.0  0.43366  0.77065  0.32403  1.0000
  C   C93       1.0  0.42691  0.77337  0.23983  1.0000
  C   C94       1.0  0.40882  0.77498  0.23060  1.0000
  C   C95       1.0  0.39742  0.77404  0.30880  1.0000
  C   C96       1.0  0.37687  0.77071  0.30482  1.0000
  C   C97       1.0  0.36108  0.75219  0.26603  1.0000
  C   C98       1.0  0.34025  0.74725  0.26965  1.0000
  H   H69       1.0  0.36451  0.74174  0.23771  1.0000
  H   H70       1.0  0.32910  0.73340  0.24353  1.0000
  H   H71       1.0  0.43461  0.77294  0.18389  1.0000
  N   N23       1.0  0.40282  0.77704  0.14712  1.0000
  H   H72       1.0  0.41088  0.77779  0.09460  1.0000
  H   H73       1.0  0.39106  0.77908  0.13753  1.0000
  N   N24       1.0  0.44832  0.76541  0.32774  1.0000
  C   C99       1.0  0.77335  0.33620  0.32403  1.0000
  C   C100      1.0  0.77607  0.34569  0.23983  1.0000
  C   C101      1.0  0.77768  0.36539  0.23060  1.0000
  C   C102      1.0  0.77675  0.37585  0.30880  1.0000
  C   C103      1.0  0.77341  0.39306  0.30483  1.0000
  C   C104      1.0  0.75490  0.39034  0.26603  1.0000
  C   C105      1.0  0.74995  0.40622  0.26965  1.0000
  H   H74       1.0  0.74445  0.37646  0.23770  1.0000
  H   H75       1.0  0.73610  0.40351  0.24353  1.0000
  H   H76       1.0  0.77564  0.33755  0.18389  1.0000
  N   N25       1.0  0.77974  0.37344  0.14712  1.0000
  H   H77       1.0  0.78050  0.36613  0.09461  1.0000
  H   H78       1.0  0.78179  0.38725  0.13753  1.0000
  N   N26       1.0  0.76811  0.31632  0.32774  1.0000
  C   C106      1.0  0.65954  0.43097  0.32403  1.0000
  C   C107      1.0  0.65006  0.42421  0.23982  1.0000
  C   C108      1.0  0.63036  0.40612  0.23060  1.0000
  C   C109      1.0  0.61990  0.39472  0.30880  1.0000
  C   C110      1.0  0.60268  0.37417  0.30482  1.0000
  C   C111      1.0  0.60541  0.35838  0.26603  1.0000
  C   C112      1.0  0.58952  0.33755  0.26964  1.0000
  H   H79       1.0  0.61928  0.36181  0.23770  1.0000
  H   H80       1.0  0.59223  0.32641  0.24353  1.0000
  H   H81       1.0  0.65819  0.43191  0.18388  1.0000
  N   N27       1.0  0.62230  0.40012  0.14712  1.0000
  H   H82       1.0  0.62961  0.40818  0.09460  1.0000
  H   H83       1.0  0.60850  0.38836  0.13753  1.0000
  N   N28       1.0  0.67943  0.44562  0.32774  1.0000
  C   C113      1.0  0.56477  0.22240  0.32402  1.0000
  C   C114      1.0  0.57153  0.21967  0.23982  1.0000
  C   C115      1.0  0.58962  0.21806  0.23059  1.0000
  C   C116      1.0  0.60102  0.21900  0.30879  1.0000
  C   C117      1.0  0.62157  0.22233  0.30482  1.0000
  C   C118      1.0  0.63736  0.24085  0.26603  1.0000
  C   C119      1.0  0.65819  0.24580  0.26964  1.0000
  H   H84       1.0  0.63393  0.25130  0.23769  1.0000
  H   H85       1.0  0.66934  0.25965  0.24352  1.0000
  H   H86       1.0  0.56383  0.22011  0.18388  1.0000
  N   N29       1.0  0.59562  0.21601  0.14711  1.0000
  H   H87       1.0  0.58756  0.21525  0.09459  1.0000
  H   H88       1.0  0.60738  0.21396  0.13752  1.0000
  N   N30       1.0  0.55012  0.22763  0.32773  1.0000
  C   C120      1.0  0.14431  0.27969  0.32950  1.0000
  N   N31       1.0  0.15058  0.26542  0.33394  1.0000
  C   C121      1.0  0.13663  0.24480  0.34145  1.0000
  N   N32       1.0  0.11608  0.23859  0.34388  1.0000
  C   C122      1.0  0.10931  0.25249  0.33877  1.0000
  N   N33       1.0  0.12365  0.27296  0.33169  1.0000
  C   C123      1.0  0.08854  0.24645  0.33805  1.0000
  C   C124      1.0  0.15867  0.30047  0.32178  1.0000
  C   C125      1.0  0.14286  0.23029  0.34826  1.0000
  H   H89       1.0  0.13324  0.21659  0.37575  1.0000
  H   H90       1.0  0.17247  0.30468  0.29516  1.0000
  H   H91       1.0  0.08460  0.25739  0.33702  1.0000
  C   C126      1.0  0.71605  0.85844  0.32951  1.0000
  N   N34       1.0  0.73032  0.87898  0.33395  1.0000
  C   C127      1.0  0.75094  0.88565  0.34147  1.0000
  N   N35       1.0  0.75715  0.87131  0.34388  1.0000
  C   C128      1.0  0.74325  0.85065  0.33877  1.0000
  N   N36       1.0  0.72278  0.84451  0.33169  1.0000
  C   C129      1.0  0.74929  0.83591  0.33804  1.0000
  C   C130      1.0  0.69527  0.85203  0.32177  1.0000
  C   C131      1.0  0.76545  0.90640  0.34826  1.0000
  H   H92       1.0  0.77915  0.91047  0.37574  1.0000
  H   H93       1.0  0.69107  0.86162  0.29516  1.0000
  H   H94       1.0  0.73835  0.82103  0.33700  1.0000
  C   C132      1.0  0.13730  0.85143  0.32951  1.0000
  N   N37       1.0  0.11676  0.84517  0.33394  1.0000
  C   C133      1.0  0.11009  0.85911  0.34145  1.0000
  N   N38       1.0  0.12443  0.87967  0.34388  1.0000
  C   C134      1.0  0.14509  0.88643  0.33877  1.0000
  N   N39       1.0  0.15123  0.87209  0.33169  1.0000
  C   C135      1.0  0.15983  0.90721  0.33805  1.0000
  C   C136      1.0  0.14371  0.83707  0.32178  1.0000
  C   C137      1.0  0.08934  0.85288  0.34826  1.0000
  H   H95       1.0  0.08527  0.86250  0.37575  1.0000
  H   H96       1.0  0.13412  0.82327  0.29516  1.0000
  H   H97       1.0  0.17471  0.91114  0.33702  1.0000
  C   C138      1.0  0.85413  0.71335  0.32951  1.0000
  N   N40       1.0  0.84786  0.72763  0.33395  1.0000
  C   C139      1.0  0.86181  0.74824  0.34147  1.0000
  N   N41       1.0  0.88236  0.75445  0.34388  1.0000
  C   C140      1.0  0.88912  0.74055  0.33877  1.0000
  N   N42       1.0  0.87479  0.72008  0.33169  1.0000
  C   C141      1.0  0.90990  0.74660  0.33804  1.0000
  C   C142      1.0  0.83977  0.69258  0.32178  1.0000
  C   C143      1.0  0.85557  0.76275  0.34827  1.0000
  H   H98       1.0  0.86520  0.77645  0.37574  1.0000
  H   H99       1.0  0.82597  0.68837  0.29516  1.0000
  H   H100      1.0  0.91384  0.73565  0.33701  1.0000
  C   C144      1.0  0.28239  0.13460  0.32951  1.0000
  N   N43       1.0  0.26811  0.11406  0.33394  1.0000
  C   C145      1.0  0.24750  0.10739  0.34145  1.0000
  N   N44       1.0  0.24129  0.12173  0.34388  1.0000
  C   C146      1.0  0.25519  0.14239  0.33877  1.0000
  N   N45       1.0  0.27566  0.14853  0.33169  1.0000
  C   C147      1.0  0.24915  0.15713  0.33805  1.0000
  C   C148      1.0  0.30317  0.14102  0.32178  1.0000
  C   C149      1.0  0.23299  0.08664  0.34826  1.0000
  H   H101      1.0  0.21929  0.08257  0.37575  1.0000
  H   H102      1.0  0.30737  0.13143  0.29516  1.0000
  H   H103      1.0  0.26009  0.17202  0.33702  1.0000
  C   C150      1.0  0.86114  0.14161  0.32951  1.0000
  N   N46       1.0  0.88168  0.14788  0.33395  1.0000
  C   C151      1.0  0.88835  0.13393  0.34147  1.0000
  N   N47       1.0  0.87401  0.11338  0.34388  1.0000
  C   C152      1.0  0.85335  0.10662  0.33877  1.0000
  N   N48       1.0  0.84721  0.12095  0.33169  1.0000
  C   C153      1.0  0.83861  0.08584  0.33804  1.0000
  C   C154      1.0  0.85472  0.15597  0.32178  1.0000
  C   C155      1.0  0.90910  0.14017  0.34826  1.0000
  H   H104      1.0  0.91317  0.13054  0.37574  1.0000
  H   H105      1.0  0.86431  0.16977  0.29516  1.0000
  H   H106      1.0  0.82373  0.08190  0.33700  1.0000
  C   C156      1.0  0.25620  0.50068  0.34780  1.0000
  N   N49       1.0  0.27685  0.51489  0.35010  1.0000
  C   C157      1.0  0.28370  0.53558  0.34930  1.0000
  N   N50       1.0  0.26944  0.54178  0.34595  1.0000
  C   C158      1.0  0.24873  0.52816  0.34313  1.0000
  N   N51       1.0  0.24229  0.50754  0.34459  1.0000
  C   C159      1.0  0.23504  0.53556  0.33980  1.0000
  C   C160      1.0  0.25000  0.47986  0.35036  1.0000
  C   C161      1.0  0.30428  0.55068  0.35171  1.0000
  H   H107      1.0  0.30761  0.56506  0.36740  1.0000
  H   H108      1.0  0.26081  0.47583  0.35700  1.0000
  H   H109      1.0  0.22012  0.52627  0.35357  1.0000
  C   C162      1.0  0.49506  0.74934  0.34780  1.0000
  N   N52       1.0  0.48085  0.75578  0.35010  1.0000
  C   C163      1.0  0.46017  0.74195  0.34931  1.0000
  N   N53       1.0  0.45396  0.72148  0.34596  1.0000
  C   C164      1.0  0.46758  0.71440  0.34313  1.0000
  N   N54       1.0  0.48820  0.72858  0.34459  1.0000
  C   C165      1.0  0.46019  0.69331  0.33980  1.0000
  C   C166      1.0  0.51588  0.76397  0.35036  1.0000
  C   C167      1.0  0.44506  0.74742  0.35172  1.0000
  H   H110      1.0  0.43068  0.73637  0.36740  1.0000
  H   H111      1.0  0.51991  0.77881  0.35700  1.0000
  H   H112      1.0  0.46947  0.68767  0.35357  1.0000
  C   C168      1.0  0.24640  0.73954  0.34780  1.0000
  N   N55       1.0  0.23996  0.71889  0.35008  1.0000
  C   C169      1.0  0.25379  0.71204  0.34929  1.0000
  N   N56       1.0  0.27426  0.72630  0.34594  1.0000
  C   C170      1.0  0.28134  0.74701  0.34312  1.0000
  N   N57       1.0  0.26716  0.75345  0.34459  1.0000
  C   C171      1.0  0.30243  0.76070  0.33980  1.0000
  C   C172      1.0  0.23177  0.74574  0.35036  1.0000
  C   C173      1.0  0.24832  0.69146  0.35169  1.0000
  H   H113      1.0  0.25937  0.68813  0.36736  1.0000
  H   H114      1.0  0.21693  0.73493  0.35700  1.0000
  H   H115      1.0  0.30807  0.77562  0.35357  1.0000
  C   C174      1.0  0.74224  0.49236  0.34779  1.0000
  N   N58       1.0  0.72159  0.47815  0.35009  1.0000
  C   C175      1.0  0.71474  0.45747  0.34930  1.0000
  N   N59       1.0  0.72900  0.45126  0.34595  1.0000
  C   C176      1.0  0.74971  0.46488  0.34313  1.0000
  N   N60       1.0  0.75614  0.48550  0.34459  1.0000
  C   C177      1.0  0.76340  0.45749  0.33980  1.0000
  C   C178      1.0  0.74844  0.51319  0.35035  1.0000
  C   C179      1.0  0.69416  0.44236  0.35171  1.0000
  H   H116      1.0  0.69083  0.42798  0.36738  1.0000
  H   H117      1.0  0.73763  0.51721  0.35700  1.0000
  H   H118      1.0  0.77832  0.46677  0.35358  1.0000
  C   C180      1.0  0.50338  0.24371  0.34780  1.0000
  N   N61       1.0  0.51759  0.23727  0.35009  1.0000
  C   C181      1.0  0.53827  0.25110  0.34930  1.0000
  N   N62       1.0  0.54448  0.27156  0.34595  1.0000
  C   C182      1.0  0.53085  0.27865  0.34312  1.0000
  N   N63       1.0  0.51024  0.26447  0.34459  1.0000
  C   C183      1.0  0.53825  0.29973  0.33980  1.0000
  C   C184      1.0  0.48255  0.22908  0.35036  1.0000
  C   C185      1.0  0.55338  0.24562  0.35171  1.0000
  H   H119      1.0  0.56776  0.25667  0.36739  1.0000
  H   H120      1.0  0.47852  0.21424  0.35699  1.0000
  H   H121      1.0  0.52897  0.30537  0.35357  1.0000
  C   C186      1.0  0.75204  0.25350  0.34779  1.0000
  N   N64       1.0  0.75848  0.27415  0.35008  1.0000
  C   C187      1.0  0.74465  0.28100  0.34929  1.0000
  N   N65       1.0  0.72418  0.26675  0.34595  1.0000
  C   C188      1.0  0.71710  0.24604  0.34312  1.0000
  N   N66       1.0  0.73127  0.23960  0.34459  1.0000
  C   C189      1.0  0.69601  0.23234  0.33980  1.0000
  C   C190      1.0  0.76667  0.24731  0.35036  1.0000
  C   C191      1.0  0.75012  0.30159  0.35169  1.0000
  H   H122      1.0  0.73907  0.30492  0.36736  1.0000
  H   H123      1.0  0.78151  0.25812  0.35700  1.0000
  H   H124      1.0  0.69037  0.21743  0.35357  1.0000
  C   C192      1.0  0.16614  0.33480  0.35070  1.0000
  C   C193      1.0  0.16713  0.34577  0.42897  1.0000
  C   C194      1.0  0.17818  0.36775  0.43187  1.0000
  C   C195      1.0  0.18818  0.37890  0.35259  1.0000
  C   C196      1.0  0.19944  0.40091  0.34911  1.0000
  C   C197      1.0  0.21890  0.41220  0.39176  1.0000
  C   C198      1.0  0.22984  0.43402  0.38994  1.0000
  H   H125      1.0  0.22515  0.40461  0.42513  1.0000
  H   H126      1.0  0.24367  0.44175  0.42304  1.0000
  H   H127      1.0  0.15962  0.33755  0.48505  1.0000
  N   N67       1.0  0.17838  0.37728  0.50976  1.0000
  H   H128      1.0  0.17128  0.36933  0.56281  1.0000
  H   H129      1.0  0.18521  0.39228  0.51484  1.0000
  N   N68       1.0  0.15462  0.31426  0.35153  1.0000
  C   C199      1.0  0.66094  0.82517  0.35070  1.0000
  C   C200      1.0  0.64997  0.81519  0.42897  1.0000
  C   C201      1.0  0.62799  0.80426  0.43187  1.0000
  C   C202      1.0  0.61684  0.80311  0.35259  1.0000
  C   C203      1.0  0.59483  0.79236  0.34911  1.0000
  C   C204      1.0  0.58354  0.80052  0.39175  1.0000
  C   C205      1.0  0.56171  0.78964  0.38993  1.0000
  H   H130      1.0  0.59113  0.81436  0.42512  1.0000
  H   H131      1.0  0.55399  0.79575  0.42303  1.0000
  H   H132      1.0  0.65819  0.81590  0.48505  1.0000
  N   N69       1.0  0.61846  0.79492  0.50976  1.0000
  H   H133      1.0  0.62642  0.79578  0.56280  1.0000
  H   H134      1.0  0.60347  0.78676  0.51484  1.0000
  N   N70       1.0  0.68148  0.83419  0.35152  1.0000
  C   C206      1.0  0.17057  0.82960  0.35070  1.0000
  C   C207      1.0  0.18055  0.82861  0.42897  1.0000
  C   C208      1.0  0.19148  0.81756  0.43187  1.0000
  C   C209      1.0  0.19263  0.80756  0.35259  1.0000
  C   C210      1.0  0.20339  0.79630  0.34912  1.0000
  C   C211      1.0  0.19522  0.77684  0.39176  1.0000
  C   C212      1.0  0.20610  0.76590  0.38994  1.0000
  H   H135      1.0  0.18138  0.77059  0.42513  1.0000
  H   H136      1.0  0.19999  0.75206  0.42304  1.0000
  H   H137      1.0  0.17985  0.83612  0.48505  1.0000
  N   N71       1.0  0.20082  0.81736  0.50977  1.0000
  H   H138      1.0  0.19996  0.82446  0.56281  1.0000
  H   H139      1.0  0.20899  0.81054  0.51484  1.0000
  N   N72       1.0  0.16155  0.84112  0.35153  1.0000
  C   C213      1.0  0.83229  0.65825  0.35070  1.0000
  C   C214      1.0  0.83130  0.64727  0.42897  1.0000
  C   C215      1.0  0.82025  0.62530  0.43187  1.0000
  C   C216      1.0  0.81026  0.61415  0.35259  1.0000
  C   C217      1.0  0.79900  0.59214  0.34911  1.0000
  C   C218      1.0  0.77954  0.58084  0.39175  1.0000
  C   C219      1.0  0.76860  0.55902  0.38993  1.0000
  H   H140      1.0  0.77329  0.58843  0.42512  1.0000
  H   H141      1.0  0.75476  0.55129  0.42303  1.0000
  H   H142      1.0  0.83882  0.65549  0.48505  1.0000
  N   N73       1.0  0.82006  0.61576  0.50976  1.0000
  H   H143      1.0  0.82716  0.62372  0.56280  1.0000
  H   H144      1.0  0.81323  0.60077  0.51484  1.0000
  N   N74       1.0  0.84381  0.67878  0.35153  1.0000
  C   C220      1.0  0.33749  0.16787  0.35070  1.0000
  C   C221      1.0  0.34847  0.17786  0.42897  1.0000
  C   C222      1.0  0.37045  0.18879  0.43187  1.0000
  C   C223      1.0  0.38159  0.18994  0.35259  1.0000
  C   C224      1.0  0.40360  0.20069  0.34911  1.0000
  C   C225      1.0  0.41490  0.19252  0.39176  1.0000
  C   C226      1.0  0.43672  0.20341  0.38994  1.0000
  H   H145      1.0  0.40731  0.17868  0.42513  1.0000
  H   H146      1.0  0.44445  0.19730  0.42304  1.0000
  H   H147      1.0  0.34025  0.17715  0.48505  1.0000
  N   N75       1.0  0.37998  0.19812  0.50976  1.0000
  H   H148      1.0  0.37202  0.19727  0.56281  1.0000
  H   H149      1.0  0.39497  0.20629  0.51484  1.0000
  N   N76       1.0  0.31695  0.15886  0.35153  1.0000
  C   C227      1.0  0.82787  0.16345  0.35070  1.0000
  C   C228      1.0  0.81788  0.16444  0.42897  1.0000
  C   C229      1.0  0.80696  0.17549  0.43187  1.0000
  C   C230      1.0  0.80580  0.18549  0.35259  1.0000
  C   C231      1.0  0.79505  0.19674  0.34911  1.0000
  C   C232      1.0  0.80322  0.21620  0.39176  1.0000
  C   C233      1.0  0.79234  0.22714  0.38993  1.0000
  H   H150      1.0  0.81706  0.22246  0.42513  1.0000
  H   H151      1.0  0.79845  0.24098  0.42303  1.0000
  H   H152      1.0  0.81859  0.15693  0.48505  1.0000
  N   N77       1.0  0.79762  0.17568  0.50976  1.0000
  H   H153      1.0  0.79848  0.16858  0.56281  1.0000
  H   H154      1.0  0.78945  0.18251  0.51484  1.0000
  N   N78       1.0  0.83689  0.15193  0.35153  1.0000
  C   C234      1.0  0.18215  0.20240  0.39936  1.0000
  C   C235      1.0  0.17258  0.21456  0.39989  1.0000
  H   H155      1.0  0.18535  0.19800  0.45938  1.0000
  H   H156      1.0  0.16898  0.21867  0.45964  1.0000
  C   C236      1.0  0.22079  0.16357  0.33343  1.0000
  C   C237      1.0  0.20021  0.15462  0.36485  1.0000
  C   C238      1.0  0.18937  0.16560  0.36054  1.0000
  H   H157      1.0  0.19295  0.13998  0.39141  1.0000
  H   H158      1.0  0.17445  0.15866  0.38368  1.0000
  N   N79       1.0  0.22991  0.15209  0.33695  1.0000
  C   C239      1.0  0.79334  0.97358  0.39936  1.0000
  C   C240      1.0  0.78118  0.95184  0.39990  1.0000
  H   H159      1.0  0.79774  0.98118  0.45938  1.0000
  H   H160      1.0  0.77707  0.94414  0.45965  1.0000
  C   C241      1.0  0.83217  0.05105  0.33343  1.0000
  C   C242      1.0  0.84112  0.03942  0.36485  1.0000
  C   C243      1.0  0.83014  0.01760  0.36054  1.0000
  H   H161      1.0  0.85576  0.04679  0.39141  1.0000
  H   H162      1.0  0.83708  0.00961  0.38369  1.0000
  N   N80       1.0  0.84365  0.07165  0.33694  1.0000
  C   C244      1.0  0.94469  0.77495  0.33343  1.0000
  C   C245      1.0  0.95632  0.79553  0.36485  1.0000
  C   C246      1.0  0.97814  0.80637  0.36054  1.0000
  H   H163      1.0  0.94895  0.80280  0.39141  1.0000
  H   H164      1.0  0.98613  0.82129  0.38368  1.0000
  N   N81       1.0  0.92410  0.76583  0.33695  1.0000
  C   C247      1.0  0.81628  0.79064  0.39937  1.0000
  C   C248      1.0  0.82586  0.77848  0.39990  1.0000
  H   H165      1.0  0.81308  0.79504  0.45938  1.0000
  H   H166      1.0  0.82945  0.77437  0.45965  1.0000
  C   C249      1.0  0.77765  0.82947  0.33343  1.0000
  C   C250      1.0  0.79823  0.83843  0.36485  1.0000
  C   C251      1.0  0.80906  0.82744  0.36054  1.0000
  H   H167      1.0  0.80549  0.85306  0.39141  1.0000
  H   H168      1.0  0.82399  0.83438  0.38369  1.0000
  N   N82       1.0  0.76853  0.84095  0.33694  1.0000
  C   C252      1.0  0.20510  0.01947  0.39936  1.0000
  C   C253      1.0  0.21726  0.04120  0.39989  1.0000
  H   H169      1.0  0.20070  0.01187  0.45938  1.0000
  H   H170      1.0  0.22137  0.04890  0.45964  1.0000
  C   C254      1.0  0.16627  0.94200  0.33343  1.0000
  C   C255      1.0  0.15731  0.95362  0.36485  1.0000
  C   C256      1.0  0.16829  0.97544  0.36054  1.0000
  H   H171      1.0  0.14268  0.94626  0.39141  1.0000
  H   H172      1.0  0.16136  0.98343  0.38368  1.0000
  N   N83       1.0  0.15479  0.92140  0.33695  1.0000
  C   C257      1.0  0.97627  0.17946  0.39937  1.0000
  C   C258      1.0  0.95454  0.16988  0.39990  1.0000
  H   H173      1.0  0.98387  0.18266  0.45938  1.0000
  H   H174      1.0  0.94684  0.16629  0.45965  1.0000
  N   N84       1.0  0.07434  0.22721  0.33694  1.0000
  C   C259      1.0  0.22324  0.62631  0.39351  1.0000
  C   C260      1.0  0.22486  0.64586  0.40115  1.0000
  H   H175      1.0  0.22476  0.61950  0.45029  1.0000
  H   H176      1.0  0.22742  0.65272  0.46265  1.0000
  C   C261      1.0  0.23507  0.56781  0.31185  1.0000
  C   C262      1.0  0.21646  0.56489  0.35032  1.0000
  C   C263      1.0  0.21158  0.58091  0.34739  1.0000
  H   H177      1.0  0.20686  0.55152  0.38405  1.0000
  H   H178      1.0  0.19837  0.57874  0.37821  1.0000
  N   N85       1.0  0.24206  0.55470  0.31981  1.0000
  C   C264      1.0  0.36943  0.59076  0.39351  1.0000
  C   C265      1.0  0.34987  0.57282  0.40115  1.0000
  H   H179      1.0  0.37624  0.59909  0.45029  1.0000
  H   H180      1.0  0.34302  0.56852  0.46265  1.0000
  C   C266      1.0  0.42792  0.66108  0.31186  1.0000
  C   C267      1.0  0.43084  0.64539  0.35032  1.0000
  C   C268      1.0  0.41482  0.62450  0.34739  1.0000
  H   H181      1.0  0.44422  0.64916  0.38404  1.0000
  H   H182      1.0  0.41700  0.61345  0.37820  1.0000
  N   N86       1.0  0.44104  0.68119  0.31982  1.0000
  C   C269      1.0  0.40498  0.77250  0.39353  1.0000
  C   C270      1.0  0.42292  0.77088  0.40116  1.0000
  H   H183      1.0  0.39665  0.77098  0.45031  1.0000
  H   H184      1.0  0.42722  0.76832  0.46266  1.0000
  C   C271      1.0  0.33466  0.76067  0.31186  1.0000
  C   C272      1.0  0.35035  0.77928  0.35032  1.0000
  C   C273      1.0  0.37124  0.78416  0.34739  1.0000
  H   H185      1.0  0.34658  0.78888  0.38404  1.0000
  H   H186      1.0  0.38228  0.79737  0.37820  1.0000
  N   N87       1.0  0.31455  0.75367  0.31981  1.0000
  C   C274      1.0  0.77520  0.36674  0.39353  1.0000
  C   C275      1.0  0.77358  0.34718  0.40116  1.0000
  H   H187      1.0  0.77368  0.37355  0.45031  1.0000
  H   H188      1.0  0.77102  0.34032  0.46266  1.0000
  C   C276      1.0  0.76337  0.42523  0.31186  1.0000
  C   C277      1.0  0.78198  0.42815  0.35032  1.0000
  C   C278      1.0  0.78685  0.41213  0.34740  1.0000
  H   H189      1.0  0.79158  0.44152  0.38405  1.0000
  H   H190      1.0  0.80007  0.41430  0.37821  1.0000
  N   N88       1.0  0.75637  0.43834  0.31982  1.0000
  C   C279      1.0  0.62901  0.40228  0.39353  1.0000
  C   C280      1.0  0.64856  0.42023  0.40115  1.0000
  H   H191      1.0  0.62220  0.39396  0.45030  1.0000
  H   H192      1.0  0.65542  0.42452  0.46266  1.0000
  C   C281      1.0  0.57051  0.33197  0.31186  1.0000
  C   C282      1.0  0.56759  0.34765  0.35032  1.0000
  C   C283      1.0  0.58361  0.36855  0.34739  1.0000
  H   H193      1.0  0.55422  0.34388  0.38404  1.0000
  H   H194      1.0  0.58144  0.37959  0.37820  1.0000
  N   N89       1.0  0.55740  0.31185  0.31981  1.0000
  C   C284      1.0  0.59346  0.22055  0.39351  1.0000
  C   C285      1.0  0.57551  0.22216  0.40115  1.0000
  H   H195      1.0  0.60179  0.22207  0.45029  1.0000
  H   H196      1.0  0.57122  0.22473  0.46265  1.0000
  C   C286      1.0  0.66378  0.23237  0.31186  1.0000
  C   C287      1.0  0.64809  0.21377  0.35032  1.0000
  C   C288      1.0  0.62719  0.20889  0.34739  1.0000
  H   H197      1.0  0.65186  0.20417  0.38404  1.0000
  H   H198      1.0  0.61615  0.19568  0.37820  1.0000
  N   N90       1.0  0.68389  0.23937  0.31981  1.0000
