data_image0
_chemical_formula_structural       C13NC2N2HCNC2N2HCNC2N2HCNC2N2HCNC2N2HCNC2N2HNC2HNHNC2HNHNC2HNHNC2HNHNC2HNHNC2HNHCNC2N2HCNC2N2HCNC2N2HCNC2N2HCNC2N2HCNC2N2HC5H3C2O3C5H3C2O3C5H3C2O3C5H3C2O3C5H3C2O3C5H3C2O3C6H3C3O3C6H3C3O3C6H3C3O3C6H3C3O3C6H3C3O3C6H3C3O3NC2HNHNC2HNHNC2HNHNC2HNHNC2HNHNC2HNHCNC2N2HCNC2N2HCNC2N2HCNC2N2HCNC2N2HCNC2N2HNC2HNHNC2HNHNC2HNHNC2HNHNC2HNHNC2HNH
_chemical_formula_sum              "C198 N90 H90 O36"
_cell_length_a       58.6105
_cell_length_b       58.6104
_cell_length_c       15.062
_cell_angle_alpha    90
_cell_angle_beta     90
_cell_angle_gamma    120

_space_group_name_H-M_alt    "P 1"
_space_group_IT_number       1

loop_
  _space_group_symop_operation_xyz
  'x, y, z'

loop_
  _atom_site_type_symbol
  _atom_site_label
  _atom_site_symmetry_multiplicity
  _atom_site_fract_x
  _atom_site_fract_y
  _atom_site_fract_z
  _atom_site_occupancy
  C   C1        1.0  0.09780  0.43568  0.37936  1.0000
  C   C2        1.0  0.07461  0.41074  0.37941  1.0000
  C   C3        1.0  0.57817  0.68007  0.37927  1.0000
  C   C4        1.0  0.60310  0.68181  0.37932  1.0000
  C   C5        1.0  0.33371  0.91602  0.38054  1.0000
  C   C6        1.0  0.33205  0.93926  0.38050  1.0000
  C   C7        1.0  0.90864  0.58538  0.37953  1.0000
  C   C8        1.0  0.93189  0.61026  0.37971  1.0000
  C   C9        1.0  0.42822  0.34096  0.37981  1.0000
  C   C10       1.0  0.40333  0.33932  0.37993  1.0000
  C   C11       1.0  0.67264  0.10504  0.38026  1.0000
  C   C12       1.0  0.67424  0.08177  0.38045  1.0000
  C   C13       1.0  0.19992  0.45271  0.32315  1.0000
  N   N1        1.0  0.23503  0.45401  0.23926  1.0000
  C   C14       1.0  0.21207  0.45433  0.24018  1.0000
  C   C15       1.0  0.20283  0.45673  0.16443  1.0000
  N   N2        1.0  0.19465  0.45882  0.09754  1.0000
  N   N3        1.0  0.17632  0.45178  0.33158  1.0000
  H   H1        1.0  0.16328  0.44246  0.28517  1.0000
  C   C16       1.0  0.56118  0.76516  0.32262  1.0000
  N   N4        1.0  0.55985  0.79895  0.23870  1.0000
  C   C17       1.0  0.55955  0.77567  0.23964  1.0000
  C   C18       1.0  0.55710  0.76402  0.16391  1.0000
  N   N5        1.0  0.55497  0.75372  0.09705  1.0000
  N   N6        1.0  0.56207  0.74247  0.33106  1.0000
  H   H2        1.0  0.57139  0.73873  0.28468  1.0000
  C   C19       1.0  0.24861  0.81394  0.32415  1.0000
  N   N7        1.0  0.21492  0.77886  0.23976  1.0000
  C   C20       1.0  0.23820  0.80184  0.24102  1.0000
  C   C21       1.0  0.24991  0.81113  0.16543  1.0000
  N   N8        1.0  0.26026  0.81937  0.09869  1.0000
  N   N9        1.0  0.27126  0.83754  0.33289  1.0000
  H   H3        1.0  0.27505  0.85059  0.28644  1.0000
  C   C22       1.0  0.80662  0.56861  0.32374  1.0000
  N   N10       1.0  0.77148  0.56728  0.23987  1.0000
  C   C23       1.0  0.79445  0.56695  0.24078  1.0000
  C   C24       1.0  0.80365  0.56449  0.16505  1.0000
  N   N11       1.0  0.81180  0.56234  0.09818  1.0000
  N   N12       1.0  0.83019  0.56949  0.33217  1.0000
  H   H4        1.0  0.84323  0.57879  0.28575  1.0000
  C   C25       1.0  0.44509  0.25576  0.32383  1.0000
  N   N13       1.0  0.44648  0.22206  0.23954  1.0000
  C   C26       1.0  0.44671  0.24530  0.24072  1.0000
  C   C27       1.0  0.44905  0.25696  0.16507  1.0000
  N   N14       1.0  0.45110  0.26727  0.09829  1.0000
  N   N15       1.0  0.44412  0.27840  0.33249  1.0000
  H   H5        1.0  0.43476  0.28212  0.28619  1.0000
  C   C28       1.0  0.75800  0.20700  0.32461  1.0000
  N   N16       1.0  0.79172  0.24210  0.24044  1.0000
  C   C29       1.0  0.76848  0.21910  0.24154  1.0000
  C   C30       1.0  0.75683  0.20979  0.16586  1.0000
  N   N17       1.0  0.74653  0.20154  0.09905  1.0000
  N   N18       1.0  0.73535  0.18340  0.33325  1.0000
  H   H6        1.0  0.73163  0.17033  0.28694  1.0000
  N   N19       1.0  0.13357  0.55978  0.27680  1.0000
  C   C31       1.0  0.13402  0.58200  0.24926  1.0000
  C   C32       1.0  0.13212  0.59863  0.31290  1.0000
  H   H7        1.0  0.13510  0.58607  0.18294  1.0000
  N   N20       1.0  0.13234  0.62123  0.28861  1.0000
  H   H8        1.0  0.14102  0.62935  0.23271  1.0000
  N   N21       1.0  0.45407  0.59164  0.27715  1.0000
  C   C33       1.0  0.43186  0.56982  0.24970  1.0000
  C   C34       1.0  0.41527  0.55131  0.31340  1.0000
  H   H9        1.0  0.42776  0.56685  0.18340  1.0000
  N   N22       1.0  0.39266  0.52893  0.28920  1.0000
  H   H10       1.0  0.38453  0.52948  0.23329  1.0000
  N   N23       1.0  0.42181  0.87999  0.27720  1.0000
  C   C35       1.0  0.44361  0.87959  0.24962  1.0000
  C   C36       1.0  0.46219  0.88159  0.31319  1.0000
  H   H11       1.0  0.44655  0.87845  0.18330  1.0000
  N   N24       1.0  0.48457  0.88138  0.28887  1.0000
  H   H12       1.0  0.48401  0.87268  0.23300  1.0000
  N   N25       1.0  0.87260  0.46121  0.27643  1.0000
  C   C37       1.0  0.87222  0.43900  0.24901  1.0000
  C   C38       1.0  0.87426  0.42248  0.31272  1.0000
  H   H13       1.0  0.87108  0.43489  0.18272  1.0000
  N   N26       1.0  0.87410  0.39990  0.28857  1.0000
  H   H14       1.0  0.86535  0.39169  0.23283  1.0000
  N   N27       1.0  0.55239  0.42914  0.27687  1.0000
  C   C39       1.0  0.57459  0.45100  0.24953  1.0000
  C   C40       1.0  0.59110  0.46955  0.31330  1.0000
  H   H15       1.0  0.57875  0.45398  0.18326  1.0000
  N   N28       1.0  0.61370  0.49196  0.28924  1.0000
  H   H16       1.0  0.62190  0.49144  0.23344  1.0000
  N   N29       1.0  0.58464  0.14119  0.27639  1.0000
  C   C41       1.0  0.56283  0.14158  0.24881  1.0000
  C   C42       1.0  0.54425  0.13957  0.31240  1.0000
  H   H17       1.0  0.55988  0.14271  0.18249  1.0000
  N   N30       1.0  0.52186  0.13976  0.28811  1.0000
  H   H18       1.0  0.52240  0.14844  0.23221  1.0000
  C   C43       1.0  0.03075  0.38469  0.31777  1.0000
  N   N31       1.0  0.98771  0.36139  0.25509  1.0000
  C   C44       1.0  0.01414  0.37421  0.24253  1.0000
  C   C45       1.0  0.02253  0.37773  0.16101  1.0000
  N   N32       1.0  0.02990  0.38080  0.08897  1.0000
  N   N33       1.0  0.05696  0.40318  0.31164  1.0000
  H   H19       1.0  0.06248  0.41415  0.25843  1.0000
  C   C46       1.0  0.62918  0.66407  0.31773  1.0000
  N   N34       1.0  0.65243  0.64422  0.25531  1.0000
  C   C47       1.0  0.63968  0.65789  0.24263  1.0000
  C   C48       1.0  0.63629  0.66287  0.16111  1.0000
  N   N35       1.0  0.63334  0.66729  0.08907  1.0000
  N   N36       1.0  0.61067  0.67175  0.31150  1.0000
  H   H20       1.0  0.59966  0.66617  0.25841  1.0000
  C   C49       1.0  0.34976  0.98304  0.31819  1.0000
  N   N37       1.0  0.36953  0.02603  0.25499  1.0000
  C   C50       1.0  0.35585  0.99958  0.24278  1.0000
  C   C51       1.0  0.35091  0.99110  0.16137  1.0000
  N   N38       1.0  0.34654  0.98364  0.08944  1.0000
  N   N39       1.0  0.34211  0.95685  0.31254  1.0000
  H   H21       1.0  0.34751  0.95128  0.25930  1.0000
  C   C52       1.0  0.97574  0.63632  0.31786  1.0000
  N   N40       1.0  0.01875  0.65970  0.25496  1.0000
  C   C53       1.0  0.99231  0.64682  0.24254  1.0000
  C   C54       1.0  0.98387  0.64332  0.16108  1.0000
  N   N41       1.0  0.97646  0.64027  0.08909  1.0000
  N   N42       1.0  0.94953  0.61782  0.31192  1.0000
  H   H22       1.0  0.94400  0.60689  0.25859  1.0000
  C   C55       1.0  0.37723  0.35702  0.31802  1.0000
  N   N43       1.0  0.35388  0.37671  0.25529  1.0000
  C   C56       1.0  0.36671  0.36311  0.24279  1.0000
  C   C57       1.0  0.37015  0.35811  0.16133  1.0000
  N   N44       1.0  0.37314  0.35370  0.08934  1.0000
  N   N45       1.0  0.39576  0.34935  0.31201  1.0000
  H   H23       1.0  0.40674  0.35483  0.25884  1.0000
  C   C58       1.0  0.65655  0.03798  0.31838  1.0000
  N   N46       1.0  0.63683  0.99499  0.25528  1.0000
  C   C59       1.0  0.65048  0.02143  0.24298  1.0000
  C   C60       1.0  0.65538  0.02989  0.16154  1.0000
  N   N47       1.0  0.65973  0.03732  0.08958  1.0000
  N   N48       1.0  0.66424  0.06418  0.31248  1.0000
  H   H24       1.0  0.65886  0.06975  0.25921  1.0000
  C   C61       1.0  0.14566  0.46267  0.39569  1.0000
  C   C62       1.0  0.14406  0.48559  0.38030  1.0000
  C   C63       1.0  0.11958  0.48388  0.36234  1.0000
  C   C64       1.0  0.09666  0.45873  0.36094  1.0000
  C   C65       1.0  0.12240  0.43786  0.39711  1.0000
  H   H25       1.0  0.07876  0.45722  0.34853  1.0000
  H   H26       1.0  0.12353  0.42114  0.40693  1.0000
  H   H27       1.0  0.16107  0.50343  0.37554  1.0000
  C   C66       1.0  0.17028  0.46386  0.39714  1.0000
  C   C67       1.0  0.11826  0.50671  0.33965  1.0000
  O   O1        1.0  0.07012  0.39508  0.45102  1.0000
  O   O2        1.0  0.18925  0.48181  0.45114  1.0000
  O   O3        1.0  0.10099  0.50428  0.27540  1.0000
  C   C68       1.0  0.55117  0.70093  0.39533  1.0000
  C   C69       1.0  0.52824  0.67639  0.38024  1.0000
  C   C70       1.0  0.52996  0.65362  0.36239  1.0000
  C   C71       1.0  0.55512  0.65586  0.36102  1.0000
  C   C72       1.0  0.57598  0.70250  0.39669  1.0000
  H   H28       1.0  0.55663  0.63947  0.34875  1.0000
  H   H29       1.0  0.59270  0.72035  0.40651  1.0000
  H   H30       1.0  0.51040  0.67554  0.37536  1.0000
  C   C73       1.0  0.54996  0.72435  0.39662  1.0000
  C   C74       1.0  0.50714  0.62945  0.33980  1.0000
  O   O4        1.0  0.61886  0.69316  0.45062  1.0000
  O   O5        1.0  0.53202  0.72539  0.45059  1.0000
  O   O6        1.0  0.50958  0.61460  0.27562  1.0000
  C   C75       1.0  0.31274  0.86817  0.39724  1.0000
  C   C76       1.0  0.33720  0.86967  0.38156  1.0000
  C   C77       1.0  0.35999  0.89410  0.36315  1.0000
  C   C78       1.0  0.35784  0.91706  0.36178  1.0000
  C   C79       1.0  0.31127  0.89146  0.39858  1.0000
  H   H31       1.0  0.37425  0.93493  0.34912  1.0000
  H   H32       1.0  0.29346  0.89040  0.40867  1.0000
  H   H33       1.0  0.33796  0.85262  0.37667  1.0000
  C   C80       1.0  0.28925  0.84359  0.39892  1.0000
  C   C81       1.0  0.38408  0.89534  0.34016  1.0000
  O   O7        1.0  0.32089  0.94382  0.45201  1.0000
  O   O8        1.0  0.28829  0.82461  0.45276  1.0000
  O   O9        1.0  0.39886  0.91253  0.27564  1.0000
  C   C82       1.0  0.86078  0.55852  0.39600  1.0000
  C   C83       1.0  0.86227  0.53555  0.38032  1.0000
  C   C84       1.0  0.88670  0.53718  0.36198  1.0000
  C   C85       1.0  0.90967  0.56229  0.36070  1.0000
  C   C86       1.0  0.88409  0.58327  0.39749  1.0000
  H   H34       1.0  0.92754  0.56373  0.34811  1.0000
  H   H35       1.0  0.88303  0.60002  0.40768  1.0000
  H   H36       1.0  0.84522  0.51775  0.37542  1.0000
  C   C87       1.0  0.83619  0.55742  0.39788  1.0000
  C   C88       1.0  0.88792  0.51431  0.33903  1.0000
  O   O10       1.0  0.93642  0.62591  0.45141  1.0000
  O   O11       1.0  0.81720  0.53939  0.45161  1.0000
  O   O12       1.0  0.90513  0.51672  0.27461  1.0000
  C   C89       1.0  0.45509  0.31997  0.39636  1.0000
  C   C90       1.0  0.47805  0.34443  0.38065  1.0000
  C   C91       1.0  0.47642  0.36722  0.36228  1.0000
  C   C92       1.0  0.45131  0.36508  0.36096  1.0000
  C   C93       1.0  0.43033  0.31852  0.39783  1.0000
  H   H37       1.0  0.44986  0.38150  0.34836  1.0000
  H   H38       1.0  0.41358  0.30071  0.40801  1.0000
  H   H39       1.0  0.49586  0.34519  0.37575  1.0000
  C   C94       1.0  0.45619  0.29648  0.39816  1.0000
  C   C95       1.0  0.49929  0.39131  0.33931  1.0000
  O   O13       1.0  0.38760  0.32808  0.45136  1.0000
  O   O14       1.0  0.47429  0.29558  0.45170  1.0000
  O   O15       1.0  0.49688  0.40612  0.27488  1.0000
  C   C96       1.0  0.69368  0.15290  0.39670  1.0000
  C   C97       1.0  0.66923  0.15144  0.38101  1.0000
  C   C98       1.0  0.64643  0.12703  0.36252  1.0000
  C   C99       1.0  0.64854  0.10403  0.36127  1.0000
  C   C100      1.0  0.69510  0.12957  0.39829  1.0000
  H   H40       1.0  0.63211  0.08618  0.34862  1.0000
  H   H41       1.0  0.71289  0.13061  0.40855  1.0000
  H   H42       1.0  0.66850  0.16850  0.37591  1.0000
  C   C101      1.0  0.71717  0.17748  0.39853  1.0000
  C   C102      1.0  0.62237  0.12583  0.33937  1.0000
  O   O16       1.0  0.68538  0.07723  0.45207  1.0000
  O   O17       1.0  0.71816  0.19653  0.45203  1.0000
  O   O18       1.0  0.60759  0.10864  0.27483  1.0000
  C   C103      1.0  0.45493  0.15303  0.25538  1.0000
  C   C104      1.0  0.47764  0.15175  0.27791  1.0000
  C   C105      1.0  0.47574  0.12756  0.30224  1.0000
  C   C106      1.0  0.45062  0.10459  0.30250  1.0000
  C   C107      1.0  0.42780  0.10536  0.27702  1.0000
  C   C108      1.0  0.43020  0.12968  0.25308  1.0000
  H   H43       1.0  0.44904  0.08688  0.31885  1.0000
  H   H44       1.0  0.41362  0.13060  0.23786  1.0000
  H   H45       1.0  0.49538  0.16885  0.28338  1.0000
  C   C109      1.0  0.45610  0.17759  0.24766  1.0000
  C   C110      1.0  0.40295  0.08203  0.27479  1.0000
  C   C111      1.0  0.49830  0.12658  0.33114  1.0000
  O   O19       1.0  0.38844  0.07722  0.19993  1.0000
  O   O20       1.0  0.47504  0.19615  0.19516  1.0000
  O   O21       1.0  0.49512  0.11016  0.39935  1.0000
  C   C112      1.0  0.69398  0.55880  0.25711  1.0000
  C   C113      1.0  0.66998  0.53612  0.27981  1.0000
  C   C114      1.0  0.64769  0.53803  0.30387  1.0000
  C   C115      1.0  0.64984  0.56315  0.30404  1.0000
  C   C116      1.0  0.67345  0.58596  0.27858  1.0000
  C   C117      1.0  0.69537  0.58353  0.25473  1.0000
  H   H46       1.0  0.63372  0.56475  0.32022  1.0000
  H   H47       1.0  0.71286  0.60010  0.23940  1.0000
  H   H48       1.0  0.66930  0.51835  0.28505  1.0000
  C   C118      1.0  0.71736  0.55762  0.24932  1.0000
  C   C119      1.0  0.67500  0.61082  0.27609  1.0000
  C   C120      1.0  0.62411  0.51546  0.33258  1.0000
  O   O22       1.0  0.68473  0.62528  0.20113  1.0000
  O   O23       1.0  0.71690  0.53858  0.19711  1.0000
  O   O24       1.0  0.61083  0.51864  0.40066  1.0000
  C   C121      1.0  0.86070  0.31962  0.25653  1.0000
  C   C122      1.0  0.86201  0.34362  0.27913  1.0000
  C   C123      1.0  0.88622  0.36593  0.30310  1.0000
  C   C124      1.0  0.90919  0.36378  0.30325  1.0000
  C   C125      1.0  0.90839  0.34016  0.27797  1.0000
  C   C126      1.0  0.88404  0.31822  0.25420  1.0000
  H   H49       1.0  0.92690  0.37991  0.31949  1.0000
  H   H50       1.0  0.88311  0.30072  0.23902  1.0000
  H   H51       1.0  0.84492  0.34429  0.28439  1.0000
  C   C127      1.0  0.83615  0.29623  0.24897  1.0000
  C   C128      1.0  0.93170  0.33862  0.27562  1.0000
  C   C129      1.0  0.88721  0.38950  0.33182  1.0000
  O   O25       1.0  0.93649  0.32893  0.20067  1.0000
  O   O26       1.0  0.81757  0.29657  0.19644  1.0000
  O   O27       1.0  0.90370  0.40280  0.39982  1.0000
  C   C130      1.0  0.55143  0.86801  0.25573  1.0000
  C   C131      1.0  0.52874  0.86929  0.27858  1.0000
  C   C132      1.0  0.53066  0.89347  0.30301  1.0000
  C   C133      1.0  0.55578  0.91645  0.30313  1.0000
  C   C134      1.0  0.57859  0.91567  0.27752  1.0000
  C   C135      1.0  0.57617  0.89134  0.25351  1.0000
  H   H52       1.0  0.55738  0.93415  0.31963  1.0000
  H   H53       1.0  0.59273  0.89043  0.23794  1.0000
  H   H54       1.0  0.51099  0.85219  0.28393  1.0000
  C   C136      1.0  0.55026  0.84345  0.24780  1.0000
  C   C137      1.0  0.60344  0.93900  0.27518  1.0000
  C   C138      1.0  0.50811  0.89444  0.33206  1.0000
  O   O28       1.0  0.61795  0.94379  0.20033  1.0000
  O   O29       1.0  0.53128  0.82490  0.19534  1.0000
  O   O30       1.0  0.51133  0.91091  0.40017  1.0000
  C   C139      1.0  0.31237  0.46217  0.25604  1.0000
  C   C140      1.0  0.33636  0.48484  0.27901  1.0000
  C   C141      1.0  0.35859  0.48288  0.30359  1.0000
  C   C142      1.0  0.35641  0.45775  0.30379  1.0000
  C   C143      1.0  0.33282  0.43496  0.27812  1.0000
  C   C144      1.0  0.31094  0.43742  0.25389  1.0000
  H   H55       1.0  0.37250  0.45613  0.32036  1.0000
  H   H56       1.0  0.29346  0.42087  0.23832  1.0000
  H   H57       1.0  0.33703  0.50260  0.28429  1.0000
  C   C145      1.0  0.28900  0.46335  0.24789  1.0000
  C   C146      1.0  0.33125  0.41009  0.27575  1.0000
  C   C147      1.0  0.38214  0.50543  0.33259  1.0000
  O   O31       1.0  0.32160  0.39565  0.20072  1.0000
  O   O32       1.0  0.28958  0.48242  0.19553  1.0000
  O   O33       1.0  0.39532  0.50221  0.40090  1.0000
  C   C148      1.0  0.14574  0.70149  0.25552  1.0000
  C   C149      1.0  0.14446  0.67751  0.27838  1.0000
  C   C150      1.0  0.12028  0.65524  0.30283  1.0000
  C   C151      1.0  0.09731  0.65738  0.30300  1.0000
  C   C152      1.0  0.09808  0.68097  0.27741  1.0000
  C   C153      1.0  0.12240  0.70288  0.25329  1.0000
  H   H58       1.0  0.07960  0.64128  0.31953  1.0000
  H   H59       1.0  0.12332  0.72035  0.23783  1.0000
  H   H60       1.0  0.16156  0.67686  0.28373  1.0000
  C   C154      1.0  0.17030  0.72488  0.24766  1.0000
  C   C155      1.0  0.07475  0.68250  0.27513  1.0000
  C   C156      1.0  0.11930  0.63171  0.33186  1.0000
  O   O34       1.0  0.06993  0.69217  0.20023  1.0000
  O   O35       1.0  0.18883  0.72436  0.19535  1.0000
  O   O36       1.0  0.10291  0.61853  0.40022  1.0000
  N   N49       1.0  0.21169  0.45009  0.39725  1.0000
  C   C157      1.0  0.23442  0.44940  0.39569  1.0000
  C   C158      1.0  0.24697  0.45178  0.31355  1.0000
  H   H61       1.0  0.24222  0.44739  0.45385  1.0000
  N   N50       1.0  0.26943  0.45043  0.30848  1.0000
  H   H62       1.0  0.27213  0.44041  0.35511  1.0000
  N   N51       1.0  0.56380  0.77955  0.39670  1.0000
  C   C159      1.0  0.56449  0.80297  0.39513  1.0000
  C   C160      1.0  0.56209  0.81312  0.31299  1.0000
  H   H63       1.0  0.56649  0.81278  0.45327  1.0000
  N   N52       1.0  0.56338  0.83691  0.30792  1.0000
  H   H64       1.0  0.57342  0.84965  0.35447  1.0000
  N   N53       1.0  0.23415  0.80208  0.39804  1.0000
  C   C161      1.0  0.21075  0.77933  0.39616  1.0000
  C   C162      1.0  0.20068  0.76686  0.31385  1.0000
  H   H65       1.0  0.20089  0.77149  0.45417  1.0000
  N   N54       1.0  0.17688  0.74438  0.30845  1.0000
  H   H66       1.0  0.16412  0.74163  0.35499  1.0000
  N   N55       1.0  0.79487  0.57127  0.39783  1.0000
  C   C163      1.0  0.77215  0.57198  0.39628  1.0000
  C   C164      1.0  0.75958  0.56956  0.31416  1.0000
  H   H67       1.0  0.76436  0.57401  0.45443  1.0000
  N   N56       1.0  0.73709  0.57087  0.30909  1.0000
  H   H68       1.0  0.73441  0.58093  0.35559  1.0000
  N   N57       1.0  0.44258  0.24136  0.39780  1.0000
  C   C165      1.0  0.44198  0.21799  0.39599  1.0000
  C   C166      1.0  0.44435  0.20788  0.31370  1.0000
  H   H69       1.0  0.44005  0.20817  0.45406  1.0000
  N   N58       1.0  0.44310  0.18412  0.30837  1.0000
  H   H70       1.0  0.43313  0.17135  0.35493  1.0000
  N   N59       1.0  0.77239  0.21886  0.39862  1.0000
  C   C167      1.0  0.79577  0.24162  0.39688  1.0000
  C   C168      1.0  0.80589  0.25412  0.31464  1.0000
  H   H71       1.0  0.80558  0.24949  0.45497  1.0000
  N   N60       1.0  0.82965  0.27665  0.30940  1.0000
  H   H72       1.0  0.84241  0.27942  0.35593  1.0000
  C   C169      1.0  0.13190  0.55253  0.36354  1.0000
  N   N61       1.0  0.13093  0.59165  0.39972  1.0000
  C   C170      1.0  0.13109  0.56974  0.42795  1.0000
  C   C171      1.0  0.12935  0.56524  0.51288  1.0000
  N   N62       1.0  0.12780  0.56125  0.58791  1.0000
  N   N63       1.0  0.13217  0.52991  0.38416  1.0000
  H   H73       1.0  0.14168  0.53012  0.43757  1.0000
  C   C172      1.0  0.46135  0.59725  0.36385  1.0000
  N   N64       1.0  0.42228  0.55712  0.40020  1.0000
  C   C173      1.0  0.44419  0.57921  0.42832  1.0000
  C   C174      1.0  0.44871  0.58200  0.51325  1.0000
  N   N65       1.0  0.45271  0.58447  0.58827  1.0000
  N   N66       1.0  0.48394  0.62016  0.38437  1.0000
  H   H74       1.0  0.48375  0.62946  0.43780  1.0000
  C   C175      1.0  0.41626  0.88171  0.36394  1.0000
  N   N67       1.0  0.45643  0.88282  0.40002  1.0000
  C   C176      1.0  0.43435  0.88263  0.42829  1.0000
  C   C177      1.0  0.43162  0.88439  0.51323  1.0000
  N   N68       1.0  0.42919  0.88596  0.58826  1.0000
  N   N69       1.0  0.39337  0.88142  0.38460  1.0000
  H   H75       1.0  0.38413  0.87197  0.43817  1.0000
  C   C178      1.0  0.87433  0.46852  0.36311  1.0000
  N   N70       1.0  0.87551  0.42952  0.39949  1.0000
  C   C179      1.0  0.87529  0.45141  0.42760  1.0000
  C   C180      1.0  0.87710  0.45598  0.51250  1.0000
  N   N71       1.0  0.87872  0.46003  0.58749  1.0000
  N   N72       1.0  0.87402  0.49112  0.38363  1.0000
  H   H76       1.0  0.86458  0.49094  0.43717  1.0000
  C   C181      1.0  0.54506  0.42354  0.36353  1.0000
  N   N73       1.0  0.58403  0.46374  0.40005  1.0000
  C   C182      1.0  0.56213  0.44162  0.42807  1.0000
  C   C183      1.0  0.55756  0.43883  0.51297  1.0000
  N   N74       1.0  0.55350  0.43636  0.58795  1.0000
  N   N75       1.0  0.52247  0.40061  0.38395  1.0000
  H   H77       1.0  0.52264  0.39137  0.43757  1.0000
  C   C184      1.0  0.59019  0.13947  0.36311  1.0000
  N   N76       1.0  0.55001  0.13833  0.39922  1.0000
  C   C185      1.0  0.57210  0.13853  0.42748  1.0000
  C   C186      1.0  0.57483  0.13676  0.51242  1.0000
  N   N77       1.0  0.57725  0.13518  0.58744  1.0000
  N   N78       1.0  0.61309  0.13977  0.38379  1.0000
  H   H78       1.0  0.62231  0.14918  0.43742  1.0000
  N   N79       1.0  0.01876  0.37975  0.39857  1.0000
  C   C187      1.0  0.99238  0.36569  0.41088  1.0000
  C   C188      1.0  0.97577  0.35667  0.33587  1.0000
  H   H79       1.0  0.98494  0.36388  0.47347  1.0000
  N   N80       1.0  0.94946  0.34822  0.34321  1.0000
  H   H80       1.0  0.94373  0.35254  0.39848  1.0000
  N   N81       1.0  0.63398  0.65689  0.39856  1.0000
  C   C189      1.0  0.64799  0.64453  0.41106  1.0000
  C   C190      1.0  0.65703  0.63692  0.33615  1.0000
  H   H81       1.0  0.64962  0.63878  0.47366  1.0000
  N   N82       1.0  0.66541  0.61902  0.34363  1.0000
  H   H82       1.0  0.66107  0.60896  0.39887  1.0000
  N   N83       1.0  0.35695  0.99513  0.39881  1.0000
  C   C191      1.0  0.36926  0.02152  0.41086  1.0000
  C   C192      1.0  0.37685  0.03805  0.33563  1.0000
  H   H83       1.0  0.37509  0.02901  0.47329  1.0000
  N   N84       1.0  0.39479  0.06434  0.34261  1.0000
  H   H84       1.0  0.40486  0.07012  0.39782  1.0000
  N   N85       1.0  0.98776  0.64129  0.39861  1.0000
  C   C193      1.0  0.01415  0.65539  0.41077  1.0000
  C   C194      1.0  0.03072  0.66444  0.33568  1.0000
  H   H85       1.0  0.02161  0.65724  0.47332  1.0000
  N   N86       1.0  0.05704  0.67295  0.34288  1.0000
  H   H86       1.0  0.06282  0.66868  0.39815  1.0000
  N   N87       1.0  0.37239  0.36419  0.39877  1.0000
  C   C195      1.0  0.35830  0.37649  0.41106  1.0000
  C   C196      1.0  0.34921  0.38400  0.33602  1.0000
  H   H87       1.0  0.35664  0.38225  0.47359  1.0000
  N   N88       1.0  0.34082  0.40190  0.34336  1.0000
  H   H88       1.0  0.34510  0.41193  0.39865  1.0000
  N   N89       1.0  0.64944  0.02591  0.39905  1.0000
  C   C197      1.0  0.63717  0.99952  0.41115  1.0000
  C   C198      1.0  0.62955  0.98298  0.33595  1.0000
  H   H89       1.0  0.63138  0.99204  0.47360  1.0000
  N   N90       1.0  0.61164  0.95668  0.34301  1.0000
  H   H90       1.0  0.60159  0.95092  0.39826  1.0000
