data_image0
_chemical_formula_structural       C3NCH3C3NCH3C3NCH3CNHCNHCNHCNHCNHCNHCNCNCNC18H12CNCNCNC18H12CNCNCNC18H12CNCNCNC18H12CNCNCNC18H12CNCNCNC18H12CNHCNHCNHC3NCH3C3NCH3C3NCH3C3NCH3C3NCH3C3NCH3
_chemical_formula_sum              "C171 N36 H108"
_cell_length_a       60.1203
_cell_length_b       60.1203
_cell_length_c       15.0178
_cell_angle_alpha    90
_cell_angle_beta     90
_cell_angle_gamma    120

_space_group_name_H-M_alt    "P 1"
_space_group_IT_number       1

loop_
  _space_group_symop_operation_xyz
  'x, y, z'

loop_
  _atom_site_type_symbol
  _atom_site_label
  _atom_site_symmetry_multiplicity
  _atom_site_fract_x
  _atom_site_fract_y
  _atom_site_fract_z
  _atom_site_occupancy
  C   C1        1.0  0.98738  0.50742  0.21607  1.0000
  C   C2        1.0  0.97184  0.48467  0.26575  1.0000
  C   C3        1.0  0.02559  0.50982  0.27544  1.0000
  N   N1        1.0  0.01335  0.51889  0.22351  1.0000
  C   C4        1.0  0.97782  0.51971  0.15323  1.0000
  H   H1        1.0  0.95711  0.50857  0.14330  1.0000
  H   H2        1.0  0.98691  0.52192  0.08840  1.0000
  H   H3        1.0  0.98273  0.53868  0.17816  1.0000
  C   C5        1.0  0.49119  0.47969  0.21573  1.0000
  C   C6        1.0  0.51394  0.48692  0.26542  1.0000
  C   C7        1.0  0.48874  0.51548  0.27508  1.0000
  N   N2        1.0  0.47970  0.49417  0.22315  1.0000
  C   C8        1.0  0.47891  0.45782  0.15297  1.0000
  H   H4        1.0  0.49007  0.44827  0.14306  1.0000
  H   H5        1.0  0.47667  0.46467  0.08811  1.0000
  H   H6        1.0  0.45995  0.44376  0.17796  1.0000
  C   C9        1.0  0.51885  0.01116  0.21606  1.0000
  C   C10       1.0  0.51164  0.02668  0.26586  1.0000
  C   C11       1.0  0.48303  0.97292  0.27522  1.0000
  N   N3        1.0  0.50435  0.98519  0.22335  1.0000
  C   C12       1.0  0.54072  0.02076  0.15326  1.0000
  H   H7        1.0  0.55029  0.04147  0.14345  1.0000
  H   H8        1.0  0.53385  0.01170  0.08837  1.0000
  H   H9        1.0  0.55476  0.01583  0.17814  1.0000
  C   C13       1.0  0.27075  0.51910  0.28114  1.0000
  N   N4        1.0  0.24848  0.51938  0.29121  1.0000
  H   H10       1.0  0.27670  0.51842  0.21790  1.0000
  C   C14       1.0  0.47921  0.75124  0.28113  1.0000
  N   N5        1.0  0.47898  0.72870  0.29100  1.0000
  H   H11       1.0  0.47996  0.75795  0.21797  1.0000
  C   C15       1.0  0.24728  0.72762  0.28137  1.0000
  N   N6        1.0  0.26979  0.74994  0.29121  1.0000
  H   H12       1.0  0.24058  0.72165  0.21820  1.0000
  C   C16       1.0  0.72846  0.47939  0.28315  1.0000
  N   N7        1.0  0.75073  0.47905  0.29206  1.0000
  H   H13       1.0  0.72205  0.47952  0.22017  1.0000
  C   C17       1.0  0.51915  0.24885  0.28279  1.0000
  N   N8        1.0  0.51943  0.27142  0.29194  1.0000
  H   H14       1.0  0.51884  0.24221  0.21982  1.0000
  C   C18       1.0  0.74966  0.27002  0.28261  1.0000
  N   N9        1.0  0.72710  0.24772  0.29189  1.0000
  H   H15       1.0  0.75630  0.27627  0.21958  1.0000
  C   C19       1.0  0.17427  0.60284  0.32928  1.0000
  N   N10       1.0  0.14848  0.58953  0.31507  1.0000
  C   C20       1.0  0.13472  0.56335  0.31530  1.0000
  N   N11       1.0  0.14761  0.55045  0.33068  1.0000
  C   C21       1.0  0.17324  0.56295  0.34664  1.0000
  N   N12       1.0  0.18605  0.58898  0.34547  1.0000
  C   C22       1.0  0.10765  0.54986  0.30246  1.0000
  C   C23       1.0  0.09486  0.56210  0.26571  1.0000
  C   C24       1.0  0.06801  0.54885  0.25521  1.0000
  C   C25       1.0  0.05283  0.52294  0.28247  1.0000
  C   C26       1.0  0.06564  0.51069  0.31895  1.0000
  C   C27       1.0  0.09250  0.52380  0.32805  1.0000
  C   C28       1.0  0.18884  0.63015  0.32873  1.0000
  C   C29       1.0  0.17731  0.64549  0.34234  1.0000
  C   C30       1.0  0.19236  0.67247  0.34856  1.0000
  C   C31       1.0  0.21930  0.68475  0.33946  1.0000
  C   C32       1.0  0.23083  0.66968  0.32272  1.0000
  C   C33       1.0  0.21583  0.64285  0.31756  1.0000
  C   C34       1.0  0.18693  0.54987  0.36197  1.0000
  C   C35       1.0  0.20661  0.55914  0.42667  1.0000
  C   C36       1.0  0.22277  0.54863  0.43455  1.0000
  C   C37       1.0  0.22039  0.52911  0.37588  1.0000
  C   C38       1.0  0.20007  0.51925  0.31322  1.0000
  C   C39       1.0  0.18319  0.52909  0.30760  1.0000
  H   H16       1.0  0.18366  0.68297  0.36264  1.0000
  H   H17       1.0  0.15792  0.63709  0.35220  1.0000
  H   H18       1.0  0.25038  0.67806  0.31720  1.0000
  H   H19       1.0  0.22510  0.63271  0.30693  1.0000
  H   H20       1.0  0.20996  0.57429  0.46680  1.0000
  H   H21       1.0  0.23768  0.55702  0.47881  1.0000
  H   H22       1.0  0.16963  0.52246  0.25824  1.0000
  H   H23       1.0  0.19800  0.50548  0.26854  1.0000
  H   H24       1.0  0.10076  0.51414  0.35591  1.0000
  H   H25       1.0  0.05557  0.49195  0.33933  1.0000
  H   H26       1.0  0.05966  0.55864  0.22921  1.0000
  H   H27       1.0  0.10496  0.58088  0.24583  1.0000
  C   C40       1.0  0.39563  0.57105  0.32871  1.0000
  N   N13       1.0  0.40894  0.55856  0.31458  1.0000
  C   C41       1.0  0.43512  0.57099  0.31485  1.0000
  N   N14       1.0  0.44801  0.59678  0.33020  1.0000
  C   C42       1.0  0.43551  0.60991  0.34610  1.0000
  N   N15       1.0  0.40948  0.59669  0.34489  1.0000
  C   C43       1.0  0.44863  0.55743  0.30208  1.0000
  C   C44       1.0  0.43640  0.53239  0.26534  1.0000
  C   C45       1.0  0.44968  0.51882  0.25485  1.0000
  C   C46       1.0  0.47559  0.52957  0.28211  1.0000
  C   C47       1.0  0.48782  0.55463  0.31862  1.0000
  C   C48       1.0  0.47468  0.56835  0.32771  1.0000
  C   C49       1.0  0.36831  0.55829  0.32816  1.0000
  C   C50       1.0  0.35298  0.53145  0.34220  1.0000
  C   C51       1.0  0.32600  0.51953  0.34841  1.0000
  C   C52       1.0  0.31372  0.53417  0.33891  1.0000
  C   C53       1.0  0.32878  0.56075  0.32185  1.0000
  C   C54       1.0  0.35561  0.57258  0.31663  1.0000
  C   C55       1.0  0.44857  0.63668  0.36148  1.0000
  C   C56       1.0  0.43932  0.64707  0.42630  1.0000
  C   C57       1.0  0.44980  0.67373  0.43415  1.0000
  C   C58       1.0  0.46932  0.69088  0.37550  1.0000
  C   C59       1.0  0.47919  0.68045  0.31278  1.0000
  C   C60       1.0  0.46933  0.65373  0.30704  1.0000
  H   H28       1.0  0.31549  0.50033  0.36266  1.0000
  H   H29       1.0  0.36137  0.52046  0.35215  1.0000
  H   H30       1.0  0.32041  0.57193  0.31608  1.0000
  H   H31       1.0  0.36576  0.59198  0.30577  1.0000
  H   H32       1.0  0.42419  0.63526  0.46645  1.0000
  H   H33       1.0  0.44144  0.68025  0.47857  1.0000
  H   H34       1.0  0.47594  0.64679  0.25763  1.0000
  H   H35       1.0  0.49292  0.69215  0.26802  1.0000
  H   H36       1.0  0.48433  0.58628  0.35555  1.0000
  H   H37       1.0  0.50656  0.56331  0.33900  1.0000
  H   H38       1.0  0.43991  0.50068  0.22883  1.0000
  H   H39       1.0  0.41762  0.52370  0.24542  1.0000
  C   C61       1.0  0.42740  0.82424  0.32870  1.0000
  N   N16       1.0  0.43988  0.85003  0.31451  1.0000
  C   C62       1.0  0.42746  0.86378  0.31476  1.0000
  N   N17       1.0  0.40167  0.85089  0.33016  1.0000
  C   C63       1.0  0.38855  0.82526  0.34612  1.0000
  N   N18       1.0  0.40176  0.81245  0.34492  1.0000
  C   C64       1.0  0.44103  0.89085  0.30196  1.0000
  C   C65       1.0  0.46607  0.90366  0.26527  1.0000
  C   C66       1.0  0.47965  0.93051  0.25484  1.0000
  C   C67       1.0  0.46892  0.94568  0.28213  1.0000
  C   C68       1.0  0.44385  0.93285  0.31855  1.0000
  C   C69       1.0  0.43011  0.90599  0.32758  1.0000
  C   C70       1.0  0.44015  0.80967  0.32817  1.0000
  C   C71       1.0  0.46701  0.82119  0.34191  1.0000
  C   C72       1.0  0.47893  0.80613  0.34821  1.0000
  C   C73       1.0  0.46427  0.77920  0.33904  1.0000
  C   C74       1.0  0.43769  0.76768  0.32214  1.0000
  C   C75       1.0  0.42585  0.78267  0.31691  1.0000
  C   C76       1.0  0.36178  0.81158  0.36153  1.0000
  C   C77       1.0  0.35139  0.79193  0.42635  1.0000
  C   C78       1.0  0.32472  0.77578  0.43435  1.0000
  C   C79       1.0  0.30757  0.77814  0.37574  1.0000
  C   C80       1.0  0.31801  0.79842  0.31293  1.0000
  C   C81       1.0  0.34472  0.81529  0.30717  1.0000
  H   H40       1.0  0.49813  0.81482  0.36240  1.0000
  H   H41       1.0  0.47800  0.84057  0.35184  1.0000
  H   H42       1.0  0.42651  0.74813  0.31656  1.0000
  H   H43       1.0  0.40645  0.77341  0.30617  1.0000
  H   H44       1.0  0.36320  0.78859  0.46647  1.0000
  H   H45       1.0  0.31821  0.76088  0.47871  1.0000
  H   H46       1.0  0.35165  0.82883  0.25772  1.0000
  H   H47       1.0  0.30629  0.80046  0.26824  1.0000
  H   H48       1.0  0.41218  0.89772  0.35541  1.0000
  H   H49       1.0  0.43517  0.94291  0.33895  1.0000
  H   H50       1.0  0.49781  0.93888  0.22888  1.0000
  H   H51       1.0  0.47476  0.89357  0.24537  1.0000
  C   C82       1.0  0.82344  0.39445  0.32933  1.0000
  N   N19       1.0  0.84909  0.40733  0.31223  1.0000
  C   C83       1.0  0.86320  0.43348  0.30995  1.0000
  N   N20       1.0  0.85079  0.44683  0.32578  1.0000
  C   C84       1.0  0.82533  0.43480  0.34462  1.0000
  N   N21       1.0  0.81217  0.40877  0.34582  1.0000
  C   C85       1.0  0.89017  0.44647  0.29440  1.0000
  C   C86       1.0  0.90249  0.43318  0.26257  1.0000
  C   C87       1.0  0.92928  0.44583  0.25093  1.0000
  C   C88       1.0  0.94463  0.47225  0.27048  1.0000
  C   C89       1.0  0.93252  0.48563  0.30246  1.0000
  C   C90       1.0  0.90572  0.47300  0.31336  1.0000
  C   C91       1.0  0.80855  0.36714  0.33080  1.0000
  C   C92       1.0  0.81994  0.35153  0.34019  1.0000
  C   C93       1.0  0.80473  0.32458  0.34678  1.0000
  C   C94       1.0  0.77771  0.31258  0.34262  1.0000
  C   C95       1.0  0.76625  0.32791  0.33078  1.0000
  C   C96       1.0  0.78142  0.35472  0.32504  1.0000
  C   C97       1.0  0.81210  0.44833  0.36041  1.0000
  C   C98       1.0  0.79301  0.43979  0.42711  1.0000
  C   C99       1.0  0.77714  0.45062  0.43544  1.0000
  C   C100      1.0  0.77928  0.46979  0.37554  1.0000
  C   C101      1.0  0.79909  0.47900  0.31100  1.0000
  C   C102      1.0  0.81562  0.46877  0.30457  1.0000
  H   H52       1.0  0.81341  0.31386  0.35688  1.0000
  H   H53       1.0  0.83944  0.35970  0.34567  1.0000
  H   H54       1.0  0.74667  0.31974  0.32860  1.0000
  H   H55       1.0  0.77221  0.36503  0.31757  1.0000
  H   H56       1.0  0.78980  0.42488  0.46823  1.0000
  H   H57       1.0  0.76260  0.44272  0.48126  1.0000
  H   H58       1.0  0.82878  0.47489  0.25397  1.0000
  H   H59       1.0  0.80093  0.49246  0.26535  1.0000
  H   H60       1.0  0.89786  0.48337  0.33826  1.0000
  H   H61       1.0  0.94317  0.50459  0.31996  1.0000
  H   H62       1.0  0.93753  0.43553  0.22864  1.0000
  H   H63       1.0  0.89213  0.41400  0.24800  1.0000
  C   C103      1.0  0.60409  0.42873  0.33045  1.0000
  N   N22       1.0  0.59123  0.44149  0.31306  1.0000
  C   C104      1.0  0.56508  0.42946  0.31056  1.0000
  N   N23       1.0  0.55171  0.40370  0.32643  1.0000
  C   C105      1.0  0.56372  0.39026  0.34556  1.0000
  N   N24       1.0  0.58975  0.40314  0.34696  1.0000
  C   C106      1.0  0.55210  0.44343  0.29473  1.0000
  C   C107      1.0  0.56542  0.46904  0.26285  1.0000
  C   C108      1.0  0.55278  0.48318  0.25097  1.0000
  C   C109      1.0  0.52635  0.47213  0.27039  1.0000
  C   C110      1.0  0.51295  0.44664  0.30242  1.0000
  C   C111      1.0  0.52556  0.43246  0.31351  1.0000
  C   C112      1.0  0.63141  0.44114  0.33209  1.0000
  C   C113      1.0  0.64703  0.46818  0.34010  1.0000
  C   C114      1.0  0.67399  0.47995  0.34666  1.0000
  C   C115      1.0  0.68598  0.46491  0.34390  1.0000
  C   C116      1.0  0.67064  0.43807  0.33337  1.0000
  C   C117      1.0  0.64383  0.42642  0.32767  1.0000
  C   C118      1.0  0.55018  0.36350  0.36121  1.0000
  C   C119      1.0  0.55873  0.35291  0.42775  1.0000
  C   C120      1.0  0.54789  0.32621  0.43596  1.0000
  C   C121      1.0  0.52874  0.30920  0.37594  1.0000
  C   C122      1.0  0.51955  0.31984  0.31147  1.0000
  C   C123      1.0  0.52974  0.34661  0.30533  1.0000
  H   H64       1.0  0.68471  0.49940  0.35573  1.0000
  H   H65       1.0  0.63887  0.47954  0.34467  1.0000
  H   H66       1.0  0.67881  0.42665  0.33205  1.0000
  H   H67       1.0  0.63352  0.40686  0.32111  1.0000
  H   H68       1.0  0.57362  0.36459  0.46897  1.0000
  H   H69       1.0  0.55581  0.31955  0.48162  1.0000
  H   H70       1.0  0.52363  0.35366  0.25474  1.0000
  H   H71       1.0  0.50609  0.30824  0.26577  1.0000
  H   H72       1.0  0.51517  0.41424  0.33847  1.0000
  H   H73       1.0  0.49398  0.43834  0.31979  1.0000
  H   H74       1.0  0.56309  0.50173  0.22863  1.0000
  H   H75       1.0  0.58460  0.47785  0.24838  1.0000
  C   C124      1.0  0.56980  0.17504  0.33038  1.0000
  N   N25       1.0  0.55703  0.14941  0.31314  1.0000
  C   C125      1.0  0.56906  0.13529  0.31079  1.0000
  N   N26       1.0  0.59482  0.14769  0.32668  1.0000
  C   C126      1.0  0.60826  0.17314  0.34567  1.0000
  N   N27       1.0  0.59538  0.18630  0.34692  1.0000
  C   C127      1.0  0.55509  0.10833  0.29505  1.0000
  C   C128      1.0  0.52948  0.09603  0.26316  1.0000
  C   C129      1.0  0.51535  0.06924  0.25132  1.0000
  C   C130      1.0  0.52641  0.05388  0.27073  1.0000
  C   C131      1.0  0.55190  0.06598  0.30277  1.0000
  C   C132      1.0  0.56606  0.09277  0.31388  1.0000
  C   C133      1.0  0.55740  0.18995  0.33183  1.0000
  C   C134      1.0  0.53038  0.17857  0.34052  1.0000
  C   C135      1.0  0.51863  0.19378  0.34690  1.0000
  C   C136      1.0  0.53368  0.22080  0.34333  1.0000
  C   C137      1.0  0.56049  0.23227  0.33218  1.0000
  C   C138      1.0  0.57212  0.21709  0.32661  1.0000
  C   C139      1.0  0.63502  0.18637  0.36134  1.0000
  C   C140      1.0  0.64560  0.20551  0.42788  1.0000
  C   C141      1.0  0.67231  0.22141  0.43596  1.0000
  C   C142      1.0  0.68930  0.21927  0.37592  1.0000
  C   C143      1.0  0.67868  0.19941  0.31157  1.0000
  C   C144      1.0  0.65191  0.18285  0.30541  1.0000
  H   H76       1.0  0.49920  0.18509  0.35640  1.0000
  H   H77       1.0  0.51902  0.15906  0.34552  1.0000
  H   H78       1.0  0.57192  0.25185  0.33031  1.0000
  H   H79       1.0  0.59166  0.22630  0.31961  1.0000
  H   H80       1.0  0.63392  0.20872  0.46911  1.0000
  H   H81       1.0  0.67896  0.23598  0.48167  1.0000
  H   H82       1.0  0.64484  0.16965  0.25489  1.0000
  H   H83       1.0  0.69027  0.19756  0.26581  1.0000
  H   H84       1.0  0.58430  0.10061  0.33882  1.0000
  H   H85       1.0  0.56021  0.05531  0.32019  1.0000
  H   H86       1.0  0.49680  0.06101  0.22899  1.0000
  H   H87       1.0  0.52067  0.10639  0.24868  1.0000
  C   C145      1.0  0.98477  0.47526  0.31865  1.0000
  N   N28       1.0  0.01074  0.48791  0.32205  1.0000
  H   H88       1.0  0.97489  0.45927  0.35748  1.0000
  C   C146      1.0  0.52333  0.50927  0.31830  1.0000
  N   N29       1.0  0.51064  0.52255  0.32172  1.0000
  H   H89       1.0  0.53929  0.51537  0.35729  1.0000
  C   C147      1.0  0.48927  0.01371  0.31866  1.0000
  N   N30       1.0  0.47597  0.98775  0.32192  1.0000
  H   H90       1.0  0.48315  0.02358  0.35756  1.0000
  C   C148      1.0  0.27824  0.52687  0.43926  1.0000
  C   C149      1.0  0.28715  0.52396  0.35485  1.0000
  C   C150      1.0  0.24033  0.52299  0.37149  1.0000
  N   N31       1.0  0.25562  0.52677  0.44321  1.0000
  C   C151      1.0  0.29288  0.53288  0.52365  1.0000
  H   H91       1.0  0.31063  0.53229  0.51715  1.0000
  H   H92       1.0  0.28111  0.51890  0.57432  1.0000
  H   H93       1.0  0.29767  0.55202  0.54629  1.0000
  C   C152      1.0  0.47161  0.75097  0.43921  1.0000
  C   C153      1.0  0.47452  0.76288  0.35496  1.0000
  C   C154      1.0  0.47543  0.71694  0.37123  1.0000
  N   N32       1.0  0.47171  0.72845  0.44306  1.0000
  C   C155      1.0  0.46575  0.75966  0.52374  1.0000
  H   H94       1.0  0.46636  0.77801  0.51731  1.0000
  H   H95       1.0  0.47979  0.76187  0.57415  1.0000
  H   H96       1.0  0.44663  0.74534  0.54671  1.0000
  C   C156      1.0  0.24747  0.72037  0.43955  1.0000
  C   C157      1.0  0.23560  0.71132  0.35527  1.0000
  C   C158      1.0  0.28151  0.75818  0.37150  1.0000
  N   N33       1.0  0.26999  0.74299  0.44339  1.0000
  C   C159      1.0  0.23880  0.70584  0.52412  1.0000
  H   H97       1.0  0.22045  0.68808  0.51771  1.0000
  H   H98       1.0  0.23658  0.71767  0.57449  1.0000
  H   H99       1.0  0.25312  0.70106  0.54711  1.0000
  C   C160      1.0  0.72218  0.47305  0.44205  1.0000
  C   C161      1.0  0.71263  0.47530  0.35802  1.0000
  C   C162      1.0  0.75947  0.47611  0.37217  1.0000
  N   N34       1.0  0.74477  0.47306  0.44493  1.0000
  C   C163      1.0  0.70820  0.46802  0.52756  1.0000
  H   H100      1.0  0.69053  0.46880  0.52163  1.0000
  H   H101      1.0  0.72045  0.48242  0.57637  1.0000
  H   H102      1.0  0.70337  0.44905  0.55223  1.0000
  C   C164      1.0  0.52568  0.24889  0.44164  1.0000
  C   C165      1.0  0.52335  0.23713  0.35745  1.0000
  C   C166      1.0  0.52249  0.28308  0.37212  1.0000
  N   N35       1.0  0.52564  0.27145  0.44473  1.0000
  C   C167      1.0  0.53080  0.23995  0.52700  1.0000
  H   H103      1.0  0.53004  0.22151  0.52098  1.0000
  H   H104      1.0  0.51645  0.23778  0.57601  1.0000
  H   H105      1.0  0.54979  0.25410  0.55151  1.0000
  C   C168      1.0  0.74963  0.27658  0.44144  1.0000
  C   C169      1.0  0.76138  0.28595  0.35724  1.0000
  C   C170      1.0  0.71542  0.23913  0.37207  1.0000
  N   N36       1.0  0.72706  0.25399  0.44456  1.0000
  C   C171      1.0  0.75851  0.29073  0.52664  1.0000
  H   H106      1.0  0.77694  0.30842  0.52052  1.0000
  H   H107      1.0  0.76068  0.27862  0.57595  1.0000
  H   H108      1.0  0.74433  0.29557  0.55081  1.0000
