data_image0
_chemical_formula_structural       CNCHCNCHCNCHCNCHCNCHCNCHNC3H3NC3H3NC3H3NC3H3NC3H3NC3H3NC3H3NC3H3NC3H3NC3H3NC3H3NC3H3CNCNCNCNCNCNCNCNCNCNCNCNCNCNCNCNCNCNCNCNCNCNCNCNCNCNCNCNCNCNCNCNCNCNCNCN2C3H3NC3H3NC3H3NC3H3NC3H3NC3H3CNCHCNCHCNCHCNCHCNCHCNCHCNCHCNCHCNCHCNCHCNCHCNCH
_chemical_formula_sum              "C126 N72 H72"
_cell_length_a       36.7681
_cell_length_b       36.7681
_cell_length_c       14.8105
_cell_angle_alpha    90
_cell_angle_beta     90
_cell_angle_gamma    120

_space_group_name_H-M_alt    "P 1"
_space_group_IT_number       1

loop_
  _space_group_symop_operation_xyz
  'x, y, z'

loop_
  _atom_site_type_symbol
  _atom_site_label
  _atom_site_symmetry_multiplicity
  _atom_site_fract_x
  _atom_site_fract_y
  _atom_site_fract_z
  _atom_site_occupancy
  C   C1        1.0  0.23017  0.44359  0.32488  1.0000
  N   N1        1.0  0.16981  0.37537  0.30477  1.0000
  C   C2        1.0  0.18651  0.41773  0.31139  1.0000
  H   H1        1.0  0.16693  0.42994  0.30975  1.0000
  C   C3        1.0  0.56353  0.78092  0.32396  1.0000
  N   N2        1.0  0.63180  0.78880  0.30455  1.0000
  C   C4        1.0  0.58944  0.76314  0.31101  1.0000
  H   H2        1.0  0.57726  0.73136  0.30974  1.0000
  C   C5        1.0  0.22622  0.77700  0.32442  1.0000
  N   N3        1.0  0.21836  0.83738  0.30449  1.0000
  C   C6        1.0  0.24401  0.82067  0.31106  1.0000
  H   H3        1.0  0.27579  0.84026  0.30966  1.0000
  C   C7        1.0  0.78315  0.55743  0.32461  1.0000
  N   N4        1.0  0.84352  0.62568  0.30476  1.0000
  C   C8        1.0  0.82681  0.58332  0.31130  1.0000
  H   H4        1.0  0.84643  0.57115  0.31004  1.0000
  C   C9        1.0  0.44975  0.22017  0.32432  1.0000
  N   N5        1.0  0.38149  0.21227  0.30472  1.0000
  C   C10       1.0  0.42385  0.23794  0.31126  1.0000
  H   H5        1.0  0.43602  0.26973  0.31001  1.0000
  C   C11       1.0  0.78714  0.22409  0.32430  1.0000
  N   N6        1.0  0.79497  0.16370  0.30445  1.0000
  C   C12       1.0  0.76933  0.18042  0.31099  1.0000
  H   H6        1.0  0.73755  0.16084  0.30941  1.0000
  N   N7        1.0  0.16786  0.17859  0.28434  1.0000
  C   C13       1.0  0.18400  0.15232  0.28244  1.0000
  C   C14       1.0  0.22824  0.17007  0.29392  1.0000
  C   C15       1.0  0.15340  0.10732  0.26742  1.0000
  H   H7        1.0  0.12161  0.10192  0.25786  1.0000
  H   H8        1.0  0.15289  0.08891  0.32569  1.0000
  H   H9        1.0  0.16189  0.09623  0.20704  1.0000
  N   N8        1.0  0.82859  0.98365  0.28449  1.0000
  C   C16       1.0  0.85486  0.02605  0.28265  1.0000
  C   C17       1.0  0.83711  0.05256  0.29390  1.0000
  C   C18       1.0  0.89989  0.04045  0.26793  1.0000
  H   H10       1.0  0.90529  0.01406  0.25854  1.0000
  H   H11       1.0  0.91822  0.05835  0.32626  1.0000
  H   H12       1.0  0.91105  0.06002  0.20755  1.0000
  N   N9        1.0  0.02352  0.83935  0.28447  1.0000
  C   C19       1.0  0.98111  0.82321  0.28266  1.0000
  C   C20       1.0  0.95461  0.77895  0.29398  1.0000
  C   C21       1.0  0.96671  0.85383  0.26791  1.0000
  H   H13       1.0  0.99309  0.88562  0.25847  1.0000
  H   H14       1.0  0.94881  0.85427  0.32625  1.0000
  H   H15       1.0  0.94712  0.84540  0.20754  1.0000
  N   N10       1.0  0.84545  0.82246  0.28447  1.0000
  C   C22       1.0  0.82932  0.84873  0.28258  1.0000
  C   C23       1.0  0.78506  0.83098  0.29394  1.0000
  C   C24       1.0  0.85993  0.89375  0.26771  1.0000
  H   H16       1.0  0.89172  0.89916  0.25824  1.0000
  H   H17       1.0  0.86039  0.91211  0.32601  1.0000
  H   H18       1.0  0.85148  0.90488  0.20733  1.0000
  N   N11       1.0  0.18473  0.01741  0.28441  1.0000
  C   C25       1.0  0.15846  0.97500  0.28254  1.0000
  C   C26       1.0  0.17621  0.94849  0.29384  1.0000
  C   C27       1.0  0.11343  0.96060  0.26779  1.0000
  H   H19       1.0  0.10803  0.98699  0.25836  1.0000
  H   H20       1.0  0.09509  0.94270  0.32612  1.0000
  H   H21       1.0  0.10228  0.94102  0.20741  1.0000
  N   N12       1.0  0.98979  0.16171  0.28439  1.0000
  C   C28       1.0  0.03220  0.17785  0.28254  1.0000
  C   C29       1.0  0.05870  0.22210  0.29395  1.0000
  C   C30       1.0  0.04661  0.14724  0.26767  1.0000
  H   H22       1.0  0.02023  0.11545  0.25815  1.0000
  H   H23       1.0  0.06450  0.14676  0.32598  1.0000
  H   H24       1.0  0.06620  0.15570  0.20730  1.0000
  N   N13       1.0  0.20722  0.62097  0.36520  1.0000
  C   C31       1.0  0.20393  0.58195  0.36126  1.0000
  C   C32       1.0  0.23160  0.57483  0.41616  1.0000
  C   C33       1.0  0.17865  0.55305  0.28811  1.0000
  H   H25       1.0  0.16056  0.56471  0.25236  1.0000
  H   H26       1.0  0.15675  0.52233  0.31644  1.0000
  H   H27       1.0  0.19909  0.54966  0.23957  1.0000
  N   N14       1.0  0.38631  0.58055  0.36466  1.0000
  C   C34       1.0  0.42530  0.61632  0.36052  1.0000
  C   C35       1.0  0.43245  0.65110  0.41549  1.0000
  C   C36       1.0  0.45418  0.61999  0.28730  1.0000
  H   H28       1.0  0.44253  0.59024  0.25151  1.0000
  H   H29       1.0  0.48493  0.62885  0.31554  1.0000
  H   H30       1.0  0.45752  0.64381  0.23878  1.0000
  N   N15       1.0  0.42658  0.80014  0.36448  1.0000
  C   C37       1.0  0.39085  0.80344  0.36068  1.0000
  C   C38       1.0  0.35609  0.77568  0.41558  1.0000
  C   C39       1.0  0.38713  0.82874  0.28773  1.0000
  H   H31       1.0  0.41686  0.84689  0.25193  1.0000
  H   H32       1.0  0.37828  0.85058  0.31625  1.0000
  H   H33       1.0  0.36329  0.80831  0.23919  1.0000
  N   N16       1.0  0.80625  0.38025  0.36469  1.0000
  C   C40       1.0  0.80956  0.41928  0.36096  1.0000
  C   C41       1.0  0.78195  0.42637  0.41615  1.0000
  C   C42       1.0  0.83473  0.44819  0.28773  1.0000
  H   H34       1.0  0.85279  0.43654  0.25178  1.0000
  H   H35       1.0  0.85665  0.47891  0.31600  1.0000
  H   H36       1.0  0.81422  0.45156  0.23936  1.0000
  N   N17       1.0  0.62712  0.42047  0.36508  1.0000
  C   C43       1.0  0.58808  0.38476  0.36105  1.0000
  C   C44       1.0  0.58085  0.34996  0.41610  1.0000
  C   C45       1.0  0.55916  0.38116  0.28798  1.0000
  H   H37       1.0  0.57086  0.41090  0.25216  1.0000
  H   H38       1.0  0.52847  0.37240  0.31637  1.0000
  H   H39       1.0  0.55570  0.35728  0.23946  1.0000
  N   N18       1.0  0.58673  0.20101  0.36422  1.0000
  C   C46       1.0  0.62247  0.19773  0.36018  1.0000
  C   C47       1.0  0.65725  0.22544  0.41508  1.0000
  C   C48       1.0  0.62616  0.17251  0.28701  1.0000
  H   H40       1.0  0.59641  0.15438  0.25125  1.0000
  H   H41       1.0  0.63504  0.15064  0.31531  1.0000
  H   H42       1.0  0.64998  0.19299  0.23848  1.0000
  C   C49       1.0  0.16888  0.24435  0.29718  1.0000
  N   N19       1.0  0.18940  0.28699  0.30194  1.0000
  C   C50       1.0  0.16944  0.30981  0.30353  1.0000
  N   N20       1.0  0.12648  0.28755  0.30049  1.0000
  C   C51       1.0  0.10380  0.24467  0.29557  1.0000
  N   N21       1.0  0.12624  0.22440  0.29418  1.0000
  C   C52       1.0  0.76281  0.91891  0.29703  1.0000
  N   N22       1.0  0.72017  0.89680  0.30163  1.0000
  C   C53       1.0  0.69735  0.85401  0.30318  1.0000
  N   N23       1.0  0.71961  0.83332  0.30024  1.0000
  C   C54       1.0  0.76250  0.85351  0.29547  1.0000
  N   N24       1.0  0.78276  0.89623  0.29413  1.0000
  C   C55       1.0  0.08826  0.83831  0.29701  1.0000
  N   N25       1.0  0.11038  0.81778  0.30165  1.0000
  C   C56       1.0  0.15316  0.83775  0.30318  1.0000
  N   N26       1.0  0.17386  0.88070  0.30021  1.0000
  C   C57       1.0  0.15367  0.90339  0.29540  1.0000
  N   N27       1.0  0.11095  0.88095  0.29407  1.0000
  C   C58       1.0  0.84442  0.75669  0.29717  1.0000
  N   N28       1.0  0.82390  0.71405  0.30185  1.0000
  C   C59       1.0  0.84387  0.69124  0.30343  1.0000
  N   N29       1.0  0.88683  0.71350  0.30042  1.0000
  C   C60       1.0  0.90952  0.75638  0.29557  1.0000
  N   N30       1.0  0.88706  0.77665  0.29420  1.0000
  C   C61       1.0  0.25051  0.08214  0.29702  1.0000
  N   N31       1.0  0.29315  0.10426  0.30166  1.0000
  C   C62       1.0  0.31596  0.14705  0.30322  1.0000
  N   N32       1.0  0.29369  0.16773  0.30028  1.0000
  C   C63       1.0  0.25081  0.14754  0.29545  1.0000
  N   N33       1.0  0.23055  0.10482  0.29409  1.0000
  C   C64       1.0  0.92505  0.16274  0.29707  1.0000
  N   N34       1.0  0.90294  0.18327  0.30172  1.0000
  C   C65       1.0  0.86016  0.16331  0.30326  1.0000
  N   N35       1.0  0.83946  0.12035  0.30027  1.0000
  C   C66       1.0  0.85964  0.09766  0.29544  1.0000
  N   N36       1.0  0.90236  0.12010  0.29411  1.0000
  C   C67       1.0  0.31213  0.54603  0.40871  1.0000
  N   N37       1.0  0.29288  0.50799  0.36677  1.0000
  C   C68       1.0  0.25063  0.48722  0.34718  1.0000
  N   N38       1.0  0.22834  0.50756  0.36232  1.0000
  C   C69       1.0  0.24609  0.54585  0.40367  1.0000
  N   N39       1.0  0.28704  0.56227  0.42563  1.0000
  C   C70       1.0  0.46105  0.76041  0.40776  1.0000
  N   N40       1.0  0.49913  0.77926  0.36592  1.0000
  C   C71       1.0  0.51992  0.75780  0.34635  1.0000
  N   N41       1.0  0.49958  0.71516  0.36144  1.0000
  C   C72       1.0  0.46121  0.69458  0.40247  1.0000
  N   N42       1.0  0.44482  0.71909  0.42470  1.0000
  C   C73       1.0  0.24674  0.69519  0.40902  1.0000
  N   N43       1.0  0.22793  0.71434  0.36675  1.0000
  C   C74       1.0  0.24938  0.75656  0.34694  1.0000
  N   N44       1.0  0.29202  0.77889  0.36191  1.0000
  C   C75       1.0  0.31261  0.76121  0.40336  1.0000
  N   N45       1.0  0.28810  0.72030  0.42563  1.0000
  C   C76       1.0  0.70132  0.45508  0.40920  1.0000
  N   N46       1.0  0.72048  0.49305  0.36693  1.0000
  C   C77       1.0  0.76271  0.51384  0.34726  1.0000
  N   N47       1.0  0.78505  0.49355  0.36236  1.0000
  C   C78       1.0  0.76737  0.45528  0.40379  1.0000
  N   N48       1.0  0.72644  0.43886  0.42595  1.0000
  C   C79       1.0  0.55224  0.24068  0.40792  1.0000
  N   N49       1.0  0.51417  0.22185  0.36608  1.0000
  C   C80       1.0  0.49338  0.24332  0.34665  1.0000
  N   N50       1.0  0.51369  0.28595  0.36194  1.0000
  C   C81       1.0  0.55201  0.30649  0.40317  1.0000
  N   N51       1.0  0.56845  0.28198  0.42509  1.0000
  C   C82       1.0  0.76657  0.30602  0.40795  1.0000
  N   N52       1.0  0.78545  0.28681  0.36620  1.0000
  C   C83       1.0  0.76399  0.24457  0.34650  1.0000
  N   N53       1.0  0.72132  0.22228  0.36136  1.0000
  C   C84       1.0  0.70073  0.24007  0.40232  1.0000
  N   N54       1.0  0.72523  0.28096  0.42467  1.0000
  N   N55       1.0  0.25232  0.42312  0.32968  1.0000
  C   C85       1.0  0.23635  0.38090  0.32162  1.0000
  C   C86       1.0  0.19212  0.35486  0.30920  1.0000
  C   C87       1.0  0.26686  0.36604  0.33114  1.0000
  H   H43       1.0  0.29870  0.39207  0.34220  1.0000
  H   H44       1.0  0.26716  0.34977  0.26979  1.0000
  H   H45       1.0  0.25844  0.34484  0.38878  1.0000
  N   N56       1.0  0.58399  0.82355  0.32856  1.0000
  C   C88       1.0  0.62621  0.84981  0.32060  1.0000
  C   C89       1.0  0.65229  0.83164  0.30868  1.0000
  C   C90       1.0  0.64104  0.89519  0.32969  1.0000
  H   H46       1.0  0.61499  0.90100  0.34034  1.0000
  H   H47       1.0  0.65739  0.91168  0.26833  1.0000
  H   H48       1.0  0.66216  0.90807  0.38744  1.0000
  N   N57       1.0  0.18359  0.75485  0.32907  1.0000
  C   C91       1.0  0.15734  0.77082  0.32097  1.0000
  C   C92       1.0  0.17552  0.81505  0.30877  1.0000
  C   C93       1.0  0.11196  0.74029  0.33024  1.0000
  H   H49       1.0  0.10614  0.70843  0.34110  1.0000
  H   H50       1.0  0.09544  0.74008  0.26886  1.0000
  H   H51       1.0  0.09913  0.74862  0.38791  1.0000
  N   N58       1.0  0.76100  0.57791  0.32935  1.0000
  C   C94       1.0  0.77696  0.62013  0.32126  1.0000
  C   C95       1.0  0.82118  0.64619  0.30902  1.0000
  C   C96       1.0  0.74642  0.63497  0.33063  1.0000
  H   H52       1.0  0.71457  0.60893  0.34155  1.0000
  H   H53       1.0  0.74618  0.65127  0.26927  1.0000
  H   H54       1.0  0.75478  0.65614  0.38830  1.0000
  N   N59       1.0  0.42932  0.17754  0.32876  1.0000
  C   C97       1.0  0.38710  0.15127  0.32068  1.0000
  C   C98       1.0  0.36101  0.16943  0.30879  1.0000
  C   C99       1.0  0.37229  0.10589  0.32977  1.0000
  H   H55       1.0  0.39834  0.10008  0.34043  1.0000
  H   H56       1.0  0.35594  0.08941  0.26840  1.0000
  H   H57       1.0  0.35116  0.09301  0.38750  1.0000
  N   N60       1.0  0.82976  0.24623  0.32905  1.0000
  C   C100      1.0  0.85600  0.23024  0.32108  1.0000
  C   C101      1.0  0.83781  0.18601  0.30881  1.0000
  C   C102      1.0  0.90138  0.26076  0.33045  1.0000
  H   H58       1.0  0.90720  0.29261  0.34136  1.0000
  H   H59       1.0  0.91792  0.26099  0.26911  1.0000
  H   H60       1.0  0.91417  0.25240  0.38815  1.0000
  C   C103      1.0  0.19019  0.22090  0.29601  1.0000
  N   N61       1.0  0.25064  0.21260  0.30522  1.0000
  C   C104      1.0  0.23395  0.23833  0.30644  1.0000
  H   H61       1.0  0.25338  0.26981  0.31585  1.0000
  C   C105      1.0  0.78627  0.96367  0.29590  1.0000
  N   N62       1.0  0.79457  0.03243  0.30496  1.0000
  C   C106      1.0  0.76883  0.99001  0.30615  1.0000
  H   H62       1.0  0.73734  0.97796  0.31532  1.0000
  C   C107      1.0  0.04350  0.81701  0.29592  1.0000
  N   N63       1.0  0.97475  0.75655  0.30508  1.0000
  C   C108      1.0  0.01717  0.77324  0.30624  1.0000
  H   H63       1.0  0.02922  0.75380  0.31543  1.0000
  C   C109      1.0  0.82312  0.78015  0.29600  1.0000
  N   N64       1.0  0.76266  0.78845  0.30513  1.0000
  C   C110      1.0  0.77934  0.76271  0.30635  1.0000
  H   H64       1.0  0.75991  0.73122  0.31563  1.0000
  C   C111      1.0  0.22705  0.03738  0.29586  1.0000
  N   N65       1.0  0.21875  0.96862  0.30495  1.0000
  C   C112      1.0  0.24449  0.01104  0.30615  1.0000
  H   H65       1.0  0.27598  0.02310  0.31537  1.0000
  C   C113      1.0  0.96982  0.18404  0.29594  1.0000
  N   N66       1.0  0.03857  0.24450  0.30515  1.0000
  C   C114      1.0  0.99614  0.22781  0.30632  1.0000
  H   H66       1.0  0.98409  0.24724  0.31565  1.0000
  C   C115      1.0  0.23209  0.65198  0.42483  1.0000
  N   N67       1.0  0.25316  0.60476  0.47958  1.0000
  C   C116      1.0  0.25267  0.64074  0.49029  1.0000
  H   H67       1.0  0.27247  0.66160  0.53736  1.0000
  C   C117      1.0  0.35538  0.57442  0.42450  1.0000
  N   N68       1.0  0.40259  0.64277  0.47905  1.0000
  C   C118      1.0  0.36663  0.60627  0.48986  1.0000
  H   H68       1.0  0.34587  0.60527  0.53714  1.0000
  C   C119      1.0  0.43271  0.77527  0.42412  1.0000
  N   N69       1.0  0.36454  0.75424  0.47913  1.0000
  C   C120      1.0  0.40109  0.75489  0.49004  1.0000
  H   H69       1.0  0.40198  0.73486  0.53672  1.0000
  C   C121      1.0  0.78145  0.34923  0.42438  1.0000
  N   N70       1.0  0.76044  0.39643  0.47957  1.0000
  C   C122      1.0  0.76094  0.36044  0.49006  1.0000
  H   H70       1.0  0.74116  0.33954  0.53708  1.0000
  C   C123      1.0  0.65808  0.42651  0.42472  1.0000
  N   N71       1.0  0.61079  0.35825  0.47946  1.0000
  C   C124      1.0  0.64684  0.39468  0.49011  1.0000
  H   H71       1.0  0.66761  0.39564  0.53731  1.0000
  C   C125      1.0  0.58063  0.22585  0.42402  1.0000
  N   N72       1.0  0.64888  0.24688  0.47878  1.0000
  C   C126      1.0  0.61237  0.24629  0.48967  1.0000
  H   H72       1.0  0.61129  0.26605  0.53682  1.0000
