data_image0
_chemical_formula_structural       C4NCONH2CH2C4NCONH2CH2C4NCONH2CH2C4NCONH2CH2C4NCONH2CH2C4NCONH2CH2C3H2CH2C3H2CH2C3H2CH2C3H2CH2C3H2CH2C3H2CH2C4NCONH2CH2C4NCONH2CH2C4NCONH2CH2C4NCONH2CH2C4NCONH2CH2C4NCONH2CH2CNCNCN2HNHNHCNCNCN2HNHNHCNCNCN2HNHNHCNCNCN2HNHNHCNCNCN2HNHNHCNCNCN2HNHNHCNCNCN2HNHNHCNCNCN2HNHNHCNCNCN2HNHNHCNCNCN2HNHNHCNCNCN2HNHNHCNCNCN2HNHNHC3H2CH2C3H2CH2C3H2CH2C3H2CH2C3H2CH2C3H2CH2C4NCONH2CH2C4NCONH2CH2C4NCONH2CH2C4NCONH2CH2C4NCONH2CH2C4NCONH2CH2C3H2CH2C3H2CH2C3H2CH2C3H2CH2C3H2CH2C3H2CH2
_chemical_formula_sum              "C216 N108 O18 H180"
_cell_length_a       58.7239
_cell_length_b       58.7239
_cell_length_c       15.0203
_cell_angle_alpha    90
_cell_angle_beta     90
_cell_angle_gamma    120

_space_group_name_H-M_alt    "P 1"
_space_group_IT_number       1

loop_
  _space_group_symop_operation_xyz
  'x, y, z'

loop_
  _atom_site_type_symbol
  _atom_site_label
  _atom_site_symmetry_multiplicity
  _atom_site_fract_x
  _atom_site_fract_y
  _atom_site_fract_z
  _atom_site_occupancy
  C   C1        1.0  0.20674  0.44836  0.24511  1.0000
  C   C2        1.0  0.23334  0.45417  0.23203  1.0000
  C   C3        1.0  0.24705  0.44978  0.30278  1.0000
  C   C4        1.0  0.24444  0.46427  0.14672  1.0000
  N   N1        1.0  0.23051  0.46825  0.08322  1.0000
  C   C5        1.0  0.20572  0.46300  0.09742  1.0000
  O   O1        1.0  0.26878  0.47024  0.12004  1.0000
  N   N2        1.0  0.19411  0.45320  0.17697  1.0000
  H   H1        1.0  0.19588  0.46631  0.04751  1.0000
  H   H2        1.0  0.17616  0.44965  0.18299  1.0000
  C   C6        1.0  0.27513  0.45645  0.29477  1.0000
  H   H3        1.0  0.28680  0.47708  0.27470  1.0000
  H   H4        1.0  0.27586  0.44404  0.24177  1.0000
  C   C7        1.0  0.56260  0.77068  0.24515  1.0000
  C   C8        1.0  0.55679  0.79147  0.23206  1.0000
  C   C9        1.0  0.56119  0.80957  0.30279  1.0000
  C   C10       1.0  0.54668  0.79246  0.14676  1.0000
  N   N3        1.0  0.54270  0.77455  0.08326  1.0000
  C   C11       1.0  0.54796  0.75501  0.09746  1.0000
  O   O2        1.0  0.54074  0.81084  0.12004  1.0000
  N   N4        1.0  0.55775  0.75320  0.17702  1.0000
  H   H5        1.0  0.54466  0.74186  0.04756  1.0000
  H   H6        1.0  0.56131  0.73881  0.18305  1.0000
  C   C12       1.0  0.55451  0.83098  0.29478  1.0000
  H   H7        1.0  0.53388  0.82202  0.27469  1.0000
  H   H8        1.0  0.56693  0.84413  0.24179  1.0000
  C   C13       1.0  0.24032  0.80428  0.24518  1.0000
  C   C14       1.0  0.21953  0.77769  0.23207  1.0000
  C   C15       1.0  0.20142  0.76398  0.30280  1.0000
  C   C16       1.0  0.21854  0.76660  0.14675  1.0000
  N   N5        1.0  0.23645  0.78052  0.08327  1.0000
  C   C17       1.0  0.25599  0.80531  0.09750  1.0000
  O   O3        1.0  0.20016  0.74226  0.12005  1.0000
  N   N6        1.0  0.25781  0.81692  0.17706  1.0000
  H   H9        1.0  0.26915  0.81515  0.04760  1.0000
  H   H10       1.0  0.27220  0.83486  0.18309  1.0000
  C   C18       1.0  0.18001  0.73590  0.29478  1.0000
  H   H11       1.0  0.18897  0.72423  0.27468  1.0000
  H   H12       1.0  0.16686  0.73516  0.24179  1.0000
  C   C19       1.0  0.79967  0.56716  0.24505  1.0000
  C   C20       1.0  0.77307  0.56135  0.23199  1.0000
  C   C21       1.0  0.75937  0.56575  0.30274  1.0000
  C   C22       1.0  0.76197  0.55125  0.14668  1.0000
  N   N7        1.0  0.77589  0.54726  0.08317  1.0000
  C   C23       1.0  0.80068  0.55251  0.09736  1.0000
  O   O4        1.0  0.73763  0.54531  0.11999  1.0000
  N   N8        1.0  0.81230  0.56231  0.17690  1.0000
  H   H13       1.0  0.81052  0.54921  0.04744  1.0000
  H   H14       1.0  0.83024  0.56586  0.18291  1.0000
  C   C24       1.0  0.73129  0.55908  0.29475  1.0000
  H   H15       1.0  0.71961  0.53844  0.27467  1.0000
  H   H16       1.0  0.73054  0.57149  0.24177  1.0000
  C   C25       1.0  0.44382  0.24485  0.24523  1.0000
  C   C26       1.0  0.44963  0.22406  0.23213  1.0000
  C   C27       1.0  0.44524  0.20596  0.30287  1.0000
  C   C28       1.0  0.45974  0.22308  0.14682  1.0000
  N   N9        1.0  0.46372  0.24099  0.08334  1.0000
  C   C29       1.0  0.45846  0.26052  0.09755  1.0000
  O   O5        1.0  0.46570  0.20470  0.12013  1.0000
  N   N10       1.0  0.44867  0.26233  0.17710  1.0000
  H   H17       1.0  0.46177  0.27367  0.04765  1.0000
  H   H18       1.0  0.44511  0.27672  0.18313  1.0000
  C   C30       1.0  0.45191  0.18455  0.29483  1.0000
  H   H19       1.0  0.47254  0.19351  0.27476  1.0000
  H   H20       1.0  0.43950  0.17141  0.24182  1.0000
  C   C31       1.0  0.76610  0.21124  0.24505  1.0000
  C   C32       1.0  0.78689  0.23783  0.23197  1.0000
  C   C33       1.0  0.80500  0.25154  0.30270  1.0000
  C   C34       1.0  0.78788  0.24893  0.14666  1.0000
  N   N11       1.0  0.76997  0.23501  0.08317  1.0000
  C   C35       1.0  0.75043  0.21022  0.09737  1.0000
  O   O6        1.0  0.80626  0.27327  0.11997  1.0000
  N   N12       1.0  0.74862  0.19861  0.17692  1.0000
  H   H21       1.0  0.73728  0.20038  0.04748  1.0000
  H   H22       1.0  0.73422  0.18066  0.18295  1.0000
  C   C36       1.0  0.82640  0.27962  0.29470  1.0000
  H   H23       1.0  0.81744  0.29129  0.27462  1.0000
  H   H24       1.0  0.83955  0.28036  0.24171  1.0000
  C   C37       1.0  0.14382  0.55450  0.30668  1.0000
  C   C38       1.0  0.13557  0.58963  0.26030  1.0000
  C   C39       1.0  0.13770  0.56753  0.24026  1.0000
  H   H25       1.0  0.13417  0.56071  0.17613  1.0000
  H   H26       1.0  0.13093  0.59802  0.20903  1.0000
  C   C40       1.0  0.14365  0.52976  0.28167  1.0000
  H   H27       1.0  0.14008  0.52543  0.21044  1.0000
  H   H28       1.0  0.16313  0.53249  0.29580  1.0000
  C   C41       1.0  0.45655  0.60158  0.30684  1.0000
  C   C42       1.0  0.42143  0.55820  0.26042  1.0000
  C   C43       1.0  0.44354  0.58243  0.24042  1.0000
  H   H29       1.0  0.45036  0.58573  0.17629  1.0000
  H   H30       1.0  0.41305  0.54518  0.20914  1.0000
  C   C44       1.0  0.48128  0.62618  0.28185  1.0000
  H   H31       1.0  0.48563  0.62693  0.21063  1.0000
  H   H32       1.0  0.47853  0.64290  0.29594  1.0000
  C   C45       1.0  0.40940  0.86729  0.30675  1.0000
  C   C46       1.0  0.45279  0.87556  0.26038  1.0000
  C   C47       1.0  0.42855  0.87343  0.24034  1.0000
  H   H33       1.0  0.42528  0.87699  0.17622  1.0000
  H   H34       1.0  0.46582  0.88022  0.20913  1.0000
  C   C48       1.0  0.38482  0.86745  0.28173  1.0000
  H   H35       1.0  0.38407  0.87104  0.21050  1.0000
  H   H36       1.0  0.36808  0.84797  0.29581  1.0000
  C   C49       1.0  0.86263  0.46104  0.30675  1.0000
  C   C50       1.0  0.87087  0.42590  0.26032  1.0000
  C   C51       1.0  0.86875  0.44802  0.24032  1.0000
  H   H37       1.0  0.87227  0.45483  0.17618  1.0000
  H   H38       1.0  0.87550  0.41752  0.20905  1.0000
  C   C52       1.0  0.86279  0.48578  0.28175  1.0000
  H   H39       1.0  0.86637  0.49012  0.21052  1.0000
  H   H40       1.0  0.84331  0.48304  0.29587  1.0000
  C   C53       1.0  0.54987  0.41393  0.30683  1.0000
  C   C54       1.0  0.58498  0.45732  0.26042  1.0000
  C   C55       1.0  0.56288  0.43308  0.24040  1.0000
  H   H41       1.0  0.55606  0.42979  0.17628  1.0000
  H   H42       1.0  0.59337  0.47034  0.20915  1.0000
  C   C56       1.0  0.52513  0.38935  0.28182  1.0000
  H   H43       1.0  0.52079  0.38859  0.21059  1.0000
  H   H44       1.0  0.52788  0.37261  0.29592  1.0000
  C   C57       1.0  0.59701  0.14824  0.30677  1.0000
  C   C58       1.0  0.55363  0.13997  0.26037  1.0000
  C   C59       1.0  0.57786  0.14210  0.24035  1.0000
  H   H45       1.0  0.58114  0.13854  0.17624  1.0000
  H   H46       1.0  0.54060  0.13531  0.20911  1.0000
  C   C60       1.0  0.62160  0.14808  0.28177  1.0000
  H   H47       1.0  0.62235  0.14448  0.21056  1.0000
  H   H48       1.0  0.63833  0.16756  0.29584  1.0000
  C   C61       1.0  0.01276  0.39242  0.26659  1.0000
  C   C62       1.0  0.98534  0.37369  0.25513  1.0000
  C   C63       1.0  0.97369  0.34955  0.30411  1.0000
  C   C64       1.0  0.97124  0.38114  0.19593  1.0000
  N   N13       1.0  0.98334  0.40458  0.15371  1.0000
  C   C65       1.0  0.00898  0.42202  0.16648  1.0000
  O   O7        1.0  0.94568  0.36599  0.17350  1.0000
  N   N14       1.0  0.02331  0.41605  0.22246  1.0000
  H   H49       1.0  0.01734  0.43963  0.13365  1.0000
  H   H50       1.0  0.04162  0.42946  0.22938  1.0000
  C   C66       1.0  0.94473  0.33233  0.31615  1.0000
  H   H51       1.0  0.93953  0.31394  0.35082  1.0000
  H   H52       1.0  0.93501  0.32643  0.25157  1.0000
  C   C67       1.0  0.61864  0.63272  0.26624  1.0000
  C   C68       1.0  0.63736  0.62402  0.25471  1.0000
  C   C69       1.0  0.66152  0.63652  0.30352  1.0000
  C   C70       1.0  0.62988  0.60246  0.19558  1.0000
  N   N15       1.0  0.60642  0.59110  0.15349  1.0000
  C   C71       1.0  0.58899  0.59931  0.16632  1.0000
  O   O8        1.0  0.64503  0.59204  0.17308  1.0000
  N   N16       1.0  0.59499  0.61962  0.22224  1.0000
  H   H53       1.0  0.57136  0.59005  0.13358  1.0000
  H   H54       1.0  0.58158  0.62453  0.22922  1.0000
  C   C72       1.0  0.67870  0.62474  0.31580  1.0000
  H   H55       1.0  0.69710  0.63793  0.35041  1.0000
  H   H56       1.0  0.68459  0.62086  0.25128  1.0000
  C   C73       1.0  0.37825  0.99827  0.26611  1.0000
  C   C74       1.0  0.38693  0.02568  0.25458  1.0000
  C   C75       1.0  0.37441  0.03732  0.30343  1.0000
  C   C76       1.0  0.40849  0.03979  0.19544  1.0000
  N   N17       1.0  0.41984  0.02769  0.15327  1.0000
  C   C77       1.0  0.41165  0.00205  0.16609  1.0000
  O   O9        1.0  0.41885  0.06533  0.17284  1.0000
  N   N18       1.0  0.39135  0.98773  0.22206  1.0000
  H   H57       1.0  0.42091  0.99370  0.13330  1.0000
  H   H58       1.0  0.38645  0.96942  0.22902  1.0000
  C   C78       1.0  0.38619  0.06628  0.31577  1.0000
  H   H59       1.0  0.37301  0.07149  0.35044  1.0000
  H   H60       1.0  0.39006  0.07605  0.25127  1.0000
  C   C79       1.0  0.99366  0.62311  0.26659  1.0000
  C   C80       1.0  0.02108  0.64183  0.25513  1.0000
  C   C81       1.0  0.03274  0.66598  0.30405  1.0000
  C   C82       1.0  0.03517  0.63437  0.19596  1.0000
  N   N19       1.0  0.02307  0.61092  0.15379  1.0000
  C   C83       1.0  0.99743  0.59349  0.16656  1.0000
  O   O10       1.0  0.06074  0.64951  0.17351  1.0000
  N   N20       1.0  0.98311  0.59947  0.22251  1.0000
  H   H61       1.0  0.98906  0.57587  0.13377  1.0000
  H   H62       1.0  0.96479  0.58607  0.22945  1.0000
  C   C84       1.0  0.06170  0.68319  0.31610  1.0000
  H   H63       1.0  0.06690  0.70159  0.35074  1.0000
  H   H64       1.0  0.07142  0.68908  0.25152  1.0000
  C   C85       1.0  0.38777  0.38280  0.26621  1.0000
  C   C86       1.0  0.36905  0.39149  0.25466  1.0000
  C   C87       1.0  0.34489  0.37899  0.30347  1.0000
  C   C88       1.0  0.37652  0.41305  0.19550  1.0000
  N   N21       1.0  0.39998  0.42440  0.15341  1.0000
  C   C89       1.0  0.41742  0.41620  0.16626  1.0000
  O   O11       1.0  0.36137  0.42346  0.17298  1.0000
  N   N22       1.0  0.41142  0.39589  0.22220  1.0000
  H   H65       1.0  0.43505  0.42546  0.13353  1.0000
  H   H66       1.0  0.42483  0.39099  0.22920  1.0000
  C   C90       1.0  0.32771  0.39077  0.31573  1.0000
  H   H67       1.0  0.30931  0.37758  0.35037  1.0000
  H   H68       1.0  0.32182  0.39464  0.25122  1.0000
  C   C91       1.0  0.62811  0.01726  0.26641  1.0000
  C   C92       1.0  0.61944  0.98985  0.25477  1.0000
  C   C93       1.0  0.63197  0.97819  0.30344  1.0000
  C   C94       1.0  0.59786  0.97576  0.19571  1.0000
  N   N23       1.0  0.58648  0.98785  0.15369  1.0000
  C   C95       1.0  0.59468  0.01349  0.16661  1.0000
  O   O12       1.0  0.58749  0.95022  0.17301  1.0000
  N   N24       1.0  0.61499  0.02780  0.22252  1.0000
  H   H69       1.0  0.58540  0.02185  0.13394  1.0000
  H   H70       1.0  0.61988  0.04611  0.22956  1.0000
  C   C96       1.0  0.62020  0.94924  0.31573  1.0000
  H   H71       1.0  0.63340  0.94403  0.35029  1.0000
  H   H72       1.0  0.61631  0.93947  0.25122  1.0000
  C   C97       1.0  0.09851  0.43713  0.29393  1.0000
  N   N25       1.0  0.12034  0.43572  0.31321  1.0000
  C   C98       1.0  0.14324  0.45750  0.33660  1.0000
  N   N26       1.0  0.14391  0.48093  0.34080  1.0000
  C   C99       1.0  0.12242  0.48298  0.32127  1.0000
  N   N27       1.0  0.09977  0.46082  0.29868  1.0000
  N   N28       1.0  0.16668  0.45716  0.35381  1.0000
  H   H73       1.0  0.17335  0.46497  0.41601  1.0000
  N   N29       1.0  0.12307  0.50718  0.33290  1.0000
  H   H74       1.0  0.10499  0.50497  0.31775  1.0000
  N   N30       1.0  0.07422  0.41448  0.27470  1.0000
  H   H75       1.0  0.07709  0.39909  0.25859  1.0000
  C   C100      1.0  0.57389  0.67371  0.29405  1.0000
  N   N31       1.0  0.57529  0.69696  0.31327  1.0000
  C   C101      1.0  0.55350  0.69805  0.33669  1.0000
  N   N32       1.0  0.53008  0.67528  0.34098  1.0000
  C   C102      1.0  0.52805  0.65175  0.32150  1.0000
  N   N33       1.0  0.55021  0.65126  0.29886  1.0000
  N   N34       1.0  0.55383  0.72184  0.35388  1.0000
  H   H76       1.0  0.54603  0.72069  0.41609  1.0000
  N   N35       1.0  0.50387  0.62820  0.33316  1.0000
  H   H77       1.0  0.50609  0.61233  0.31806  1.0000
  N   N36       1.0  0.59655  0.67210  0.27466  1.0000
  H   H78       1.0  0.61192  0.69037  0.25851  1.0000
  C   C103      1.0  0.33729  0.91253  0.29391  1.0000
  N   N37       1.0  0.31404  0.89069  0.31322  1.0000
  C   C104      1.0  0.31294  0.86780  0.33669  1.0000
  N   N38       1.0  0.33572  0.86715  0.34093  1.0000
  C   C105      1.0  0.35925  0.88865  0.32138  1.0000
  N   N39       1.0  0.35973  0.91129  0.29871  1.0000
  N   N40       1.0  0.28917  0.84435  0.35390  1.0000
  H   H79       1.0  0.29032  0.83770  0.41612  1.0000
  N   N41       1.0  0.38280  0.88801  0.33303  1.0000
  H   H80       1.0  0.39867  0.90610  0.31791  1.0000
  N   N42       1.0  0.33890  0.93680  0.27452  1.0000
  H   H81       1.0  0.32063  0.93391  0.25839  1.0000
  C   C106      1.0  0.90791  0.57840  0.29400  1.0000
  N   N43       1.0  0.88607  0.57981  0.31320  1.0000
  C   C107      1.0  0.86317  0.55803  0.33656  1.0000
  N   N44       1.0  0.86251  0.53460  0.34082  1.0000
  C   C108      1.0  0.88401  0.53256  0.32136  1.0000
  N   N45       1.0  0.90666  0.55471  0.29878  1.0000
  N   N46       1.0  0.83973  0.55837  0.35374  1.0000
  H   H82       1.0  0.83306  0.55056  0.41594  1.0000
  N   N47       1.0  0.88336  0.50836  0.33302  1.0000
  H   H83       1.0  0.90144  0.51057  0.31791  1.0000
  N   N48       1.0  0.93220  0.60105  0.27472  1.0000
  H   H84       1.0  0.92933  0.61644  0.25859  1.0000
  C   C109      1.0  0.43252  0.34181  0.29401  1.0000
  N   N49       1.0  0.43111  0.31856  0.31330  1.0000
  C   C110      1.0  0.45291  0.31747  0.33675  1.0000
  N   N50       1.0  0.47633  0.34024  0.34099  1.0000
  C   C111      1.0  0.47836  0.36377  0.32145  1.0000
  N   N51       1.0  0.45620  0.36425  0.29880  1.0000
  N   N52       1.0  0.45258  0.29369  0.35396  1.0000
  H   H85       1.0  0.46039  0.29484  0.41617  1.0000
  N   N53       1.0  0.50255  0.38733  0.33310  1.0000
  H   H86       1.0  0.50032  0.40319  0.31797  1.0000
  N   N54       1.0  0.40986  0.34342  0.27464  1.0000
  H   H87       1.0  0.39448  0.32515  0.25851  1.0000
  C   C112      1.0  0.66911  0.10298  0.29404  1.0000
  N   N55       1.0  0.69236  0.12483  0.31324  1.0000
  C   C113      1.0  0.69347  0.14772  0.33662  1.0000
  N   N56       1.0  0.67070  0.14838  0.34091  1.0000
  C   C114      1.0  0.64716  0.12688  0.32145  1.0000
  N   N57       1.0  0.64667  0.10423  0.29884  1.0000
  N   N58       1.0  0.71725  0.17117  0.35378  1.0000
  H   H88       1.0  0.71611  0.17784  0.41599  1.0000
  N   N59       1.0  0.62362  0.12752  0.33310  1.0000
  H   H89       1.0  0.60775  0.10943  0.31802  1.0000
  N   N60       1.0  0.66749  0.07871  0.27470  1.0000
  H   H90       1.0  0.68575  0.08159  0.25851  1.0000
  C   C115      1.0  0.43129  0.10020  0.35593  1.0000
  N   N61       1.0  0.42962  0.12207  0.37155  1.0000
  C   C116      1.0  0.45094  0.14623  0.35942  1.0000
  N   N62       1.0  0.47408  0.14844  0.33269  1.0000
  C   C117      1.0  0.47610  0.12671  0.31771  1.0000
  N   N63       1.0  0.45449  0.10263  0.32971  1.0000
  N   N64       1.0  0.44836  0.16839  0.37549  1.0000
  H   H91       1.0  0.46194  0.17966  0.42300  1.0000
  N   N65       1.0  0.50055  0.12942  0.29246  1.0000
  H   H92       1.0  0.49752  0.11134  0.27287  1.0000
  N   N66       1.0  0.41018  0.07484  0.37053  1.0000
  H   H93       1.0  0.40551  0.07264  0.43708  1.0000
  C   C118      1.0  0.66753  0.57965  0.35603  1.0000
  N   N67       1.0  0.69108  0.58133  0.37159  1.0000
  C   C119      1.0  0.69394  0.56003  0.35943  1.0000
  N   N68       1.0  0.67300  0.53687  0.33271  1.0000
  C   C120      1.0  0.64924  0.53485  0.31777  1.0000
  N   N69       1.0  0.64677  0.55645  0.32980  1.0000
  N   N70       1.0  0.71868  0.56261  0.37544  1.0000
  H   H94       1.0  0.71639  0.54903  0.42294  1.0000
  N   N71       1.0  0.62752  0.51040  0.29251  1.0000
  H   H95       1.0  0.61246  0.51342  0.27291  1.0000
  N   N72       1.0  0.66329  0.60077  0.37060  1.0000
  H   H96       1.0  0.66576  0.60544  0.43714  1.0000
  C   C121      1.0  0.91072  0.34342  0.35603  1.0000
  N   N73       1.0  0.88886  0.31986  0.37159  1.0000
  C   C122      1.0  0.86469  0.31698  0.35936  1.0000
  N   N74       1.0  0.86246  0.33791  0.33260  1.0000
  C   C123      1.0  0.88418  0.36168  0.31767  1.0000
  N   N75       1.0  0.90826  0.36417  0.32979  1.0000
  N   N76       1.0  0.84254  0.29223  0.37537  1.0000
  H   H97       1.0  0.83126  0.29452  0.42288  1.0000
  N   N77       1.0  0.88144  0.38339  0.29241  1.0000
  H   H98       1.0  0.89952  0.39845  0.27279  1.0000
  N   N78       1.0  0.93609  0.34771  0.37080  1.0000
  H   H99       1.0  0.93826  0.34525  0.43738  1.0000
  C   C124      1.0  0.57511  0.91532  0.35603  1.0000
  N   N79       1.0  0.57679  0.89345  0.37159  1.0000
  C   C125      1.0  0.55548  0.86928  0.35943  1.0000
  N   N80       1.0  0.53233  0.86708  0.33271  1.0000
  C   C126      1.0  0.53031  0.88882  0.31777  1.0000
  N   N81       1.0  0.55192  0.91289  0.32980  1.0000
  N   N82       1.0  0.55805  0.84712  0.37545  1.0000
  H   H100      1.0  0.54447  0.83584  0.42295  1.0000
  N   N83       1.0  0.50587  0.88610  0.29250  1.0000
  H   H101      1.0  0.50889  0.90419  0.27291  1.0000
  N   N84       1.0  0.59624  0.94068  0.37060  1.0000
  H   H102      1.0  0.60092  0.94287  0.43714  1.0000
  C   C127      1.0  0.33888  0.43586  0.35591  1.0000
  N   N85       1.0  0.31533  0.43418  0.37153  1.0000
  C   C128      1.0  0.31247  0.45549  0.35940  1.0000
  N   N86       1.0  0.33342  0.47864  0.33268  1.0000
  C   C129      1.0  0.35717  0.48067  0.31770  1.0000
  N   N87       1.0  0.35964  0.45907  0.32970  1.0000
  N   N88       1.0  0.28773  0.45291  0.37544  1.0000
  H   H103      1.0  0.29003  0.46648  0.42295  1.0000
  N   N89       1.0  0.37889  0.50512  0.29247  1.0000
  H   H104      1.0  0.39396  0.50210  0.27287  1.0000
  N   N90       1.0  0.34313  0.41475  0.37051  1.0000
  H   H105      1.0  0.34066  0.41008  0.43706  1.0000
  C   C130      1.0  0.09569  0.67209  0.35609  1.0000
  N   N91       1.0  0.11755  0.69565  0.37164  1.0000
  C   C131      1.0  0.14172  0.69854  0.35941  1.0000
  N   N92       1.0  0.14395  0.67761  0.33265  1.0000
  C   C132      1.0  0.12223  0.65384  0.31771  1.0000
  N   N93       1.0  0.09815  0.65135  0.32982  1.0000
  N   N94       1.0  0.16387  0.72329  0.37545  1.0000
  H   H106      1.0  0.17515  0.72100  0.42294  1.0000
  N   N95       1.0  0.12498  0.63213  0.29243  1.0000
  H   H107      1.0  0.10690  0.61707  0.27279  1.0000
  N   N96       1.0  0.07032  0.66781  0.37080  1.0000
  H   H108      1.0  0.06814  0.67028  0.43736  1.0000
  C   C133      1.0  0.19378  0.43758  0.32776  1.0000
  C   C134      1.0  0.23336  0.43859  0.38297  1.0000
  C   C135      1.0  0.20736  0.43260  0.39520  1.0000
  H   H109      1.0  0.19857  0.42491  0.45517  1.0000
  H   H110      1.0  0.24210  0.43459  0.43473  1.0000
  C   C136      1.0  0.16650  0.43181  0.34691  1.0000
  H   H111      1.0  0.15377  0.41933  0.29340  1.0000
  H   H112      1.0  0.15859  0.42069  0.40872  1.0000
  C   C137      1.0  0.57339  0.76851  0.32779  1.0000
  C   C138      1.0  0.57238  0.80708  0.38298  1.0000
  C   C139      1.0  0.57837  0.78708  0.39523  1.0000
  H   H113      1.0  0.58608  0.78599  0.45517  1.0000
  H   H114      1.0  0.57639  0.81983  0.43472  1.0000
  C   C140      1.0  0.57917  0.74701  0.34694  1.0000
  H   H115      1.0  0.59165  0.74676  0.29341  1.0000
  H   H116      1.0  0.59030  0.75023  0.40872  1.0000
  C   C141      1.0  0.24249  0.81724  0.32783  1.0000
  C   C142      1.0  0.20391  0.77766  0.38299  1.0000
  C   C143      1.0  0.22392  0.80366  0.39524  1.0000
  H   H117      1.0  0.22501  0.81245  0.45521  1.0000
  H   H118      1.0  0.19116  0.76892  0.43473  1.0000
  C   C144      1.0  0.26399  0.84452  0.34698  1.0000
  H   H119      1.0  0.26423  0.85725  0.29346  1.0000
  H   H120      1.0  0.26078  0.85243  0.40877  1.0000
  C   C145      1.0  0.81263  0.57795  0.32768  1.0000
  C   C146      1.0  0.77306  0.57694  0.38291  1.0000
  C   C147      1.0  0.79906  0.58294  0.39513  1.0000
  H   H121      1.0  0.80785  0.59063  0.45509  1.0000
  H   H122      1.0  0.76432  0.58095  0.43467  1.0000
  C   C148      1.0  0.83991  0.58372  0.34681  1.0000
  H   H123      1.0  0.85264  0.59619  0.29329  1.0000
  H   H124      1.0  0.84783  0.59485  0.40860  1.0000
  C   C149      1.0  0.43304  0.24702  0.32788  1.0000
  C   C150      1.0  0.43405  0.20845  0.38306  1.0000
  C   C151      1.0  0.42805  0.22845  0.39531  1.0000
  H   H125      1.0  0.42035  0.22954  0.45526  1.0000
  H   H126      1.0  0.43004  0.19570  0.43480  1.0000
  C   C152      1.0  0.42725  0.26852  0.34703  1.0000
  H   H127      1.0  0.41476  0.26876  0.29350  1.0000
  H   H128      1.0  0.41611  0.26530  0.40882  1.0000
  C   C153      1.0  0.76393  0.19828  0.32769  1.0000
  C   C154      1.0  0.80250  0.23785  0.38288  1.0000
  C   C155      1.0  0.78250  0.21185  0.39511  1.0000
  H   H129      1.0  0.78140  0.20306  0.45508  1.0000
  H   H130      1.0  0.81525  0.24659  0.43463  1.0000
  C   C156      1.0  0.74242  0.17100  0.34684  1.0000
  H   H131      1.0  0.74217  0.15827  0.29332  1.0000
  H   H132      1.0  0.74564  0.16308  0.40863  1.0000
  C   C157      1.0  0.14889  0.56489  0.39501  1.0000
  C   C158      1.0  0.14642  0.58744  0.41591  1.0000
  C   C159      1.0  0.13903  0.59962  0.34792  1.0000
  C   C160      1.0  0.15156  0.59617  0.50605  1.0000
  N   N97       1.0  0.15838  0.58374  0.56705  1.0000
  C   C161      1.0  0.16059  0.56266  0.54586  1.0000
  O   O13       1.0  0.15080  0.61718  0.53905  1.0000
  N   N98       1.0  0.15601  0.55353  0.46122  1.0000
  H   H133      1.0  0.16593  0.55391  0.59401  1.0000
  H   H134      1.0  0.15835  0.53856  0.44958  1.0000
  C   C162      1.0  0.13474  0.62230  0.36630  1.0000
  H   H135      1.0  0.15360  0.63859  0.38874  1.0000
  H   H136      1.0  0.12049  0.61646  0.42077  1.0000
  C   C163      1.0  0.44613  0.59627  0.39513  1.0000
  C   C164      1.0  0.42358  0.57125  0.41600  1.0000
  C   C165      1.0  0.41141  0.55168  0.34800  1.0000
  C   C166      1.0  0.41482  0.56766  0.50611  1.0000
  N   N99       1.0  0.42724  0.58691  0.56711  1.0000
  C   C167      1.0  0.44832  0.61021  0.54596  1.0000
  O   O14       1.0  0.39382  0.54588  0.53910  1.0000
  N   N100      1.0  0.45748  0.61476  0.46135  1.0000
  H   H137      1.0  0.45706  0.62429  0.59412  1.0000
  H   H138      1.0  0.47245  0.63207  0.44973  1.0000
  C   C168      1.0  0.38873  0.52472  0.36635  1.0000
  H   H139      1.0  0.37243  0.52729  0.38874  1.0000
  H   H140      1.0  0.39455  0.51630  0.42084  1.0000
  C   C169      1.0  0.41470  0.86219  0.39505  1.0000
  C   C170      1.0  0.43972  0.86465  0.41595  1.0000
  C   C171      1.0  0.45930  0.87206  0.34798  1.0000
  C   C172      1.0  0.44330  0.85948  0.50607  1.0000
  N   N101      1.0  0.42404  0.85266  0.56705  1.0000
  C   C173      1.0  0.40075  0.85044  0.54586  1.0000
  O   O15       1.0  0.46508  0.86027  0.53909  1.0000
  N   N102      1.0  0.39620  0.85504  0.46124  1.0000
  H   H141      1.0  0.38667  0.84510  0.59401  1.0000
  H   H142      1.0  0.37890  0.85272  0.44960  1.0000
  C   C174      1.0  0.48626  0.87634  0.36636  1.0000
  H   H143      1.0  0.48369  0.85747  0.38876  1.0000
  H   H144      1.0  0.49467  0.89058  0.42085  1.0000
  C   C175      1.0  0.85754  0.45064  0.39506  1.0000
  C   C176      1.0  0.86001  0.42808  0.41593  1.0000
  C   C177      1.0  0.86739  0.41590  0.34793  1.0000
  C   C178      1.0  0.85485  0.41934  0.50606  1.0000
  N   N103      1.0  0.84804  0.43177  0.56707  1.0000
  C   C179      1.0  0.84583  0.45285  0.54591  1.0000
  O   O16       1.0  0.85561  0.39832  0.53904  1.0000
  N   N104      1.0  0.85042  0.46199  0.46128  1.0000
  H   H145      1.0  0.84049  0.46159  0.59407  1.0000
  H   H146      1.0  0.84808  0.47697  0.44965  1.0000
  C   C180      1.0  0.87168  0.39322  0.36629  1.0000
  H   H147      1.0  0.85282  0.37693  0.38871  1.0000
  H   H148      1.0  0.88592  0.39905  0.42077  1.0000
  C   C181      1.0  0.56027  0.41925  0.39513  1.0000
  C   C182      1.0  0.58283  0.44427  0.41601  1.0000
  C   C183      1.0  0.59500  0.46384  0.34802  1.0000
  C   C184      1.0  0.59158  0.44784  0.50613  1.0000
  N   N105      1.0  0.57915  0.42860  0.56712  1.0000
  C   C185      1.0  0.55807  0.40531  0.54596  1.0000
  O   O17       1.0  0.61259  0.46963  0.53912  1.0000
  N   N106      1.0  0.54892  0.40076  0.46134  1.0000
  H   H149      1.0  0.54933  0.39122  0.59411  1.0000
  H   H150      1.0  0.53395  0.38345  0.44970  1.0000
  C   C186      1.0  0.61768  0.49080  0.36639  1.0000
  H   H151      1.0  0.63397  0.48823  0.38878  1.0000
  H   H152      1.0  0.61186  0.49921  0.42087  1.0000
  C   C187      1.0  0.59170  0.15334  0.39507  1.0000
  C   C188      1.0  0.56668  0.15087  0.41595  1.0000
  C   C189      1.0  0.54711  0.14346  0.34796  1.0000
  C   C190      1.0  0.56310  0.15604  0.50607  1.0000
  N   N107      1.0  0.58235  0.16287  0.56706  1.0000
  C   C191      1.0  0.60565  0.16509  0.54589  1.0000
  O   O18       1.0  0.54132  0.15527  0.53906  1.0000
  N   N108      1.0  0.61020  0.16049  0.46126  1.0000
  H   H153      1.0  0.61974  0.17044  0.59403  1.0000
  H   H154      1.0  0.62750  0.16282  0.44963  1.0000
  C   C192      1.0  0.52015  0.13918  0.36633  1.0000
  H   H155      1.0  0.52272  0.15805  0.38873  1.0000
  H   H156      1.0  0.51173  0.12495  0.42082  1.0000
  C   C193      1.0  0.02834  0.38665  0.32530  1.0000
  C   C194      1.0  0.99002  0.34369  0.35665  1.0000
  C   C195      1.0  0.01678  0.36181  0.36685  1.0000
  H   H157      1.0  0.02741  0.35719  0.40976  1.0000
  H   H158      1.0  0.98225  0.32681  0.39372  1.0000
  C   C196      1.0  0.05574  0.40659  0.35117  1.0000
  H   H159      1.0  0.05488  0.42347  0.37813  1.0000
  H   H160      1.0  0.06323  0.39952  0.40497  1.0000
  C   C197      1.0  0.62443  0.65408  0.32492  1.0000
  C   C198      1.0  0.66742  0.65875  0.35601  1.0000
  C   C199      1.0  0.64929  0.66737  0.36634  1.0000
  H   H161      1.0  0.65390  0.68257  0.40947  1.0000
  H   H162      1.0  0.68425  0.66779  0.39330  1.0000
  C   C200      1.0  0.60449  0.66152  0.35103  1.0000
  H   H163      1.0  0.58763  0.64377  0.37804  1.0000
  H   H164      1.0  0.61158  0.67608  0.40483  1.0000
  C   C201      1.0  0.35690  0.98269  0.32481  1.0000
  C   C202      1.0  0.35220  0.02099  0.35597  1.0000
  C   C203      1.0  0.34359  0.99424  0.36625  1.0000
  H   H165      1.0  0.32841  0.98364  0.40944  1.0000
  H   H166      1.0  0.34316  0.02878  0.39330  1.0000
  C   C204      1.0  0.34948  0.95532  0.35089  1.0000
  H   H167      1.0  0.36724  0.95622  0.37786  1.0000
  H   H168      1.0  0.33493  0.94784  0.40473  1.0000
  C   C205      1.0  0.97809  0.62890  0.32527  1.0000
  C   C206      1.0  0.01640  0.67187  0.35651  1.0000
  C   C207      1.0  0.98964  0.65375  0.36675  1.0000
  H   H169      1.0  0.97902  0.65838  0.40964  1.0000
  H   H170      1.0  0.02419  0.68875  0.39357  1.0000
  C   C208      1.0  0.95068  0.60896  0.35119  1.0000
  H   H171      1.0  0.95155  0.59209  0.37819  1.0000
  H   H172      1.0  0.94320  0.61605  0.40497  1.0000
  C   C209      1.0  0.38198  0.36144  0.32492  1.0000
  C   C210      1.0  0.33899  0.35677  0.35601  1.0000
  C   C211      1.0  0.35713  0.34815  0.36636  1.0000
  H   H173      1.0  0.35252  0.33296  0.40951  1.0000
  H   H174      1.0  0.32216  0.34773  0.39332  1.0000
  C   C212      1.0  0.40192  0.35400  0.35101  1.0000
  H   H175      1.0  0.41878  0.37175  0.37801  1.0000
  H   H176      1.0  0.39483  0.33944  0.40483  1.0000
  C   C213      1.0  0.64948  0.03282  0.32509  1.0000
  C   C214      1.0  0.65419  0.99452  0.35595  1.0000
  C   C215      1.0  0.66278  0.02126  0.36645  1.0000
  H   H177      1.0  0.67802  0.03187  0.40941  1.0000
  H   H178      1.0  0.66326  0.98673  0.39313  1.0000
  C   C216      1.0  0.65693  0.06021  0.35113  1.0000
  H   H179      1.0  0.63920  0.05933  0.37820  1.0000
  H   H180      1.0  0.67151  0.06769  0.40488  1.0000
