data_image0
_chemical_formula_structural       CNHCNHCNHCNHCNHCNHC2NCHC2NCHC2NCHC2NCHC2NCHC2NCHC2NCHC2NCHC2NCHC2NCHC2NCHC2NCHCNCNCNC18H12CNCNCNC18H12CNCNCNC18H12CNCNCNC18H12CNCNCNC18H12CNCNCNC18H12CNCNCNC18H12CNCNCNC18H12CNCNCNC18H12CNCNCNC18H12CNCNCNC18H12CNCNCNC18H12C2NCHC2NCHC2NCHC2NCHC2NCHC2NCHCNHCNHCNHCNHCNHCNHCNHCNHCNHCNHCNHCNH
_chemical_formula_sum              "C324 N72 H180"
_cell_length_a       74.3295
_cell_length_b       74.3294
_cell_length_c       15.0354
_cell_angle_alpha    90
_cell_angle_beta     90
_cell_angle_gamma    120

_space_group_name_H-M_alt    "P 1"
_space_group_IT_number       1

loop_
  _space_group_symop_operation_xyz
  'x, y, z'

loop_
  _atom_site_type_symbol
  _atom_site_label
  _atom_site_symmetry_multiplicity
  _atom_site_fract_x
  _atom_site_fract_y
  _atom_site_fract_z
  _atom_site_occupancy
  C   C1        1.0  0.20868  0.39553  0.27313  1.0000
  N   N1        1.0  0.19708  0.37454  0.27798  1.0000
  H   H1        1.0  0.22087  0.40199  0.22971  1.0000
  C   C2        1.0  0.58814  0.79924  0.27377  1.0000
  N   N2        1.0  0.60912  0.80861  0.27858  1.0000
  H   H2        1.0  0.58167  0.80505  0.23078  1.0000
  C   C3        1.0  0.18448  0.77499  0.27340  1.0000
  N   N3        1.0  0.17512  0.78660  0.27820  1.0000
  H   H3        1.0  0.17875  0.76279  0.23006  1.0000
  C   C4        1.0  0.77881  0.58426  0.27379  1.0000
  N   N4        1.0  0.79043  0.60524  0.27858  1.0000
  H   H4        1.0  0.76654  0.57780  0.23077  1.0000
  C   C5        1.0  0.39940  0.18061  0.27317  1.0000
  N   N5        1.0  0.37841  0.17124  0.27801  1.0000
  H   H5        1.0  0.40587  0.17491  0.22969  1.0000
  C   C6        1.0  0.80307  0.20485  0.27344  1.0000
  N   N6        1.0  0.81245  0.19324  0.27828  1.0000
  H   H6        1.0  0.80883  0.21708  0.23023  1.0000
  C   C7        1.0  0.18149  0.19949  0.32849  1.0000
  C   C8        1.0  0.19956  0.20522  0.27764  1.0000
  N   N7        1.0  0.20893  0.19362  0.28320  1.0000
  C   C9        1.0  0.20208  0.17648  0.33561  1.0000
  H   H7        1.0  0.20553  0.21759  0.23509  1.0000
  C   C10       1.0  0.78418  0.96804  0.32861  1.0000
  C   C11       1.0  0.77839  0.98037  0.27806  1.0000
  N   N8        1.0  0.79001  0.00134  0.28351  1.0000
  C   C12       1.0  0.80721  0.01164  0.33554  1.0000
  H   H8        1.0  0.76597  0.97397  0.23580  1.0000
  C   C13       1.0  0.01566  0.80223  0.32844  1.0000
  C   C14       1.0  0.00333  0.78413  0.27778  1.0000
  N   N9        1.0  0.98235  0.77476  0.28333  1.0000
  C   C15       1.0  0.97207  0.78164  0.33554  1.0000
  H   H9        1.0  0.00972  0.77813  0.23538  1.0000
  C   C16       1.0  0.80608  0.78032  0.32860  1.0000
  C   C17       1.0  0.78795  0.77452  0.27810  1.0000
  N   N10       1.0  0.77859  0.78614  0.28356  1.0000
  C   C18       1.0  0.78551  0.80335  0.33554  1.0000
  H   H10       1.0  0.78192  0.76210  0.23587  1.0000
  C   C19       1.0  0.20336  0.01179  0.32851  1.0000
  C   C20       1.0  0.20904  0.99945  0.27739  1.0000
  N   N11       1.0  0.19744  0.97847  0.28299  1.0000
  C   C21       1.0  0.18036  0.96819  0.33570  1.0000
  H   H11       1.0  0.22136  0.00584  0.23462  1.0000
  C   C22       1.0  0.97191  0.17763  0.32859  1.0000
  C   C23       1.0  0.98424  0.19573  0.27788  1.0000
  N   N12       1.0  0.00522  0.20509  0.28339  1.0000
  C   C24       1.0  0.01550  0.19821  0.33562  1.0000
  H   H12       1.0  0.97785  0.20172  0.23547  1.0000
  C   C25       1.0  0.21087  0.57959  0.34155  1.0000
  C   C26       1.0  0.21016  0.58717  0.25622  1.0000
  N   N13       1.0  0.21137  0.60594  0.24981  1.0000
  C   C27       1.0  0.21106  0.61704  0.32120  1.0000
  H   H13       1.0  0.21202  0.58059  0.19980  1.0000
  C   C28       1.0  0.40405  0.61726  0.34139  1.0000
  C   C29       1.0  0.39648  0.60896  0.25610  1.0000
  N   N14       1.0  0.37770  0.59139  0.24986  1.0000
  C   C30       1.0  0.36661  0.58002  0.32136  1.0000
  H   H14       1.0  0.40305  0.61737  0.19964  1.0000
  C   C31       1.0  0.36632  0.77273  0.34138  1.0000
  C   C32       1.0  0.37461  0.77342  0.25608  1.0000
  N   N15       1.0  0.39218  0.77221  0.24978  1.0000
  C   C33       1.0  0.40360  0.77254  0.32119  1.0000
  H   H15       1.0  0.36618  0.77154  0.19964  1.0000
  C   C34       1.0  0.77666  0.40018  0.34129  1.0000
  C   C35       1.0  0.77738  0.39259  0.25601  1.0000
  N   N16       1.0  0.77615  0.37381  0.24982  1.0000
  C   C36       1.0  0.77646  0.36273  0.32132  1.0000
  H   H16       1.0  0.77550  0.39914  0.19954  1.0000
  C   C37       1.0  0.58346  0.36245  0.34143  1.0000
  C   C38       1.0  0.59106  0.37073  0.25611  1.0000
  N   N17       1.0  0.60983  0.38830  0.24976  1.0000
  C   C39       1.0  0.62093  0.39973  0.32114  1.0000
  H   H17       1.0  0.58450  0.36229  0.19968  1.0000
  C   C40       1.0  0.62112  0.20695  0.34144  1.0000
  C   C41       1.0  0.61282  0.20621  0.25613  1.0000
  N   N18       1.0  0.59526  0.20743  0.24984  1.0000
  C   C42       1.0  0.58388  0.20714  0.32131  1.0000
  H   H18       1.0  0.62125  0.20806  0.19969  1.0000
  C   C43       1.0  0.13659  0.24341  0.33016  1.0000
  N   N19       1.0  0.14652  0.26451  0.32925  1.0000
  C   C44       1.0  0.13627  0.27537  0.33077  1.0000
  N   N20       1.0  0.11517  0.26420  0.33300  1.0000
  C   C45       1.0  0.10432  0.24310  0.33387  1.0000
  N   N21       1.0  0.11548  0.23316  0.33258  1.0000
  C   C46       1.0  0.14714  0.29749  0.33068  1.0000
  C   C47       1.0  0.16889  0.30906  0.31695  1.0000
  C   C48       1.0  0.17962  0.33089  0.31687  1.0000
  C   C49       1.0  0.16910  0.34206  0.33186  1.0000
  C   C50       1.0  0.14736  0.33054  0.34542  1.0000
  C   C51       1.0  0.13660  0.30870  0.34451  1.0000
  C   C52       1.0  0.14780  0.23251  0.32892  1.0000
  C   C53       1.0  0.16959  0.24309  0.31591  1.0000
  C   C54       1.0  0.18067  0.23233  0.31488  1.0000
  C   C55       1.0  0.17044  0.21055  0.32747  1.0000
  C   C56       1.0  0.14870  0.19999  0.34122  1.0000
  C   C57       1.0  0.13759  0.21072  0.34130  1.0000
  C   C58       1.0  0.08220  0.23189  0.33542  1.0000
  C   C59       1.0  0.07099  0.21008  0.34762  1.0000
  C   C60       1.0  0.04915  0.19900  0.34859  1.0000
  C   C61       1.0  0.03762  0.20925  0.33668  1.0000
  C   C62       1.0  0.04879  0.23102  0.32373  1.0000
  C   C63       1.0  0.07063  0.24213  0.32380  1.0000
  H   H19       1.0  0.19645  0.24076  0.30716  1.0000
  H   H20       1.0  0.17776  0.25884  0.30696  1.0000
  H   H21       1.0  0.14059  0.18422  0.35017  1.0000
  H   H22       1.0  0.12188  0.20232  0.35144  1.0000
  H   H23       1.0  0.07858  0.20190  0.35601  1.0000
  H   H24       1.0  0.04180  0.18321  0.35575  1.0000
  H   H25       1.0  0.07794  0.25785  0.31414  1.0000
  H   H26       1.0  0.04113  0.23914  0.31529  1.0000
  H   H27       1.0  0.12088  0.30112  0.35458  1.0000
  H   H28       1.0  0.13897  0.33789  0.35417  1.0000
  H   H29       1.0  0.19536  0.33855  0.30720  1.0000
  H   H30       1.0  0.17726  0.30174  0.30623  1.0000
  C   C64       1.0  0.74026  0.87920  0.33034  1.0000
  N   N22       1.0  0.71916  0.86802  0.32944  1.0000
  C   C65       1.0  0.70831  0.84691  0.33090  1.0000
  N   N23       1.0  0.71948  0.83699  0.33305  1.0000
  C   C66       1.0  0.74059  0.84725  0.33392  1.0000
  N   N24       1.0  0.75052  0.86835  0.33268  1.0000
  C   C67       1.0  0.68619  0.83566  0.33079  1.0000
  C   C68       1.0  0.67461  0.84585  0.31762  1.0000
  C   C69       1.0  0.65277  0.83473  0.31750  1.0000
  C   C70       1.0  0.64160  0.81301  0.33192  1.0000
  C   C71       1.0  0.65314  0.80279  0.34493  1.0000
  C   C72       1.0  0.67498  0.81388  0.34405  1.0000
  C   C73       1.0  0.75116  0.90132  0.32915  1.0000
  C   C74       1.0  0.74057  0.91253  0.31647  1.0000
  C   C75       1.0  0.75133  0.93437  0.31547  1.0000
  C   C76       1.0  0.77311  0.94592  0.32767  1.0000
  C   C77       1.0  0.78369  0.93474  0.34111  1.0000
  C   C78       1.0  0.77296  0.91290  0.34120  1.0000
  C   C79       1.0  0.75181  0.83635  0.33540  1.0000
  C   C80       1.0  0.77363  0.84697  0.34735  1.0000
  C   C81       1.0  0.78472  0.83622  0.34826  1.0000
  C   C82       1.0  0.77446  0.81441  0.33659  1.0000
  C   C83       1.0  0.75268  0.80381  0.32388  1.0000
  C   C84       1.0  0.74157  0.81453  0.32399  1.0000
  H   H31       1.0  0.74289  0.94171  0.30792  1.0000
  H   H32       1.0  0.72481  0.90494  0.30775  1.0000
  H   H33       1.0  0.79946  0.94240  0.34979  1.0000
  H   H34       1.0  0.78137  0.90560  0.35109  1.0000
  H   H35       1.0  0.78181  0.86274  0.35559  1.0000
  H   H36       1.0  0.80051  0.84466  0.35528  1.0000
  H   H37       1.0  0.72584  0.80610  0.31455  1.0000
  H   H38       1.0  0.74456  0.78802  0.31566  1.0000
  H   H39       1.0  0.68257  0.80573  0.35368  1.0000
  H   H40       1.0  0.64579  0.78703  0.35322  1.0000
  H   H41       1.0  0.64510  0.84281  0.30825  1.0000
  H   H42       1.0  0.68192  0.86155  0.30732  1.0000
  C   C85       1.0  0.10450  0.84712  0.33023  1.0000
  N   N25       1.0  0.11567  0.83719  0.32930  1.0000
  C   C86       1.0  0.13677  0.84744  0.33084  1.0000
  N   N26       1.0  0.14670  0.86853  0.33309  1.0000
  C   C87       1.0  0.13645  0.87938  0.33398  1.0000
  N   N27       1.0  0.11535  0.86823  0.33268  1.0000
  C   C88       1.0  0.14802  0.83656  0.33074  1.0000
  C   C89       1.0  0.13783  0.81481  0.31710  1.0000
  C   C90       1.0  0.14894  0.80408  0.31703  1.0000
  C   C91       1.0  0.17064  0.81461  0.33194  1.0000
  C   C92       1.0  0.18085  0.83635  0.34540  1.0000
  C   C93       1.0  0.16978  0.84711  0.34448  1.0000
  C   C94       1.0  0.08238  0.83591  0.32897  1.0000
  C   C95       1.0  0.07116  0.81411  0.31615  1.0000
  C   C96       1.0  0.04932  0.80304  0.31508  1.0000
  C   C97       1.0  0.03778  0.81328  0.32745  1.0000
  C   C98       1.0  0.04896  0.83503  0.34101  1.0000
  C   C99       1.0  0.07080  0.84613  0.34112  1.0000
  C   C100      1.0  0.14736  0.90150  0.33555  1.0000
  C   C101      1.0  0.13676  0.91271  0.34821  1.0000
  C   C102      1.0  0.14752  0.93455  0.34918  1.0000
  C   C103      1.0  0.16930  0.94608  0.33681  1.0000
  C   C104      1.0  0.17988  0.93491  0.32342  1.0000
  C   C105      1.0  0.16916  0.91307  0.32350  1.0000
  H   H43       1.0  0.04198  0.78726  0.30752  1.0000
  H   H44       1.0  0.07875  0.80594  0.30737  1.0000
  H   H45       1.0  0.04131  0.84314  0.34979  1.0000
  H   H46       1.0  0.07811  0.86184  0.35111  1.0000
  H   H47       1.0  0.12101  0.90511  0.35694  1.0000
  H   H48       1.0  0.13909  0.94190  0.35669  1.0000
  H   H49       1.0  0.17756  0.90577  0.31348  1.0000
  H   H50       1.0  0.19565  0.94257  0.31462  1.0000
  H   H51       1.0  0.17792  0.86283  0.35448  1.0000
  H   H52       1.0  0.19660  0.84474  0.35409  1.0000
  H   H53       1.0  0.14086  0.78834  0.30744  1.0000
  H   H54       1.0  0.12214  0.80644  0.30645  1.0000
  C   C106      1.0  0.85098  0.73638  0.33038  1.0000
  N   N28       1.0  0.84105  0.71528  0.32946  1.0000
  C   C107      1.0  0.85131  0.70443  0.33093  1.0000
  N   N29       1.0  0.87240  0.71560  0.33311  1.0000
  C   C108      1.0  0.88325  0.73671  0.33399  1.0000
  N   N30       1.0  0.87208  0.74663  0.33275  1.0000
  C   C109      1.0  0.84044  0.68231  0.33081  1.0000
  C   C110      1.0  0.81868  0.67073  0.31756  1.0000
  C   C111      1.0  0.80795  0.64889  0.31746  1.0000
  C   C112      1.0  0.81851  0.63772  0.33194  1.0000
  C   C113      1.0  0.84026  0.64926  0.34501  1.0000
  C   C114      1.0  0.85101  0.67110  0.34412  1.0000
  C   C115      1.0  0.83976  0.74728  0.32917  1.0000
  C   C116      1.0  0.81796  0.73670  0.31653  1.0000
  C   C117      1.0  0.80688  0.74746  0.31552  1.0000
  C   C118      1.0  0.81713  0.76925  0.32767  1.0000
  C   C119      1.0  0.83888  0.77982  0.34105  1.0000
  C   C120      1.0  0.84999  0.76909  0.34115  1.0000
  C   C121      1.0  0.90537  0.74793  0.33550  1.0000
  C   C122      1.0  0.91657  0.76974  0.34763  1.0000
  C   C123      1.0  0.93841  0.78083  0.34852  1.0000
  C   C124      1.0  0.94995  0.77058  0.33665  1.0000
  C   C125      1.0  0.93879  0.74881  0.32376  1.0000
  C   C126      1.0  0.91695  0.73769  0.32388  1.0000
  H   H55       1.0  0.79110  0.73903  0.30801  1.0000
  H   H56       1.0  0.80978  0.72093  0.30787  1.0000
  H   H57       1.0  0.84700  0.79559  0.34969  1.0000
  H   H58       1.0  0.86570  0.77750  0.35101  1.0000
  H   H59       1.0  0.90897  0.77791  0.35602  1.0000
  H   H60       1.0  0.94575  0.79662  0.35569  1.0000
  H   H61       1.0  0.90965  0.72197  0.31432  1.0000
  H   H62       1.0  0.94645  0.74070  0.31538  1.0000
  H   H63       1.0  0.86674  0.67868  0.35381  1.0000
  H   H64       1.0  0.84867  0.64191  0.35335  1.0000
  H   H65       1.0  0.79220  0.64123  0.30815  1.0000
  H   H66       1.0  0.81029  0.67804  0.30722  1.0000
  C   C127      1.0  0.24729  0.10061  0.33017  1.0000
  N   N31       1.0  0.26839  0.11178  0.32926  1.0000
  C   C128      1.0  0.27924  0.13288  0.33079  1.0000
  N   N32       1.0  0.26808  0.14281  0.33304  1.0000
  C   C129      1.0  0.24698  0.13256  0.33391  1.0000
  N   N33       1.0  0.23704  0.11147  0.33261  1.0000
  C   C130      1.0  0.30136  0.14412  0.33071  1.0000
  C   C131      1.0  0.31293  0.13394  0.31691  1.0000
  C   C132      1.0  0.33476  0.14504  0.31686  1.0000
  C   C133      1.0  0.34594  0.16673  0.33195  1.0000
  C   C134      1.0  0.33442  0.17695  0.34558  1.0000
  C   C135      1.0  0.31258  0.16588  0.34464  1.0000
  C   C136      1.0  0.23638  0.07849  0.32893  1.0000
  C   C137      1.0  0.24694  0.06728  0.31562  1.0000
  C   C138      1.0  0.23618  0.04544  0.31458  1.0000
  C   C139      1.0  0.21442  0.03390  0.32748  1.0000
  C   C140      1.0  0.20386  0.04508  0.34153  1.0000
  C   C141      1.0  0.21460  0.06692  0.34161  1.0000
  C   C142      1.0  0.23577  0.14347  0.33546  1.0000
  C   C143      1.0  0.21396  0.13287  0.34781  1.0000
  C   C144      1.0  0.20288  0.14363  0.34876  1.0000
  C   C145      1.0  0.21313  0.16542  0.33671  1.0000
  C   C146      1.0  0.23490  0.17601  0.32362  1.0000
  C   C147      1.0  0.24601  0.16528  0.32370  1.0000
  H   H67       1.0  0.24460  0.03809  0.30663  1.0000
  H   H68       1.0  0.26269  0.07487  0.30643  1.0000
  H   H69       1.0  0.18811  0.03742  0.35072  1.0000
  H   H70       1.0  0.20621  0.07422  0.35198  1.0000
  H   H71       1.0  0.20578  0.11711  0.35631  1.0000
  H   H72       1.0  0.18709  0.13520  0.35603  1.0000
  H   H73       1.0  0.26172  0.17369  0.31395  1.0000
  H   H74       1.0  0.24301  0.19179  0.31507  1.0000
  H   H75       1.0  0.30500  0.17401  0.35478  1.0000
  H   H76       1.0  0.34178  0.19269  0.35441  1.0000
  H   H77       1.0  0.34242  0.13696  0.30714  1.0000
  H   H78       1.0  0.30560  0.11825  0.30612  1.0000
  C   C148      1.0  0.88307  0.13273  0.33025  1.0000
  N   N34       1.0  0.87190  0.14266  0.32936  1.0000
  C   C149      1.0  0.85079  0.13240  0.33084  1.0000
  N   N35       1.0  0.84087  0.11131  0.33300  1.0000
  C   C150      1.0  0.85112  0.10046  0.33385  1.0000
  N   N36       1.0  0.87222  0.11163  0.33260  1.0000
  C   C151      1.0  0.83954  0.14328  0.33075  1.0000
  C   C152      1.0  0.84972  0.16503  0.31730  1.0000
  C   C153      1.0  0.83861  0.17576  0.31721  1.0000
  C   C154      1.0  0.81690  0.16522  0.33192  1.0000
  C   C155      1.0  0.80669  0.14347  0.34521  1.0000
  C   C156      1.0  0.81777  0.13271  0.34429  1.0000
  C   C157      1.0  0.90519  0.14395  0.32906  1.0000
  C   C158      1.0  0.91640  0.16574  0.31620  1.0000
  C   C159      1.0  0.93824  0.17682  0.31521  1.0000
  C   C160      1.0  0.94979  0.16658  0.32761  1.0000
  C   C161      1.0  0.93861  0.14484  0.34122  1.0000
  C   C162      1.0  0.91677  0.13373  0.34130  1.0000
  C   C163      1.0  0.84022  0.07834  0.33534  1.0000
  C   C164      1.0  0.85083  0.06713  0.34733  1.0000
  C   C165      1.0  0.84008  0.04529  0.34825  1.0000
  C   C166      1.0  0.81828  0.03375  0.33655  1.0000
  C   C167      1.0  0.80767  0.04492  0.32378  1.0000
  C   C168      1.0  0.81840  0.06676  0.32388  1.0000
  H   H79       1.0  0.94559  0.19260  0.30753  1.0000
  H   H80       1.0  0.90882  0.17391  0.30734  1.0000
  H   H81       1.0  0.94626  0.13673  0.35005  1.0000
  H   H82       1.0  0.90946  0.11802  0.35134  1.0000
  H   H83       1.0  0.86660  0.07473  0.35561  1.0000
  H   H84       1.0  0.84852  0.03795  0.35532  1.0000
  H   H85       1.0  0.80998  0.07407  0.31442  1.0000
  H   H86       1.0  0.79189  0.03726  0.31554  1.0000
  H   H87       1.0  0.80963  0.11699  0.35414  1.0000
  H   H88       1.0  0.79094  0.13507  0.35371  1.0000
  H   H89       1.0  0.84669  0.19150  0.30773  1.0000
  H   H90       1.0  0.86542  0.17341  0.30678  1.0000
  C   C169      1.0  0.24723  0.52852  0.33965  1.0000
  N   N37       1.0  0.23707  0.50745  0.33754  1.0000
  C   C170      1.0  0.24732  0.49661  0.32974  1.0000
  N   N38       1.0  0.26841  0.50768  0.32305  1.0000
  C   C171      1.0  0.27915  0.52876  0.32318  1.0000
  N   N39       1.0  0.26824  0.53883  0.33192  1.0000
  C   C172      1.0  0.23637  0.47448  0.32853  1.0000
  C   C173      1.0  0.21466  0.46291  0.34350  1.0000
  C   C174      1.0  0.20390  0.44108  0.34288  1.0000
  C   C175      1.0  0.21433  0.42989  0.32613  1.0000
  C   C176      1.0  0.23602  0.44141  0.31129  1.0000
  C   C177      1.0  0.24682  0.46324  0.31268  1.0000
  C   C178      1.0  0.23656  0.53974  0.34856  1.0000
  C   C179      1.0  0.21720  0.53305  0.30650  1.0000
  C   C180      1.0  0.20807  0.54572  0.30658  1.0000
  C   C181      1.0  0.21757  0.56492  0.35228  1.0000
  C   C182      1.0  0.23630  0.57099  0.39861  1.0000
  C   C183      1.0  0.24578  0.55873  0.39579  1.0000
  C   C184      1.0  0.30105  0.54018  0.31492  1.0000
  C   C185      1.0  0.31076  0.55943  0.26964  1.0000
  C   C186      1.0  0.33249  0.57174  0.26669  1.0000
  C   C187      1.0  0.34521  0.56544  0.31103  1.0000
  C   C188      1.0  0.33558  0.54604  0.35505  1.0000
  C   C189      1.0  0.31379  0.53334  0.35520  1.0000
  H   H91       1.0  0.19476  0.54113  0.27076  1.0000
  H   H92       1.0  0.21034  0.51965  0.26984  1.0000
  H   H93       1.0  0.24405  0.58513  0.42972  1.0000
  H   H94       1.0  0.25979  0.56411  0.42706  1.0000
  H   H95       1.0  0.30208  0.56492  0.23962  1.0000
  H   H96       1.0  0.33885  0.58602  0.23691  1.0000
  H   H97       1.0  0.30729  0.51972  0.39025  1.0000
  H   H98       1.0  0.34436  0.54127  0.38934  1.0000
  H   H99       1.0  0.26251  0.47080  0.30189  1.0000
  H   H100      1.0  0.24438  0.43406  0.30136  1.0000
  H   H101      1.0  0.18819  0.43343  0.35355  1.0000
  H   H102      1.0  0.20635  0.47023  0.35561  1.0000
  C   C190      1.0  0.45512  0.70470  0.33924  1.0000
  N   N40       1.0  0.47619  0.71561  0.33727  1.0000
  C   C191      1.0  0.48705  0.73670  0.32956  1.0000
  N   N41       1.0  0.47598  0.74673  0.32279  1.0000
  C   C192      1.0  0.45490  0.73639  0.32276  1.0000
  N   N42       1.0  0.44482  0.71541  0.33142  1.0000
  C   C193      1.0  0.50917  0.74788  0.32847  1.0000
  C   C194      1.0  0.52073  0.73771  0.34282  1.0000
  C   C195      1.0  0.54257  0.74878  0.34227  1.0000
  C   C196      1.0  0.55377  0.77043  0.32620  1.0000
  C   C197      1.0  0.54226  0.78063  0.31200  1.0000
  C   C198      1.0  0.52042  0.76959  0.31333  1.0000
  C   C199      1.0  0.44388  0.68281  0.34813  1.0000
  C   C200      1.0  0.45060  0.67012  0.30638  1.0000
  C   C201      1.0  0.43795  0.64832  0.30666  1.0000
  C   C202      1.0  0.41873  0.63863  0.35215  1.0000
  C   C203      1.0  0.41259  0.65130  0.39789  1.0000
  C   C204      1.0  0.42484  0.67304  0.39501  1.0000
  C   C205      1.0  0.44348  0.74688  0.31447  1.0000
  C   C206      1.0  0.42425  0.73735  0.26902  1.0000
  C   C207      1.0  0.41192  0.74675  0.26621  1.0000
  C   C208      1.0  0.41820  0.76574  0.31073  1.0000
  C   C209      1.0  0.43759  0.77551  0.35484  1.0000
  C   C210      1.0  0.45030  0.76643  0.35492  1.0000
  H   H103      1.0  0.44260  0.63959  0.27124  1.0000
  H   H104      1.0  0.46406  0.67666  0.27019  1.0000
  H   H105      1.0  0.39842  0.64492  0.42872  1.0000
  H   H106      1.0  0.41943  0.68168  0.42594  1.0000
  H   H107      1.0  0.41878  0.72320  0.23886  1.0000
  H   H108      1.0  0.39766  0.73885  0.23626  1.0000
  H   H109      1.0  0.46389  0.77353  0.39018  1.0000
  H   H110      1.0  0.44233  0.78902  0.38937  1.0000
  H   H111      1.0  0.51287  0.77775  0.30303  1.0000
  H   H112      1.0  0.54961  0.79635  0.30262  1.0000
  H   H113      1.0  0.55021  0.74069  0.35246  1.0000
  H   H114      1.0  0.51342  0.72206  0.35442  1.0000
  C   C211      1.0  0.27890  0.73639  0.33933  1.0000
  N   N43       1.0  0.26799  0.74656  0.33739  1.0000
  C   C212      1.0  0.24691  0.73633  0.32966  1.0000
  N   N44       1.0  0.23687  0.71524  0.32285  1.0000
  C   C213      1.0  0.24721  0.70449  0.32279  1.0000
  N   N45       1.0  0.26819  0.71539  0.33147  1.0000
  C   C214      1.0  0.23573  0.74728  0.32860  1.0000
  C   C215      1.0  0.24589  0.76899  0.34349  1.0000
  C   C216      1.0  0.23483  0.77977  0.34294  1.0000
  C   C217      1.0  0.21320  0.76934  0.32635  1.0000
  C   C218      1.0  0.20301  0.74765  0.31164  1.0000
  C   C219      1.0  0.21404  0.73684  0.31296  1.0000
  C   C220      1.0  0.30079  0.74705  0.34823  1.0000
  C   C221      1.0  0.31347  0.76644  0.30637  1.0000
  C   C222      1.0  0.33527  0.77557  0.30650  1.0000
  C   C223      1.0  0.34496  0.76603  0.35205  1.0000
  C   C224      1.0  0.33229  0.74727  0.39817  1.0000
  C   C225      1.0  0.31055  0.73779  0.39529  1.0000
  C   C226      1.0  0.23672  0.68259  0.31447  1.0000
  C   C227      1.0  0.24622  0.67289  0.26889  1.0000
  C   C228      1.0  0.23681  0.65115  0.26599  1.0000
  C   C229      1.0  0.21785  0.63844  0.31073  1.0000
  C   C230      1.0  0.20810  0.64806  0.35500  1.0000
  C   C231      1.0  0.21717  0.66986  0.35502  1.0000
  H   H115      1.0  0.34400  0.78890  0.27082  1.0000
  H   H116      1.0  0.30694  0.77331  0.26984  1.0000
  H   H117      1.0  0.33867  0.73950  0.42916  1.0000
  H   H118      1.0  0.30191  0.72377  0.42642  1.0000
  H   H119      1.0  0.26036  0.68156  0.23864  1.0000
  H   H120      1.0  0.24471  0.64480  0.23602  1.0000
  H   H121      1.0  0.21009  0.67635  0.39041  1.0000
  H   H122      1.0  0.19460  0.63929  0.38959  1.0000
  H   H123      1.0  0.20590  0.72115  0.30223  1.0000
  H   H124      1.0  0.18730  0.73929  0.30183  1.0000
  H   H125      1.0  0.24290  0.79548  0.35351  1.0000
  H   H126      1.0  0.26152  0.77731  0.35546  1.0000
  C   C232      1.0  0.74028  0.45123  0.33914  1.0000
  N   N46       1.0  0.75045  0.47231  0.33725  1.0000
  C   C233      1.0  0.74022  0.48317  0.32956  1.0000
  N   N47       1.0  0.71912  0.47211  0.32277  1.0000
  C   C234      1.0  0.70837  0.45102  0.32266  1.0000
  N   N48       1.0  0.71927  0.44094  0.33129  1.0000
  C   C235      1.0  0.75117  0.50530  0.32854  1.0000
  C   C236      1.0  0.77290  0.51685  0.34296  1.0000
  C   C237      1.0  0.78368  0.53868  0.34243  1.0000
  C   C238      1.0  0.77323  0.54989  0.32631  1.0000
  C   C239      1.0  0.75152  0.53838  0.31206  1.0000
  C   C240      1.0  0.74071  0.51655  0.31338  1.0000
  C   C241      1.0  0.75093  0.43999  0.34801  1.0000
  C   C242      1.0  0.77035  0.44673  0.30638  1.0000
  C   C243      1.0  0.77951  0.43409  0.30667  1.0000
  C   C244      1.0  0.76997  0.41485  0.35204  1.0000
  C   C245      1.0  0.75113  0.40868  0.39765  1.0000
  C   C246      1.0  0.74164  0.42094  0.39477  1.0000
  C   C247      1.0  0.68647  0.43961  0.31435  1.0000
  C   C248      1.0  0.67677  0.42039  0.26886  1.0000
  C   C249      1.0  0.65503  0.40806  0.26607  1.0000
  C   C250      1.0  0.64232  0.41433  0.31065  1.0000
  C   C251      1.0  0.65194  0.43372  0.35480  1.0000
  C   C252      1.0  0.67374  0.44643  0.35486  1.0000
  H   H127      1.0  0.79290  0.43874  0.27133  1.0000
  H   H128      1.0  0.77729  0.46021  0.27029  1.0000
  H   H129      1.0  0.74333  0.39450  0.42838  1.0000
  H   H130      1.0  0.72758  0.41550  0.42560  1.0000
  H   H131      1.0  0.68544  0.41492  0.23866  1.0000
  H   H132      1.0  0.64868  0.39380  0.23608  1.0000
  H   H133      1.0  0.68024  0.46002  0.39017  1.0000
  H   H134      1.0  0.64318  0.43845  0.38937  1.0000
  H   H135      1.0  0.72501  0.50900  0.30303  1.0000
  H   H136      1.0  0.74315  0.54574  0.30264  1.0000
  H   H137      1.0  0.79940  0.54632  0.35264  1.0000
  H   H138      1.0  0.78123  0.50953  0.35457  1.0000
  C   C253      1.0  0.53240  0.27503  0.33955  1.0000
  N   N49       1.0  0.51132  0.26412  0.33750  1.0000
  C   C254      1.0  0.50048  0.24303  0.32974  1.0000
  N   N50       1.0  0.51154  0.23300  0.32301  1.0000
  C   C255      1.0  0.53263  0.24334  0.32308  1.0000
  N   N51       1.0  0.54270  0.26432  0.33178  1.0000
  C   C256      1.0  0.47835  0.23185  0.32859  1.0000
  C   C257      1.0  0.46679  0.24199  0.34367  1.0000
  C   C258      1.0  0.44495  0.23092  0.34310  1.0000
  C   C259      1.0  0.43376  0.20930  0.32627  1.0000
  C   C260      1.0  0.44527  0.19913  0.31132  1.0000
  C   C261      1.0  0.46711  0.21017  0.31268  1.0000
  C   C262      1.0  0.54362  0.29692  0.34844  1.0000
  C   C263      1.0  0.53692  0.30959  0.30646  1.0000
  C   C264      1.0  0.54959  0.33139  0.30654  1.0000
  C   C265      1.0  0.56879  0.34109  0.35216  1.0000
  C   C266      1.0  0.57488  0.32843  0.39841  1.0000
  C   C267      1.0  0.56262  0.30669  0.39557  1.0000
  C   C268      1.0  0.54404  0.23286  0.31480  1.0000
  C   C269      1.0  0.56329  0.24240  0.26948  1.0000
  C   C270      1.0  0.57559  0.23296  0.26654  1.0000
  C   C271      1.0  0.56930  0.21396  0.31094  1.0000
  C   C272      1.0  0.54989  0.20418  0.35498  1.0000
  C   C273      1.0  0.53720  0.21329  0.35512  1.0000
  H   H139      1.0  0.54499  0.34011  0.27078  1.0000
  H   H140      1.0  0.52351  0.30305  0.26987  1.0000
  H   H141      1.0  0.58903  0.33482  0.42945  1.0000
  H   H142      1.0  0.56801  0.29806  0.42679  1.0000
  H   H143      1.0  0.56877  0.25655  0.23942  1.0000
  H   H144      1.0  0.58987  0.24088  0.23674  1.0000
  H   H145      1.0  0.52358  0.20616  0.39021  1.0000
  H   H146      1.0  0.54513  0.19065  0.38932  1.0000
  H   H147      1.0  0.47466  0.20204  0.30179  1.0000
  H   H148      1.0  0.43792  0.18343  0.30133  1.0000
  H   H149      1.0  0.43731  0.23898  0.35383  1.0000
  H   H150      1.0  0.47410  0.25762  0.35585  1.0000
  C   C274      1.0  0.70856  0.24335  0.33948  1.0000
  N   N52       1.0  0.71948  0.23319  0.33740  1.0000
  C   C275      1.0  0.74056  0.24343  0.32966  1.0000
  N   N53       1.0  0.75059  0.26452  0.32298  1.0000
  C   C276      1.0  0.74025  0.27527  0.32306  1.0000
  N   N54       1.0  0.71926  0.26435  0.33175  1.0000
  C   C277      1.0  0.75174  0.23249  0.32848  1.0000
  C   C278      1.0  0.74159  0.21077  0.34312  1.0000
  C   C279      1.0  0.75266  0.20000  0.34253  1.0000
  C   C280      1.0  0.77430  0.21045  0.32612  1.0000
  C   C281      1.0  0.78448  0.23215  0.31160  1.0000
  C   C282      1.0  0.77344  0.24294  0.31298  1.0000
  C   C283      1.0  0.68666  0.23267  0.34835  1.0000
  C   C284      1.0  0.67399  0.21329  0.30650  1.0000
  C   C285      1.0  0.65219  0.20412  0.30674  1.0000
  C   C286      1.0  0.64248  0.21363  0.35226  1.0000
  C   C287      1.0  0.65515  0.23244  0.39810  1.0000
  C   C288      1.0  0.67689  0.24193  0.39527  1.0000
  C   C289      1.0  0.75073  0.29717  0.31483  1.0000
  C   C290      1.0  0.74117  0.30688  0.26964  1.0000
  C   C291      1.0  0.75060  0.32861  0.26677  1.0000
  C   C292      1.0  0.76963  0.34133  0.31097  1.0000
  C   C293      1.0  0.77942  0.33170  0.35487  1.0000
  C   C294      1.0  0.77031  0.30990  0.35507  1.0000
  H   H151      1.0  0.64347  0.19076  0.27124  1.0000
  H   H152      1.0  0.68054  0.20637  0.27027  1.0000
  H   H153      1.0  0.64876  0.24022  0.42895  1.0000
  H   H154      1.0  0.68551  0.25598  0.42625  1.0000
  H   H155      1.0  0.72701  0.29821  0.23965  1.0000
  H   H156      1.0  0.74268  0.33498  0.23698  1.0000
  H   H157      1.0  0.77744  0.30340  0.39002  1.0000
  H   H158      1.0  0.79297  0.34047  0.38914  1.0000
  H   H159      1.0  0.78159  0.25864  0.30245  1.0000
  H   H160      1.0  0.80020  0.24052  0.30195  1.0000
  H   H161      1.0  0.74459  0.18428  0.35295  1.0000
  H   H162      1.0  0.72595  0.20244  0.35499  1.0000
  C   C295      1.0  0.18017  0.36417  0.33153  1.0000
  C   C296      1.0  0.17469  0.37640  0.38450  1.0000
  N   N55       1.0  0.18632  0.39739  0.37975  1.0000
  C   C297      1.0  0.20323  0.40777  0.32620  1.0000
  H   H163      1.0  0.16251  0.36992  0.42800  1.0000
  C   C298      1.0  0.61949  0.80197  0.33157  1.0000
  C   C299      1.0  0.60726  0.78414  0.38395  1.0000
  N   N56       1.0  0.58627  0.77480  0.37925  1.0000
  C   C300      1.0  0.57589  0.78144  0.32628  1.0000
  H   H164      1.0  0.61373  0.77836  0.42702  1.0000
  C   C301      1.0  0.18168  0.80354  0.33164  1.0000
  C   C302      1.0  0.19941  0.80903  0.38452  1.0000
  N   N57       1.0  0.20875  0.79739  0.37982  1.0000
  C   C303      1.0  0.20219  0.78046  0.32640  1.0000
  H   H165      1.0  0.20512  0.82122  0.42793  1.0000
  C   C304      1.0  0.80744  0.61561  0.33160  1.0000
  C   C305      1.0  0.81301  0.60338  0.38404  1.0000
  N   N58       1.0  0.80136  0.58239  0.37937  1.0000
  C   C306      1.0  0.78435  0.57201  0.32636  1.0000
  H   H166      1.0  0.82526  0.60985  0.42715  1.0000
  C   C307      1.0  0.36805  0.17776  0.33165  1.0000
  C   C308      1.0  0.38028  0.19546  0.38471  1.0000
  N   N59       1.0  0.40126  0.20481  0.37997  1.0000
  C   C309      1.0  0.41164  0.19829  0.32634  1.0000
  H   H167      1.0  0.37380  0.20114  0.42828  1.0000
  C   C310      1.0  0.80586  0.17628  0.33156  1.0000
  C   C311      1.0  0.78809  0.17075  0.38421  1.0000
  N   N60       1.0  0.77874  0.18238  0.37947  1.0000
  C   C312      1.0  0.78532  0.19934  0.32620  1.0000
  H   H168      1.0  0.78235  0.15853  0.42750  1.0000
  C   C313      1.0  0.18402  0.17075  0.38648  1.0000
  N   N61       1.0  0.17465  0.18235  0.38088  1.0000
  H   H169      1.0  0.17803  0.15837  0.42891  1.0000
  C   C314      1.0  0.81300  0.99931  0.38610  1.0000
  N   N62       1.0  0.80139  0.97833  0.38062  1.0000
  H   H170      1.0  0.82544  0.00571  0.42825  1.0000
  C   C315      1.0  0.98440  0.79974  0.38622  1.0000
  N   N63       1.0  0.00537  0.80911  0.38064  1.0000
  H   H171      1.0  0.97800  0.80575  0.42851  1.0000
  C   C316      1.0  0.80364  0.80915  0.38606  1.0000
  N   N64       1.0  0.81300  0.79753  0.38056  1.0000
  H   H172      1.0  0.80968  0.82159  0.42818  1.0000
  C   C317      1.0  0.17468  0.98053  0.38684  1.0000
  N   N65       1.0  0.18627  0.00150  0.38120  1.0000
  H   H173      1.0  0.16234  0.97413  0.42950  1.0000
  C   C318      1.0  0.00317  0.18012  0.38635  1.0000
  N   N66       1.0  0.98220  0.17075  0.38080  1.0000
  H   H174      1.0  0.00957  0.17411  0.42865  1.0000
  C   C319      1.0  0.20996  0.60858  0.40644  1.0000
  N   N67       1.0  0.21093  0.59089  0.41295  1.0000
  H   H175      1.0  0.21141  0.61684  0.46299  1.0000
  C   C320      1.0  0.37510  0.58741  0.40655  1.0000
  N   N68       1.0  0.39279  0.60608  0.41296  1.0000
  H   H176      1.0  0.36684  0.58063  0.46314  1.0000
  C   C321      1.0  0.39622  0.77366  0.40637  1.0000
  N   N69       1.0  0.37756  0.77269  0.41281  1.0000
  H   H177      1.0  0.40303  0.77223  0.46295  1.0000
  C   C322      1.0  0.77758  0.37124  0.40647  1.0000
  N   N70       1.0  0.77661  0.38894  0.41286  1.0000
  H   H178      1.0  0.77613  0.36300  0.46307  1.0000
  C   C323      1.0  0.61243  0.39237  0.40633  1.0000
  N   N71       1.0  0.59474  0.37370  0.41283  1.0000
  H   H179      1.0  0.62067  0.39918  0.46291  1.0000
  C   C324      1.0  0.59126  0.20604  0.40652  1.0000
  N   N72       1.0  0.60992  0.20701  0.41297  1.0000
  H   H180      1.0  0.58446  0.20750  0.46309  1.0000
