data_image0
_chemical_formula_structural       C2NC2OHC2NC2OHC2NC2OHNCHNCHNCHNCHNCHNCHCNCNCNC18H12CNCNCNC18H12CNCNCNC18H12CNCNCNC18H12CNCNCNC18H12CNCNCNC18H12NCHNCHNCHC2NC2OHC2NC2OHC2NC2OHC2NC2OHC2NC2OHC2NC2OH
_chemical_formula_sum              "C171 N36 O9 H90"
_cell_length_a       60.1617
_cell_length_b       60.1616
_cell_length_c       15.0262
_cell_angle_alpha    90
_cell_angle_beta     90
_cell_angle_gamma    120

_space_group_name_H-M_alt    "P 1"
_space_group_IT_number       1

loop_
  _space_group_symop_operation_xyz
  'x, y, z'

loop_
  _atom_site_type_symbol
  _atom_site_label
  _atom_site_symmetry_multiplicity
  _atom_site_fract_x
  _atom_site_fract_y
  _atom_site_fract_z
  _atom_site_occupancy
  C   C1        1.0  0.97167  0.48508  0.30046  1.0000
  C   C2        1.0  0.02524  0.51045  0.31464  1.0000
  N   N1        1.0  0.01313  0.51646  0.25068  1.0000
  C   C3        1.0  0.98725  0.50493  0.23951  1.0000
  C   C4        1.0  0.97766  0.51241  0.16873  1.0000
  O   O1        1.0  0.99247  0.52951  0.11893  1.0000
  H   H1        1.0  0.96194  0.49871  0.13976  1.0000
  C   C5        1.0  0.51276  0.48610  0.30053  1.0000
  C   C6        1.0  0.48735  0.51425  0.31489  1.0000
  N   N2        1.0  0.48140  0.49620  0.25069  1.0000
  C   C7        1.0  0.49296  0.48188  0.23947  1.0000
  C   C8        1.0  0.48554  0.46495  0.16845  1.0000
  O   O2        1.0  0.46863  0.46269  0.11773  1.0000
  H   H2        1.0  0.49892  0.46226  0.14016  1.0000
  C   C9        1.0  0.51160  0.02616  0.30029  1.0000
  C   C10       1.0  0.48344  0.97260  0.31459  1.0000
  N   N3        1.0  0.50150  0.98470  0.25044  1.0000
  C   C11       1.0  0.51582  0.01058  0.23924  1.0000
  C   C12       1.0  0.53279  0.02010  0.16832  1.0000
  O   O3        1.0  0.53505  0.00545  0.11759  1.0000
  H   H3        1.0  0.53551  0.03618  0.14004  1.0000
  N   N4        1.0  0.27016  0.51985  0.26592  1.0000
  C   C13       1.0  0.24700  0.51846  0.26949  1.0000
  H   H4        1.0  0.23857  0.51920  0.21136  1.0000
  N   N5        1.0  0.47792  0.74979  0.26573  1.0000
  C   C14       1.0  0.47936  0.72804  0.26934  1.0000
  H   H5        1.0  0.47861  0.71886  0.21121  1.0000
  N   N6        1.0  0.24793  0.72772  0.26570  1.0000
  C   C15       1.0  0.26963  0.75095  0.26903  1.0000
  H   H6        1.0  0.27892  0.75919  0.21088  1.0000
  N   N7        1.0  0.72837  0.47851  0.26803  1.0000
  C   C16       1.0  0.75153  0.47988  0.27054  1.0000
  H   H7        1.0  0.75944  0.47852  0.21204  1.0000
  N   N8        1.0  0.51928  0.24929  0.26801  1.0000
  C   C17       1.0  0.51800  0.27114  0.27037  1.0000
  H   H8        1.0  0.51917  0.28033  0.21186  1.0000
  N   N9        1.0  0.74843  0.26947  0.26773  1.0000
  C   C18       1.0  0.72661  0.24633  0.27043  1.0000
  H   H9        1.0  0.71740  0.23824  0.21200  1.0000
  C   C19       1.0  0.17436  0.60525  0.32482  1.0000
  N   N10       1.0  0.14831  0.59167  0.32127  1.0000
  C   C20       1.0  0.13479  0.56557  0.32626  1.0000
  N   N11       1.0  0.14827  0.55305  0.33558  1.0000
  C   C21       1.0  0.17426  0.56578  0.34076  1.0000
  N   N12       1.0  0.18677  0.59177  0.33521  1.0000
  C   C22       1.0  0.10750  0.55180  0.32330  1.0000
  C   C23       1.0  0.09354  0.56394  0.29737  1.0000
  C   C24       1.0  0.06657  0.55028  0.29429  1.0000
  C   C25       1.0  0.05250  0.52407  0.31858  1.0000
  C   C26       1.0  0.06640  0.51192  0.34471  1.0000
  C   C27       1.0  0.09337  0.52548  0.34657  1.0000
  C   C28       1.0  0.18850  0.63251  0.32007  1.0000
  C   C29       1.0  0.17724  0.64768  0.34104  1.0000
  C   C30       1.0  0.19215  0.67469  0.34419  1.0000
  C   C31       1.0  0.21861  0.68718  0.32432  1.0000
  C   C32       1.0  0.22971  0.67223  0.29962  1.0000
  C   C33       1.0  0.21491  0.64536  0.29777  1.0000
  C   C34       1.0  0.18828  0.55281  0.35123  1.0000
  C   C35       1.0  0.21133  0.56427  0.40085  1.0000
  C   C36       1.0  0.22661  0.55274  0.40590  1.0000
  C   C37       1.0  0.21973  0.52972  0.35951  1.0000
  C   C38       1.0  0.19642  0.51796  0.31126  1.0000
  C   C39       1.0  0.18061  0.52906  0.30883  1.0000
  H   H10       1.0  0.18381  0.68509  0.36420  1.0000
  H   H11       1.0  0.15834  0.63919  0.35913  1.0000
  H   H12       1.0  0.24898  0.68070  0.28679  1.0000
  H   H13       1.0  0.22393  0.63530  0.28176  1.0000
  H   H14       1.0  0.21754  0.58145  0.43257  1.0000
  H   H15       1.0  0.24375  0.56236  0.43903  1.0000
  H   H16       1.0  0.16435  0.52053  0.27061  1.0000
  H   H17       1.0  0.19109  0.50154  0.27570  1.0000
  H   H18       1.0  0.10251  0.51580  0.36591  1.0000
  H   H19       1.0  0.05709  0.49283  0.36068  1.0000
  H   H20       1.0  0.05730  0.55989  0.27535  1.0000
  H   H21       1.0  0.10282  0.58288  0.27941  1.0000
  C   C40       1.0  0.39263  0.56868  0.32506  1.0000
  N   N13       1.0  0.40618  0.55618  0.32149  1.0000
  C   C41       1.0  0.43229  0.56875  0.32648  1.0000
  N   N14       1.0  0.44483  0.59474  0.33580  1.0000
  C   C42       1.0  0.43212  0.60801  0.34099  1.0000
  N   N15       1.0  0.40614  0.59457  0.33546  1.0000
  C   C43       1.0  0.44604  0.55520  0.32355  1.0000
  C   C44       1.0  0.43390  0.52911  0.29741  1.0000
  C   C45       1.0  0.44754  0.51579  0.29430  1.0000
  C   C46       1.0  0.47373  0.52789  0.31886  1.0000
  C   C47       1.0  0.48588  0.55393  0.34526  1.0000
  C   C48       1.0  0.47234  0.56735  0.34709  1.0000
  C   C49       1.0  0.36537  0.55559  0.32033  1.0000
  C   C50       1.0  0.35016  0.52914  0.34101  1.0000
  C   C51       1.0  0.32316  0.51707  0.34409  1.0000
  C   C52       1.0  0.31070  0.53109  0.32457  1.0000
  C   C53       1.0  0.32569  0.55718  0.30031  1.0000
  C   C54       1.0  0.35255  0.56921  0.29839  1.0000
  C   C55       1.0  0.44510  0.63501  0.35143  1.0000
  C   C56       1.0  0.43369  0.64662  0.40120  1.0000
  C   C57       1.0  0.44520  0.67343  0.40607  1.0000
  C   C58       1.0  0.46817  0.68954  0.35944  1.0000
  C   C59       1.0  0.47992  0.67799  0.31114  1.0000
  C   C60       1.0  0.46882  0.65108  0.30877  1.0000
  H   H22       1.0  0.31272  0.49829  0.36370  1.0000
  H   H23       1.0  0.35863  0.51867  0.35862  1.0000
  H   H24       1.0  0.31724  0.56801  0.28776  1.0000
  H   H25       1.0  0.36263  0.58831  0.28271  1.0000
  H   H26       1.0  0.41654  0.63565  0.43310  1.0000
  H   H27       1.0  0.43562  0.68095  0.43939  1.0000
  H   H28       1.0  0.47732  0.64334  0.27048  1.0000
  H   H29       1.0  0.49631  0.68908  0.27538  1.0000
  H   H30       1.0  0.48202  0.58616  0.36660  1.0000
  H   H31       1.0  0.50496  0.56368  0.36139  1.0000
  H   H32       1.0  0.43794  0.49693  0.27515  1.0000
  H   H33       1.0  0.41497  0.51949  0.27920  1.0000
  C   C61       1.0  0.42908  0.82346  0.32466  1.0000
  N   N16       1.0  0.44157  0.84952  0.32118  1.0000
  C   C62       1.0  0.42900  0.86304  0.32621  1.0000
  N   N17       1.0  0.40300  0.84958  0.33545  1.0000
  C   C63       1.0  0.38973  0.82359  0.34055  1.0000
  N   N18       1.0  0.40319  0.81107  0.33499  1.0000
  C   C64       1.0  0.44253  0.89034  0.32330  1.0000
  C   C65       1.0  0.46862  0.90430  0.29721  1.0000
  C   C66       1.0  0.48193  0.93127  0.29411  1.0000
  C   C67       1.0  0.46981  0.94534  0.31859  1.0000
  C   C68       1.0  0.44377  0.93144  0.34490  1.0000
  C   C69       1.0  0.43036  0.90448  0.34677  1.0000
  C   C70       1.0  0.44218  0.80930  0.31989  1.0000
  C   C71       1.0  0.46861  0.82054  0.34094  1.0000
  C   C72       1.0  0.48067  0.80559  0.34413  1.0000
  C   C73       1.0  0.46668  0.77914  0.32427  1.0000
  C   C74       1.0  0.44064  0.76807  0.29942  1.0000
  C   C75       1.0  0.42860  0.78290  0.29753  1.0000
  C   C76       1.0  0.36273  0.80958  0.35093  1.0000
  C   C77       1.0  0.35111  0.78651  0.40045  1.0000
  C   C78       1.0  0.32430  0.77125  0.40544  1.0000
  C   C79       1.0  0.30819  0.77817  0.35903  1.0000
  C   C80       1.0  0.31976  0.80150  0.31088  1.0000
  C   C81       1.0  0.34668  0.81729  0.30853  1.0000
  H   H34       1.0  0.49941  0.81391  0.36418  1.0000
  H   H35       1.0  0.47903  0.83943  0.35907  1.0000
  H   H36       1.0  0.42983  0.74881  0.28655  1.0000
  H   H37       1.0  0.40952  0.77390  0.28144  1.0000
  H   H38       1.0  0.36206  0.78028  0.43218  1.0000
  H   H39       1.0  0.31675  0.75410  0.43852  1.0000
  H   H40       1.0  0.35443  0.83356  0.27039  1.0000
  H   H41       1.0  0.30869  0.80685  0.27535  1.0000
  H   H42       1.0  0.41154  0.89533  0.36623  1.0000
  H   H43       1.0  0.43400  0.94076  0.36100  1.0000
  H   H44       1.0  0.50079  0.94054  0.27503  1.0000
  H   H45       1.0  0.47826  0.89501  0.27909  1.0000
  C   C82       1.0  0.82257  0.39166  0.32624  1.0000
  N   N19       1.0  0.84856  0.40493  0.31890  1.0000
  C   C83       1.0  0.86240  0.43107  0.32027  1.0000
  N   N20       1.0  0.84927  0.44392  0.32992  1.0000
  C   C84       1.0  0.82338  0.43155  0.33905  1.0000
  N   N21       1.0  0.81057  0.40552  0.33683  1.0000
  C   C85       1.0  0.88967  0.44454  0.31333  1.0000
  C   C86       1.0  0.90361  0.43129  0.31166  1.0000
  C   C87       1.0  0.93056  0.44463  0.30700  1.0000
  C   C88       1.0  0.94447  0.47170  0.30224  1.0000
  C   C89       1.0  0.93076  0.48508  0.30439  1.0000
  C   C90       1.0  0.90383  0.47172  0.30965  1.0000
  C   C91       1.0  0.80811  0.36438  0.32370  1.0000
  C   C92       1.0  0.81938  0.34904  0.34182  1.0000
  C   C93       1.0  0.80435  0.32205  0.34514  1.0000
  C   C94       1.0  0.77773  0.30973  0.32837  1.0000
  C   C95       1.0  0.76653  0.32483  0.30734  1.0000
  C   C96       1.0  0.78146  0.35169  0.30525  1.0000
  C   C97       1.0  0.80976  0.44492  0.35000  1.0000
  C   C98       1.0  0.78712  0.43410  0.40182  1.0000
  C   C99       1.0  0.77217  0.44598  0.40741  1.0000
  C   C100      1.0  0.77902  0.46878  0.35965  1.0000
  C   C101      1.0  0.80196  0.47996  0.30936  1.0000
  C   C102      1.0  0.81741  0.46847  0.30606  1.0000
  H   H46       1.0  0.81280  0.31151  0.36221  1.0000
  H   H47       1.0  0.83850  0.35741  0.35669  1.0000
  H   H48       1.0  0.74716  0.31647  0.29666  1.0000
  H   H49       1.0  0.77240  0.36185  0.29132  1.0000
  H   H50       1.0  0.78092  0.41708  0.43468  1.0000
  H   H51       1.0  0.75529  0.43678  0.44220  1.0000
  H   H52       1.0  0.83339  0.47658  0.26646  1.0000
  H   H53       1.0  0.80723  0.49619  0.27272  1.0000
  H   H54       1.0  0.89476  0.48225  0.31143  1.0000
  H   H55       1.0  0.94027  0.50472  0.30402  1.0000
  H   H56       1.0  0.93993  0.43436  0.30630  1.0000
  H   H57       1.0  0.89436  0.41168  0.31500  1.0000
  C   C103      1.0  0.60624  0.43050  0.32592  1.0000
  N   N22       1.0  0.59295  0.44320  0.31865  1.0000
  C   C104      1.0  0.56681  0.43089  0.32001  1.0000
  N   N23       1.0  0.55397  0.40489  0.32958  1.0000
  C   C105      1.0  0.56637  0.39139  0.33862  1.0000
  N   N24       1.0  0.59240  0.40463  0.33641  1.0000
  C   C106      1.0  0.55333  0.44466  0.31317  1.0000
  C   C107      1.0  0.56656  0.47186  0.31174  1.0000
  C   C108      1.0  0.55321  0.48545  0.30714  1.0000
  C   C109      1.0  0.52614  0.47229  0.30229  1.0000
  C   C110      1.0  0.51278  0.44519  0.30424  1.0000
  C   C111      1.0  0.52615  0.43164  0.30940  1.0000
  C   C112      1.0  0.63353  0.44335  0.32346  1.0000
  C   C113      1.0  0.64883  0.46996  0.34156  1.0000
  C   C114      1.0  0.67582  0.48194  0.34510  1.0000
  C   C115      1.0  0.68817  0.46766  0.32849  1.0000
  C   C116      1.0  0.67310  0.44136  0.30734  1.0000
  C   C117      1.0  0.64624  0.42941  0.30511  1.0000
  C   C118      1.0  0.55302  0.36439  0.34955  1.0000
  C   C119      1.0  0.56390  0.35259  0.40111  1.0000
  C   C120      1.0  0.55200  0.32576  0.40686  1.0000
  C   C121      1.0  0.52915  0.30979  0.35935  1.0000
  C   C122      1.0  0.51794  0.32155  0.30919  1.0000
  C   C123      1.0  0.52942  0.34849  0.30591  1.0000
  H   H58       1.0  0.68633  0.50091  0.36233  1.0000
  H   H59       1.0  0.64043  0.48067  0.35655  1.0000
  H   H60       1.0  0.68149  0.43037  0.29675  1.0000
  H   H61       1.0  0.63611  0.41020  0.29112  1.0000
  H   H62       1.0  0.58094  0.36341  0.43380  1.0000
  H   H63       1.0  0.56125  0.31809  0.44140  1.0000
  H   H64       1.0  0.52126  0.35634  0.26644  1.0000
  H   H65       1.0  0.50166  0.31057  0.27279  1.0000
  H   H66       1.0  0.51562  0.41203  0.31101  1.0000
  H   H67       1.0  0.49313  0.43506  0.30374  1.0000
  H   H68       1.0  0.56347  0.50510  0.30656  1.0000
  H   H69       1.0  0.58617  0.48222  0.31512  1.0000
  C   C124      1.0  0.56732  0.17525  0.32696  1.0000
  N   N25       1.0  0.55460  0.14927  0.31939  1.0000
  C   C125      1.0  0.56689  0.13542  0.32061  1.0000
  N   N26       1.0  0.59288  0.14854  0.33029  1.0000
  C   C126      1.0  0.60640  0.17442  0.33963  1.0000
  N   N27       1.0  0.59319  0.18724  0.33756  1.0000
  C   C127      1.0  0.55309  0.10816  0.31347  1.0000
  C   C128      1.0  0.52590  0.09423  0.31180  1.0000
  C   C129      1.0  0.51228  0.06728  0.30699  1.0000
  C   C130      1.0  0.52543  0.05336  0.30210  1.0000
  C   C131      1.0  0.55252  0.06706  0.30424  1.0000
  C   C132      1.0  0.56609  0.09399  0.30963  1.0000
  C   C133      1.0  0.55451  0.18972  0.32453  1.0000
  C   C134      1.0  0.52785  0.17840  0.34182  1.0000
  C   C135      1.0  0.51587  0.19342  0.34508  1.0000
  C   C136      1.0  0.53021  0.22008  0.32910  1.0000
  C   C137      1.0  0.55658  0.23134  0.30897  1.0000
  C   C138      1.0  0.56851  0.21642  0.30691  1.0000
  C   C139      1.0  0.63340  0.18805  0.35049  1.0000
  C   C140      1.0  0.64522  0.21069  0.40234  1.0000
  C   C141      1.0  0.67205  0.22565  0.40775  1.0000
  C   C142      1.0  0.68800  0.21885  0.35973  1.0000
  C   C143      1.0  0.67623  0.19590  0.30947  1.0000
  C   C144      1.0  0.64929  0.18043  0.30636  1.0000
  H   H70       1.0  0.49684  0.18493  0.36150  1.0000
  H   H71       1.0  0.51707  0.15925  0.35606  1.0000
  H   H72       1.0  0.56761  0.25073  0.29885  1.0000
  H   H73       1.0  0.58777  0.22552  0.29359  1.0000
  H   H74       1.0  0.63441  0.21686  0.43537  1.0000
  H   H75       1.0  0.67973  0.24253  0.44256  1.0000
  H   H76       1.0  0.64141  0.16445  0.26673  1.0000
  H   H77       1.0  0.68719  0.19065  0.27268  1.0000
  H   H78       1.0  0.58571  0.10305  0.31141  1.0000
  H   H79       1.0  0.56264  0.05754  0.30376  1.0000
  H   H80       1.0  0.49263  0.05792  0.30633  1.0000
  H   H81       1.0  0.51555  0.10349  0.31525  1.0000
  N   N28       1.0  0.98364  0.47890  0.36449  1.0000
  C   C145      1.0  0.00943  0.49047  0.37359  1.0000
  H   H82       1.0  0.01684  0.48500  0.42466  1.0000
  N   N29       1.0  0.51886  0.50416  0.36484  1.0000
  C   C146      1.0  0.50728  0.51837  0.37398  1.0000
  H   H83       1.0  0.51267  0.53116  0.42534  1.0000
  N   N30       1.0  0.49352  0.01420  0.36452  1.0000
  C   C147      1.0  0.47930  0.98840  0.37365  1.0000
  H   H84       1.0  0.46649  0.98100  0.42492  1.0000
  C   C148      1.0  0.28416  0.52118  0.33891  1.0000
  C   C149      1.0  0.23796  0.52141  0.35275  1.0000
  N   N31       1.0  0.25222  0.52310  0.42532  1.0000
  C   C150      1.0  0.27426  0.52195  0.42415  1.0000
  C   C151      1.0  0.28748  0.52570  0.50358  1.0000
  O   O4        1.0  0.27579  0.52214  0.57360  1.0000
  H   H85       1.0  0.30087  0.52074  0.50572  1.0000
  C   C152      1.0  0.47658  0.76250  0.33859  1.0000
  C   C153      1.0  0.47649  0.71609  0.35260  1.0000
  N   N32       1.0  0.47478  0.72869  0.42503  1.0000
  C   C154      1.0  0.47589  0.75185  0.42381  1.0000
  C   C155      1.0  0.47209  0.76132  0.50323  1.0000
  O   O5        1.0  0.47377  0.75208  0.57366  1.0000
  H   H86       1.0  0.47822  0.77996  0.50554  1.0000
  C   C156      1.0  0.23520  0.71372  0.33866  1.0000
  C   C157      1.0  0.28163  0.76000  0.35225  1.0000
  N   N33       1.0  0.26906  0.74577  0.42487  1.0000
  C   C158      1.0  0.24587  0.72375  0.42375  1.0000
  C   C159      1.0  0.23645  0.71060  0.50321  1.0000
  O   O6        1.0  0.24539  0.72144  0.57400  1.0000
  H   H87       1.0  0.21796  0.69752  0.50603  1.0000
  C   C160      1.0  0.71479  0.47776  0.34150  1.0000
  C   C161      1.0  0.76097  0.47735  0.35360  1.0000
  N   N34       1.0  0.74715  0.47622  0.42676  1.0000
  C   C162      1.0  0.72518  0.47749  0.42624  1.0000
  C   C163      1.0  0.71245  0.47444  0.50621  1.0000
  O   O7        1.0  0.72359  0.47671  0.57661  1.0000
  H   H88       1.0  0.69951  0.48005  0.50886  1.0000
  C   C164      1.0  0.52010  0.23660  0.34172  1.0000
  C   C165      1.0  0.52057  0.28317  0.35329  1.0000
  N   N35       1.0  0.52174  0.27056  0.42664  1.0000
  C   C166      1.0  0.52042  0.24730  0.42647  1.0000
  C   C167      1.0  0.52358  0.23770  0.50660  1.0000
  O   O8        1.0  0.51952  0.24576  0.57589  1.0000
  H   H89       1.0  0.51855  0.21933  0.50884  1.0000
  C   C168      1.0  0.76116  0.28311  0.34120  1.0000
  C   C169      1.0  0.71461  0.23691  0.35343  1.0000
  N   N36       1.0  0.72727  0.25083  0.42649  1.0000
  C   C170      1.0  0.75052  0.27280  0.42608  1.0000
  C   C171      1.0  0.76009  0.28566  0.50608  1.0000
  O   O9        1.0  0.75105  0.27433  0.57605  1.0000
  H   H90       1.0  0.77873  0.29824  0.50823  1.0000
