data_image0
_chemical_formula_structural       N2HN4HNC18H12NC18H12C4HC2H2OC4HC2H3OC4HC2H2ON2HN4HNC18H12NC18H12C4HC2H2OC4HC2H3OC4HC2H2ON2HN4HNC18H12NC18H12C4HC2H2OC4HC2H3OC4HC2H2ON2HN4HNC18H12NC18H12C4HC2H2OC4HC2H3OC4HC2H2O
_chemical_formula_sum              "N32 H144 C216 O12"
_cell_length_a       50.1442
_cell_length_b       50.1442
_cell_length_c       14.5663
_cell_angle_alpha    90
_cell_angle_beta     90
_cell_angle_gamma    120

_space_group_name_H-M_alt    "P 1"
_space_group_IT_number       1

loop_
  _space_group_symop_operation_xyz
  'x, y, z'

loop_
  _atom_site_type_symbol
  _atom_site_label
  _atom_site_symmetry_multiplicity
  _atom_site_fract_x
  _atom_site_fract_y
  _atom_site_fract_z
  _atom_site_occupancy
  N   N1        1.0  0.27377  0.25246  0.29717  1.0000
  N   N2        1.0  0.25838  0.26739  0.29522  1.0000
  H   H1        1.0  0.29620  0.24585  0.00077  1.0000
  N   N3        1.0  0.27004  0.02959  0.31464  1.0000
  N   N4        1.0  0.25479  0.49926  0.31255  1.0000
  N   N5        1.0  0.50412  0.25914  0.30444  1.0000
  N   N6        1.0  0.03443  0.27421  0.30178  1.0000
  H   H2        1.0  0.47598  0.25019  0.00939  1.0000
  N   N7        1.0  0.18633  0.34707  0.34519  1.0000
  C   C1        1.0  0.20240  0.33004  0.35102  1.0000
  C   C2        1.0  0.20351  0.38012  0.35384  1.0000
  C   C3        1.0  0.15328  0.33100  0.35341  1.0000
  C   C4        1.0  0.13410  0.31407  0.27913  1.0000
  C   C5        1.0  0.10155  0.29820  0.28672  1.0000
  C   C6        1.0  0.08637  0.29802  0.36932  1.0000
  C   C7        1.0  0.10598  0.31539  0.44312  1.0000
  C   C8        1.0  0.13847  0.33141  0.43549  1.0000
  C   C9        1.0  0.20367  0.31592  0.43358  1.0000
  C   C10       1.0  0.22026  0.29999  0.43955  1.0000
  C   C11       1.0  0.23635  0.29708  0.36332  1.0000
  C   C12       1.0  0.23429  0.31073  0.28013  1.0000
  C   C13       1.0  0.21800  0.32704  0.27435  1.0000
  C   C14       1.0  0.21923  0.39459  0.43557  1.0000
  C   C15       1.0  0.23613  0.42702  0.44393  1.0000
  C   C16       1.0  0.23863  0.44715  0.37118  1.0000
  C   C17       1.0  0.22236  0.43217  0.28969  1.0000
  C   C18       1.0  0.20532  0.39964  0.28115  1.0000
  H   H3        1.0  0.21992  0.28997  0.50097  1.0000
  H   H4        1.0  0.19260  0.31742  0.49061  1.0000
  H   H5        1.0  0.21761  0.33690  0.21329  1.0000
  H   H6        1.0  0.24542  0.30959  0.22270  1.0000
  H   H7        1.0  0.14390  0.31325  0.21841  1.0000
  H   H8        1.0  0.08890  0.28611  0.23090  1.0000
  H   H9        1.0  0.21825  0.38139  0.49039  1.0000
  H   H10       1.0  0.24631  0.43556  0.50587  1.0000
  H   H11       1.0  0.22289  0.44496  0.23429  1.0000
  H   H12       1.0  0.19419  0.39011  0.22080  1.0000
  H   H13       1.0  0.15145  0.34352  0.49078  1.0000
  H   H14       1.0  0.09682  0.31718  0.50386  1.0000
  N   N8        1.0  0.35316  0.18075  0.35104  1.0000
  C   C19       1.0  0.33596  0.19683  0.35529  1.0000
  C   C20       1.0  0.33738  0.14765  0.35915  1.0000
  C   C21       1.0  0.38630  0.19782  0.35888  1.0000
  C   C22       1.0  0.40132  0.21768  0.43379  1.0000
  C   C23       1.0  0.43382  0.23455  0.44063  1.0000
  C   C24       1.0  0.45331  0.23196  0.37466  1.0000
  C   C25       1.0  0.43801  0.21249  0.29864  1.0000
  C   C26       1.0  0.40546  0.19594  0.29088  1.0000
  C   C27       1.0  0.31744  0.19425  0.43183  1.0000
  C   C28       1.0  0.30111  0.21040  0.43651  1.0000
  C   C29       1.0  0.30307  0.23100  0.36654  1.0000
  C   C30       1.0  0.32113  0.23302  0.28887  1.0000
  C   C31       1.0  0.33718  0.21644  0.28348  1.0000
  C   C32       1.0  0.32879  0.13286  0.44542  1.0000
  C   C33       1.0  0.31240  0.10042  0.45311  1.0000
  C   C34       1.0  0.30506  0.08064  0.37582  1.0000
  C   C35       1.0  0.31376  0.09579  0.28933  1.0000
  C   C36       1.0  0.32932  0.12834  0.28112  1.0000
  H   H15       1.0  0.28731  0.20654  0.49231  1.0000
  H   H16       1.0  0.31563  0.18046  0.48572  1.0000
  H   H17       1.0  0.35031  0.21909  0.22677  1.0000
  H   H18       1.0  0.32339  0.24736  0.23576  1.0000
  H   H19       1.0  0.38848  0.22029  0.48376  1.0000
  H   H20       1.0  0.44313  0.24945  0.49444  1.0000
  H   H21       1.0  0.33414  0.14578  0.50393  1.0000
  H   H22       1.0  0.30532  0.09149  0.51718  1.0000
  H   H23       1.0  0.30914  0.08309  0.23047  1.0000
  H   H24       1.0  0.33506  0.13805  0.21723  1.0000
  H   H25       1.0  0.39567  0.18210  0.23498  1.0000
  H   H26       1.0  0.45058  0.20967  0.24817  1.0000
  C   C37       1.0  0.25377  0.28112  0.36963  1.0000
  C   C38       1.0  0.26782  0.27903  0.45154  1.0000
  C   C39       1.0  0.28444  0.26291  0.45495  1.0000
  C   C40       1.0  0.28727  0.24861  0.37360  1.0000
  H   H27       1.0  0.26692  0.29034  0.50889  1.0000
  C   C41       1.0  0.29975  0.26375  0.53537  1.0000
  C   C42       1.0  0.28263  0.25112  0.61984  1.0000
  H   H28       1.0  0.27739  0.26756  0.65262  1.0000
  H   H29       1.0  0.26107  0.22980  0.60662  1.0000
  O   O1        1.0  0.32548  0.28623  0.54437  1.0000
  C   C43       1.0  0.25623  0.48071  0.37861  1.0000
  C   C44       1.0  0.27649  0.49712  0.45181  1.0000
  C   C45       1.0  0.29286  0.02987  0.45594  1.0000
  C   C46       1.0  0.28947  0.04713  0.38336  1.0000
  H   H30       1.0  0.28022  0.48529  0.50242  1.0000
  C   C47       1.0  0.31336  0.04406  0.52799  1.0000
  C   C48       1.0  0.30151  0.04019  0.62097  1.0000
  H   H31       1.0  0.28065  0.54192  0.62299  1.0000
  H   H32       1.0  0.31865  0.05824  0.66512  1.0000
  H   H33       1.0  0.29624  0.51784  0.64872  1.0000
  O   O2        1.0  0.33833  0.04553  0.51915  1.0000
  C   C49       1.0  0.05296  0.28126  0.37702  1.0000
  C   C50       1.0  0.03688  0.27028  0.46103  1.0000
  C   C51       1.0  0.50412  0.25410  0.46516  1.0000
  C   C52       1.0  0.48679  0.24841  0.38242  1.0000
  H   H34       1.0  0.04911  0.27308  0.51994  1.0000
  C   C53       1.0  0.48985  0.24199  0.54880  1.0000
  C   C54       1.0  0.49428  0.26223  0.62556  1.0000
  H   H35       1.0  0.01642  0.26964  0.65885  1.0000
  H   H36       1.0  0.99348  0.28258  0.60284  1.0000
  O   O3        1.0  0.48734  0.21708  0.56813  1.0000
  N   N9        1.0  0.27376  0.75245  0.29717  1.0000
  N   N10       1.0  0.25838  0.76739  0.29522  1.0000
  H   H37       1.0  0.29620  0.74585  0.00077  1.0000
  N   N11       1.0  0.27004  0.52959  0.31464  1.0000
  N   N12       1.0  0.25479  0.99926  0.31255  1.0000
  N   N13       1.0  0.50412  0.75914  0.30444  1.0000
  N   N14       1.0  0.03443  0.77422  0.30178  1.0000
  H   H38       1.0  0.47598  0.75019  0.00939  1.0000
  N   N15       1.0  0.18633  0.84708  0.34519  1.0000
  C   C55       1.0  0.20240  0.83004  0.35102  1.0000
  C   C56       1.0  0.20351  0.88012  0.35384  1.0000
  C   C57       1.0  0.15328  0.83100  0.35341  1.0000
  C   C58       1.0  0.13410  0.81407  0.27913  1.0000
  C   C59       1.0  0.10155  0.79820  0.28672  1.0000
  C   C60       1.0  0.08637  0.79802  0.36932  1.0000
  C   C61       1.0  0.10598  0.81539  0.44312  1.0000
  C   C62       1.0  0.13847  0.83141  0.43549  1.0000
  C   C63       1.0  0.20367  0.81592  0.43358  1.0000
  C   C64       1.0  0.22026  0.79999  0.43955  1.0000
  C   C65       1.0  0.23635  0.79708  0.36332  1.0000
  C   C66       1.0  0.23429  0.81073  0.28013  1.0000
  C   C67       1.0  0.21800  0.82704  0.27435  1.0000
  C   C68       1.0  0.21923  0.89459  0.43557  1.0000
  C   C69       1.0  0.23614  0.92702  0.44393  1.0000
  C   C70       1.0  0.23863  0.94714  0.37118  1.0000
  C   C71       1.0  0.22236  0.93217  0.28969  1.0000
  C   C72       1.0  0.20532  0.89964  0.28115  1.0000
  H   H39       1.0  0.21992  0.78997  0.50097  1.0000
  H   H40       1.0  0.19260  0.81742  0.49061  1.0000
  H   H41       1.0  0.21761  0.83690  0.21329  1.0000
  H   H42       1.0  0.24541  0.80959  0.22270  1.0000
  H   H43       1.0  0.14390  0.81325  0.21841  1.0000
  H   H44       1.0  0.08890  0.78611  0.23090  1.0000
  H   H45       1.0  0.21825  0.88139  0.49039  1.0000
  H   H46       1.0  0.24631  0.93556  0.50587  1.0000
  H   H47       1.0  0.22289  0.94496  0.23429  1.0000
  H   H48       1.0  0.19419  0.89011  0.22080  1.0000
  H   H49       1.0  0.15145  0.84352  0.49078  1.0000
  H   H50       1.0  0.09682  0.81718  0.50386  1.0000
  N   N16       1.0  0.35316  0.68076  0.35104  1.0000
  C   C73       1.0  0.33596  0.69683  0.35529  1.0000
  C   C74       1.0  0.33738  0.64765  0.35915  1.0000
  C   C75       1.0  0.38630  0.69782  0.35888  1.0000
  C   C76       1.0  0.40132  0.71767  0.43379  1.0000
  C   C77       1.0  0.43382  0.73455  0.44063  1.0000
  C   C78       1.0  0.45331  0.73196  0.37466  1.0000
  C   C79       1.0  0.43801  0.71249  0.29864  1.0000
  C   C80       1.0  0.40546  0.69594  0.29088  1.0000
  C   C81       1.0  0.31744  0.69425  0.43183  1.0000
  C   C82       1.0  0.30111  0.71040  0.43651  1.0000
  C   C83       1.0  0.30307  0.73101  0.36654  1.0000
  C   C84       1.0  0.32113  0.73302  0.28887  1.0000
  C   C85       1.0  0.33718  0.71644  0.28348  1.0000
  C   C86       1.0  0.32879  0.63286  0.44542  1.0000
  C   C87       1.0  0.31240  0.60042  0.45311  1.0000
  C   C88       1.0  0.30506  0.58064  0.37582  1.0000
  C   C89       1.0  0.31376  0.59579  0.28933  1.0000
  C   C90       1.0  0.32932  0.62834  0.28112  1.0000
  H   H51       1.0  0.28731  0.70654  0.49231  1.0000
  H   H52       1.0  0.31563  0.68047  0.48572  1.0000
  H   H53       1.0  0.35031  0.71910  0.22677  1.0000
  H   H54       1.0  0.32339  0.74736  0.23576  1.0000
  H   H55       1.0  0.38848  0.72029  0.48376  1.0000
  H   H56       1.0  0.44313  0.74945  0.49444  1.0000
  H   H57       1.0  0.33414  0.64578  0.50393  1.0000
  H   H58       1.0  0.30532  0.59149  0.51718  1.0000
  H   H59       1.0  0.30914  0.58309  0.23047  1.0000
  H   H60       1.0  0.33506  0.63805  0.21723  1.0000
  H   H61       1.0  0.39567  0.68210  0.23498  1.0000
  H   H62       1.0  0.45058  0.70967  0.24817  1.0000
  C   C91       1.0  0.25377  0.78112  0.36963  1.0000
  C   C92       1.0  0.26782  0.77904  0.45154  1.0000
  C   C93       1.0  0.28444  0.76291  0.45495  1.0000
  C   C94       1.0  0.28727  0.74861  0.37360  1.0000
  H   H63       1.0  0.26692  0.79034  0.50889  1.0000
  C   C95       1.0  0.29975  0.76375  0.53537  1.0000
  C   C96       1.0  0.28262  0.75111  0.61984  1.0000
  H   H64       1.0  0.27739  0.76757  0.65262  1.0000
  H   H65       1.0  0.26107  0.72980  0.60662  1.0000
  O   O4        1.0  0.32547  0.78623  0.54437  1.0000
  C   C97       1.0  0.25623  0.98071  0.37861  1.0000
  C   C98       1.0  0.27649  0.99712  0.45181  1.0000
  C   C99       1.0  0.29285  0.52987  0.45594  1.0000
  C   C100      1.0  0.28947  0.54713  0.38336  1.0000
  H   H66       1.0  0.28022  0.98529  0.50242  1.0000
  C   C101      1.0  0.31337  0.54406  0.52799  1.0000
  C   C102      1.0  0.30151  0.54019  0.62097  1.0000
  H   H67       1.0  0.28065  0.04192  0.62299  1.0000
  H   H68       1.0  0.31864  0.55824  0.66512  1.0000
  H   H69       1.0  0.29625  0.01784  0.64872  1.0000
  O   O5        1.0  0.33833  0.54553  0.51915  1.0000
  C   C103      1.0  0.05296  0.78126  0.37702  1.0000
  C   C104      1.0  0.03688  0.77028  0.46103  1.0000
  C   C105      1.0  0.50412  0.75410  0.46516  1.0000
  C   C106      1.0  0.48679  0.74841  0.38242  1.0000
  H   H70       1.0  0.04911  0.77309  0.51994  1.0000
  C   C107      1.0  0.48985  0.74199  0.54880  1.0000
  C   C108      1.0  0.49428  0.76223  0.62556  1.0000
  H   H71       1.0  0.01642  0.76964  0.65885  1.0000
  H   H72       1.0  0.99349  0.78258  0.60284  1.0000
  O   O6        1.0  0.48734  0.71708  0.56813  1.0000
  N   N17       1.0  0.77377  0.25246  0.29717  1.0000
  N   N18       1.0  0.75838  0.26739  0.29522  1.0000
  H   H73       1.0  0.79620  0.24585  0.00077  1.0000
  N   N19       1.0  0.77004  0.02959  0.31464  1.0000
  N   N20       1.0  0.75479  0.49926  0.31255  1.0000
  N   N21       1.0  0.00412  0.25914  0.30444  1.0000
  N   N22       1.0  0.53443  0.27421  0.30178  1.0000
  H   H74       1.0  0.97598  0.25019  0.00939  1.0000
  N   N23       1.0  0.68633  0.34707  0.34519  1.0000
  C   C109      1.0  0.70240  0.33004  0.35102  1.0000
  C   C110      1.0  0.70351  0.38012  0.35384  1.0000
  C   C111      1.0  0.65328  0.33100  0.35341  1.0000
  C   C112      1.0  0.63410  0.31407  0.27913  1.0000
  C   C113      1.0  0.60155  0.29820  0.28672  1.0000
  C   C114      1.0  0.58637  0.29802  0.36932  1.0000
  C   C115      1.0  0.60598  0.31539  0.44312  1.0000
  C   C116      1.0  0.63847  0.33141  0.43549  1.0000
  C   C117      1.0  0.70367  0.31592  0.43358  1.0000
  C   C118      1.0  0.72026  0.29999  0.43955  1.0000
  C   C119      1.0  0.73635  0.29708  0.36332  1.0000
  C   C120      1.0  0.73429  0.31073  0.28013  1.0000
  C   C121      1.0  0.71801  0.32704  0.27435  1.0000
  C   C122      1.0  0.71923  0.39459  0.43557  1.0000
  C   C123      1.0  0.73613  0.42702  0.44393  1.0000
  C   C124      1.0  0.73862  0.44715  0.37118  1.0000
  C   C125      1.0  0.72236  0.43217  0.28969  1.0000
  C   C126      1.0  0.70532  0.39964  0.28115  1.0000
  H   H75       1.0  0.71992  0.28997  0.50097  1.0000
  H   H76       1.0  0.69260  0.31742  0.49061  1.0000
  H   H77       1.0  0.71761  0.33690  0.21329  1.0000
  H   H78       1.0  0.74542  0.30959  0.22270  1.0000
  H   H79       1.0  0.64390  0.31325  0.21841  1.0000
  H   H80       1.0  0.58890  0.28611  0.23090  1.0000
  H   H81       1.0  0.71825  0.38139  0.49039  1.0000
  H   H82       1.0  0.74631  0.43556  0.50587  1.0000
  H   H83       1.0  0.72289  0.44496  0.23429  1.0000
  H   H84       1.0  0.69419  0.39011  0.22080  1.0000
  H   H85       1.0  0.65145  0.34352  0.49078  1.0000
  H   H86       1.0  0.59681  0.31718  0.50386  1.0000
  N   N24       1.0  0.85316  0.18075  0.35104  1.0000
  C   C127      1.0  0.83596  0.19683  0.35529  1.0000
  C   C128      1.0  0.83738  0.14765  0.35915  1.0000
  C   C129      1.0  0.88631  0.19782  0.35888  1.0000
  C   C130      1.0  0.90132  0.21768  0.43379  1.0000
  C   C131      1.0  0.93383  0.23455  0.44063  1.0000
  C   C132      1.0  0.95331  0.23196  0.37466  1.0000
  C   C133      1.0  0.93801  0.21249  0.29864  1.0000
  C   C134      1.0  0.90546  0.19594  0.29088  1.0000
  C   C135      1.0  0.81744  0.19425  0.43183  1.0000
  C   C136      1.0  0.80111  0.21040  0.43651  1.0000
  C   C137      1.0  0.80307  0.23100  0.36654  1.0000
  C   C138      1.0  0.82113  0.23302  0.28887  1.0000
  C   C139      1.0  0.83718  0.21644  0.28348  1.0000
  C   C140      1.0  0.82879  0.13286  0.44542  1.0000
  C   C141      1.0  0.81240  0.10042  0.45311  1.0000
  C   C142      1.0  0.80506  0.08064  0.37582  1.0000
  C   C143      1.0  0.81376  0.09579  0.28933  1.0000
  C   C144      1.0  0.82932  0.12834  0.28112  1.0000
  H   H87       1.0  0.78731  0.20654  0.49231  1.0000
  H   H88       1.0  0.81563  0.18046  0.48572  1.0000
  H   H89       1.0  0.85031  0.21909  0.22677  1.0000
  H   H90       1.0  0.82339  0.24736  0.23576  1.0000
  H   H91       1.0  0.88848  0.22029  0.48376  1.0000
  H   H92       1.0  0.94313  0.24945  0.49444  1.0000
  H   H93       1.0  0.83414  0.14578  0.50393  1.0000
  H   H94       1.0  0.80532  0.09149  0.51718  1.0000
  H   H95       1.0  0.80914  0.08309  0.23047  1.0000
  H   H96       1.0  0.83506  0.13805  0.21723  1.0000
  H   H97       1.0  0.89567  0.18210  0.23498  1.0000
  H   H98       1.0  0.95058  0.20967  0.24817  1.0000
  C   C145      1.0  0.75377  0.28112  0.36963  1.0000
  C   C146      1.0  0.76782  0.27903  0.45154  1.0000
  C   C147      1.0  0.78444  0.26291  0.45495  1.0000
  C   C148      1.0  0.78727  0.24861  0.37360  1.0000
  H   H99       1.0  0.76692  0.29034  0.50889  1.0000
  C   C149      1.0  0.79975  0.26375  0.53537  1.0000
  C   C150      1.0  0.78262  0.25112  0.61984  1.0000
  H   H100      1.0  0.77739  0.26756  0.65262  1.0000
  H   H101      1.0  0.76107  0.22980  0.60662  1.0000
  O   O7        1.0  0.82548  0.28623  0.54437  1.0000
  C   C151      1.0  0.75623  0.48071  0.37861  1.0000
  C   C152      1.0  0.77649  0.49712  0.45181  1.0000
  C   C153      1.0  0.79286  0.02987  0.45594  1.0000
  C   C154      1.0  0.78947  0.04713  0.38336  1.0000
  H   H102      1.0  0.78022  0.48529  0.50242  1.0000
  C   C155      1.0  0.81337  0.04406  0.52799  1.0000
  C   C156      1.0  0.80151  0.04019  0.62097  1.0000
  H   H103      1.0  0.78065  0.54192  0.62299  1.0000
  H   H104      1.0  0.81864  0.05824  0.66512  1.0000
  H   H105      1.0  0.79625  0.51784  0.64872  1.0000
  O   O8        1.0  0.83833  0.04553  0.51915  1.0000
  C   C157      1.0  0.55296  0.28126  0.37702  1.0000
  C   C158      1.0  0.53688  0.27028  0.46103  1.0000
  C   C159      1.0  0.00412  0.25410  0.46516  1.0000
  C   C160      1.0  0.98679  0.24841  0.38242  1.0000
  H   H106      1.0  0.54911  0.27308  0.51994  1.0000
  C   C161      1.0  0.98985  0.24199  0.54880  1.0000
  C   C162      1.0  0.99428  0.26223  0.62556  1.0000
  H   H107      1.0  0.51642  0.26964  0.65885  1.0000
  H   H108      1.0  0.49348  0.28258  0.60284  1.0000
  O   O9        1.0  0.98734  0.21708  0.56813  1.0000
  N   N25       1.0  0.77376  0.75245  0.29717  1.0000
  N   N26       1.0  0.75838  0.76739  0.29522  1.0000
  H   H109      1.0  0.79620  0.74585  0.00077  1.0000
  N   N27       1.0  0.77004  0.52959  0.31464  1.0000
  N   N28       1.0  0.75479  0.99926  0.31255  1.0000
  N   N29       1.0  0.00412  0.75914  0.30444  1.0000
  N   N30       1.0  0.53443  0.77422  0.30178  1.0000
  H   H110      1.0  0.97598  0.75019  0.00939  1.0000
  N   N31       1.0  0.68633  0.84708  0.34519  1.0000
  C   C163      1.0  0.70240  0.83004  0.35102  1.0000
  C   C164      1.0  0.70351  0.88012  0.35384  1.0000
  C   C165      1.0  0.65328  0.83100  0.35341  1.0000
  C   C166      1.0  0.63410  0.81407  0.27913  1.0000
  C   C167      1.0  0.60155  0.79820  0.28672  1.0000
  C   C168      1.0  0.58637  0.79802  0.36932  1.0000
  C   C169      1.0  0.60599  0.81539  0.44312  1.0000
  C   C170      1.0  0.63847  0.83141  0.43549  1.0000
  C   C171      1.0  0.70367  0.81592  0.43358  1.0000
  C   C172      1.0  0.72026  0.79999  0.43955  1.0000
  C   C173      1.0  0.73635  0.79708  0.36332  1.0000
  C   C174      1.0  0.73429  0.81073  0.28013  1.0000
  C   C175      1.0  0.71801  0.82704  0.27435  1.0000
  C   C176      1.0  0.71923  0.89459  0.43557  1.0000
  C   C177      1.0  0.73614  0.92702  0.44393  1.0000
  C   C178      1.0  0.73863  0.94714  0.37118  1.0000
  C   C179      1.0  0.72236  0.93217  0.28969  1.0000
  C   C180      1.0  0.70532  0.89964  0.28115  1.0000
  H   H111      1.0  0.71992  0.78997  0.50097  1.0000
  H   H112      1.0  0.69260  0.81742  0.49061  1.0000
  H   H113      1.0  0.71761  0.83690  0.21329  1.0000
  H   H114      1.0  0.74542  0.80959  0.22270  1.0000
  H   H115      1.0  0.64390  0.81325  0.21841  1.0000
  H   H116      1.0  0.58890  0.78611  0.23090  1.0000
  H   H117      1.0  0.71825  0.88139  0.49039  1.0000
  H   H118      1.0  0.74631  0.93556  0.50587  1.0000
  H   H119      1.0  0.72289  0.94496  0.23429  1.0000
  H   H120      1.0  0.69419  0.89011  0.22080  1.0000
  H   H121      1.0  0.65145  0.84352  0.49078  1.0000
  H   H122      1.0  0.59682  0.81718  0.50386  1.0000
  N   N32       1.0  0.85316  0.68076  0.35104  1.0000
  C   C181      1.0  0.83596  0.69683  0.35529  1.0000
  C   C182      1.0  0.83738  0.64765  0.35915  1.0000
  C   C183      1.0  0.88630  0.69782  0.35888  1.0000
  C   C184      1.0  0.90132  0.71767  0.43379  1.0000
  C   C185      1.0  0.93383  0.73455  0.44063  1.0000
  C   C186      1.0  0.95331  0.73196  0.37466  1.0000
  C   C187      1.0  0.93801  0.71249  0.29864  1.0000
  C   C188      1.0  0.90547  0.69594  0.29088  1.0000
  C   C189      1.0  0.81744  0.69425  0.43183  1.0000
  C   C190      1.0  0.80111  0.71040  0.43651  1.0000
  C   C191      1.0  0.80307  0.73101  0.36654  1.0000
  C   C192      1.0  0.82113  0.73302  0.28887  1.0000
  C   C193      1.0  0.83718  0.71644  0.28348  1.0000
  C   C194      1.0  0.82879  0.63286  0.44542  1.0000
  C   C195      1.0  0.81240  0.60042  0.45311  1.0000
  C   C196      1.0  0.80505  0.58064  0.37582  1.0000
  C   C197      1.0  0.81376  0.59579  0.28933  1.0000
  C   C198      1.0  0.82932  0.62834  0.28112  1.0000
  H   H123      1.0  0.78731  0.70654  0.49231  1.0000
  H   H124      1.0  0.81563  0.68047  0.48572  1.0000
  H   H125      1.0  0.85031  0.71910  0.22677  1.0000
  H   H126      1.0  0.82339  0.74736  0.23576  1.0000
  H   H127      1.0  0.88848  0.72029  0.48376  1.0000
  H   H128      1.0  0.94313  0.74945  0.49444  1.0000
  H   H129      1.0  0.83414  0.64578  0.50393  1.0000
  H   H130      1.0  0.80532  0.59149  0.51718  1.0000
  H   H131      1.0  0.80914  0.58309  0.23047  1.0000
  H   H132      1.0  0.83506  0.63805  0.21723  1.0000
  H   H133      1.0  0.89567  0.68210  0.23498  1.0000
  H   H134      1.0  0.95058  0.70967  0.24817  1.0000
  C   C199      1.0  0.75377  0.78112  0.36963  1.0000
  C   C200      1.0  0.76782  0.77904  0.45154  1.0000
  C   C201      1.0  0.78444  0.76291  0.45495  1.0000
  C   C202      1.0  0.78727  0.74861  0.37360  1.0000
  H   H135      1.0  0.76692  0.79034  0.50889  1.0000
  C   C203      1.0  0.79975  0.76375  0.53537  1.0000
  C   C204      1.0  0.78262  0.75111  0.61984  1.0000
  H   H136      1.0  0.77739  0.76757  0.65262  1.0000
  H   H137      1.0  0.76107  0.72980  0.60662  1.0000
  O   O10       1.0  0.82547  0.78623  0.54437  1.0000
  C   C205      1.0  0.75623  0.98071  0.37861  1.0000
  C   C206      1.0  0.77649  0.99712  0.45181  1.0000
  C   C207      1.0  0.79285  0.52987  0.45594  1.0000
  C   C208      1.0  0.78947  0.54713  0.38336  1.0000
  H   H138      1.0  0.78022  0.98529  0.50242  1.0000
  C   C209      1.0  0.81337  0.54406  0.52799  1.0000
  C   C210      1.0  0.80151  0.54019  0.62097  1.0000
  H   H139      1.0  0.78065  0.04192  0.62299  1.0000
  H   H140      1.0  0.81865  0.55824  0.66512  1.0000
  H   H141      1.0  0.79625  0.01784  0.64872  1.0000
  O   O11       1.0  0.83833  0.54553  0.51915  1.0000
  C   C211      1.0  0.55296  0.78126  0.37702  1.0000
  C   C212      1.0  0.53688  0.77028  0.46103  1.0000
  C   C213      1.0  0.00412  0.75410  0.46516  1.0000
  C   C214      1.0  0.98679  0.74841  0.38242  1.0000
  H   H142      1.0  0.54911  0.77309  0.51994  1.0000
  C   C215      1.0  0.98985  0.74199  0.54880  1.0000
  C   C216      1.0  0.99428  0.76223  0.62556  1.0000
  H   H143      1.0  0.51642  0.76964  0.65885  1.0000
  H   H144      1.0  0.49348  0.78258  0.60284  1.0000
  O   O12       1.0  0.98734  0.71708  0.56813  1.0000
