data_image0
_chemical_formula_structural       C3OHCHC2HC3H2C2HCHCHC2HC2HCHCH2CHC3OHC6O2H2C6O2H2C3HC6H4C2HC6H4C6H4C6H4C3H2C3H2C3H2C3H2C3H2C2HC2H2C4H2C3H2C2H2C4H2C2H2C4H2C2H2C4H2
_chemical_formula_sum              "C108 O6 H66"
_cell_length_a       31.7078
_cell_length_b       31.7078
_cell_length_c       14.7453
_cell_angle_alpha    90
_cell_angle_beta     90
_cell_angle_gamma    120

_space_group_name_H-M_alt    "P 1"
_space_group_IT_number       1

loop_
  _space_group_symop_operation_xyz
  'x, y, z'

loop_
  _atom_site_type_symbol
  _atom_site_label
  _atom_site_symmetry_multiplicity
  _atom_site_fract_x
  _atom_site_fract_y
  _atom_site_fract_z
  _atom_site_occupancy
  C   C1        1.0  0.03969  0.52260  0.34788  1.0000
  C   C2        1.0  0.06736  0.57387  0.32862  1.0000
  C   C3        1.0  0.11895  0.60055  0.33552  1.0000
  O   O1        1.0  0.04629  0.59954  0.29807  1.0000
  H   H1        1.0  0.03844  0.59083  0.23380  1.0000
  C   C4        1.0  0.15251  0.47827  0.29790  1.0000
  H   H2        1.0  0.13047  0.47178  0.24276  1.0000
  C   C5        1.0  0.14780  0.65230  0.32975  1.0000
  C   C6        1.0  0.18157  0.67410  0.25814  1.0000
  H   H3        1.0  0.18017  0.65379  0.20308  1.0000
  C   C7        1.0  0.14396  0.57531  0.35414  1.0000
  C   C8        1.0  0.11898  0.52478  0.36910  1.0000
  C   C9        1.0  0.06751  0.49971  0.36925  1.0000
  H   H4        1.0  0.18134  0.59412  0.35599  1.0000
  H   H5        1.0  0.05057  0.46397  0.38769  1.0000
  C   C10       1.0  0.14724  0.50133  0.37569  1.0000
  C   C11       1.0  0.18127  0.51338  0.44684  1.0000
  H   H6        1.0  0.18027  0.53264  0.50166  1.0000
  C   C12       1.0  0.15367  0.68055  0.40790  1.0000
  H   H7        1.0  0.13169  0.66504  0.46310  1.0000
  C   C13       1.0  0.19176  0.46941  0.29011  1.0000
  H   H8        1.0  0.19590  0.45535  0.23052  1.0000
  C   C14       1.0  0.22084  0.72215  0.26566  1.0000
  C   C15       1.0  0.22841  0.74982  0.34573  1.0000
  H   H9        1.0  0.24641  0.73492  0.21523  1.0000
  C   C16       1.0  0.22711  0.48322  0.35963  1.0000
  C   C17       1.0  0.22015  0.50402  0.43931  1.0000
  H   H10       1.0  0.24584  0.51674  0.48952  1.0000
  C   C18       1.0  0.19328  0.72844  0.41565  1.0000
  H   H11       1.0  0.19778  0.74662  0.47537  1.0000
  C   C19       1.0  0.27176  0.48285  0.34573  1.0000
  H   H12       1.0  0.27675  0.82567  0.23052  1.0000
  H   H13       1.0  0.27497  0.45544  0.47540  1.0000
  C   C20       1.0  0.27342  0.79447  0.35962  1.0000
  H   H14       1.0  0.28664  0.51574  0.21521  1.0000
  C   C21       1.0  0.98623  0.49466  0.34789  1.0000
  C   C22       1.0  0.90699  0.41670  0.33548  1.0000
  C   C23       1.0  0.95858  0.44339  0.32853  1.0000
  O   O2        1.0  0.97966  0.41776  0.29788  1.0000
  H   H15       1.0  0.98750  0.42649  0.23362  1.0000
  C   C24       1.0  0.52692  0.49588  0.34786  1.0000
  C   C25       1.0  0.60488  0.49460  0.33547  1.0000
  C   C26       1.0  0.57818  0.51949  0.32849  1.0000
  C   C27       1.0  0.49898  0.52140  0.34790  1.0000
  C   C28       1.0  0.44770  0.49779  0.32865  1.0000
  C   C29       1.0  0.42101  0.52268  0.33561  1.0000
  O   O3        1.0  0.60384  0.56623  0.29793  1.0000
  O   O4        1.0  0.42204  0.45105  0.29808  1.0000
  H   H16       1.0  0.59512  0.56537  0.23368  1.0000
  H   H17       1.0  0.43073  0.45191  0.23381  1.0000
  C   C30       1.0  0.52572  0.03538  0.34794  1.0000
  C   C31       1.0  0.52701  0.11464  0.33576  1.0000
  C   C32       1.0  0.50211  0.06305  0.32874  1.0000
  C   C33       1.0  0.50020  0.98192  0.34787  1.0000
  C   C34       1.0  0.52380  0.95426  0.32847  1.0000
  C   C35       1.0  0.49891  0.90267  0.33533  1.0000
  O   O5        1.0  0.45537  0.04198  0.29819  1.0000
  O   O6        1.0  0.57053  0.97535  0.29783  1.0000
  H   H18       1.0  0.45623  0.03416  0.23389  1.0000
  H   H19       1.0  0.56964  0.98323  0.23359  1.0000
  C   C36       1.0  0.36925  0.49978  0.32974  1.0000
  C   C37       1.0  0.34747  0.51172  0.25809  1.0000
  C   C38       1.0  0.29942  0.50294  0.26564  1.0000
  H   H20       1.0  0.36778  0.53063  0.20304  1.0000
  C   C39       1.0  0.52180  0.87383  0.32933  1.0000
  C   C40       1.0  0.50999  0.84013  0.25769  1.0000
  C   C41       1.0  0.51880  0.80088  0.26526  1.0000
  C   C42       1.0  0.53869  0.79321  0.34552  1.0000
  C   C43       1.0  0.55231  0.72673  0.29009  1.0000
  C   C44       1.0  0.54356  0.67867  0.29795  1.0000
  H   H21       1.0  0.56657  0.74501  0.23067  1.0000
  H   H22       1.0  0.55012  0.66313  0.24289  1.0000
  H   H23       1.0  0.49116  0.84155  0.20254  1.0000
  H   H24       1.0  0.50609  0.77531  0.21482  1.0000
  C   C45       1.0  0.29496  0.82982  0.29009  1.0000
  C   C46       1.0  0.34306  0.86907  0.29787  1.0000
  H   H25       1.0  0.35860  0.89111  0.24274  1.0000
  C   C47       1.0  0.65662  0.51750  0.32948  1.0000
  C   C48       1.0  0.67851  0.50567  0.25787  1.0000
  C   C49       1.0  0.72657  0.51447  0.26538  1.0000
  C   C50       1.0  0.75415  0.53438  0.34560  1.0000
  C   C51       1.0  0.83423  0.54795  0.29015  1.0000
  C   C52       1.0  0.87354  0.53920  0.29802  1.0000
  H   H26       1.0  0.83020  0.56220  0.23071  1.0000
  H   H27       1.0  0.89563  0.54574  0.24295  1.0000
  H   H28       1.0  0.65824  0.48682  0.20273  1.0000
  H   H29       1.0  0.73939  0.50172  0.21495  1.0000
  C   C53       1.0  0.50410  0.14348  0.32993  1.0000
  C   C54       1.0  0.51605  0.17722  0.25827  1.0000
  C   C55       1.0  0.50728  0.21649  0.26575  1.0000
  C   C56       1.0  0.48719  0.22409  0.34580  1.0000
  C   C57       1.0  0.47372  0.29062  0.29009  1.0000
  C   C58       1.0  0.48258  0.33872  0.29779  1.0000
  H   H30       1.0  0.45965  0.27239  0.23054  1.0000
  H   H31       1.0  0.47608  0.35425  0.24264  1.0000
  H   H32       1.0  0.53496  0.17580  0.20322  1.0000
  H   H33       1.0  0.52008  0.24205  0.21528  1.0000
  C   C59       1.0  0.87815  0.36496  0.32942  1.0000
  C   C60       1.0  0.84443  0.34308  0.25779  1.0000
  C   C61       1.0  0.80519  0.29503  0.26535  1.0000
  C   C62       1.0  0.79753  0.26745  0.34558  1.0000
  C   C63       1.0  0.73102  0.18737  0.29015  1.0000
  C   C64       1.0  0.68295  0.14806  0.29804  1.0000
  H   H34       1.0  0.74928  0.19140  0.23069  1.0000
  H   H35       1.0  0.66739  0.12597  0.24298  1.0000
  H   H36       1.0  0.84585  0.36336  0.20267  1.0000
  H   H37       1.0  0.77961  0.28219  0.21492  1.0000
  C   C65       1.0  0.95841  0.51752  0.36931  1.0000
  C   C66       1.0  0.90694  0.49244  0.36918  1.0000
  C   C67       1.0  0.88197  0.44192  0.35411  1.0000
  H   H38       1.0  0.97533  0.55327  0.38769  1.0000
  H   H39       1.0  0.84459  0.42311  0.35582  1.0000
  C   C68       1.0  0.50405  0.44518  0.36923  1.0000
  C   C69       1.0  0.52912  0.41879  0.36896  1.0000
  C   C70       1.0  0.57965  0.44435  0.35401  1.0000
  H   H40       1.0  0.46831  0.42636  0.38771  1.0000
  H   H41       1.0  0.59847  0.42578  0.35578  1.0000
  C   C71       1.0  0.44624  0.57294  0.35414  1.0000
  C   C72       1.0  0.49678  0.59850  0.36904  1.0000
  C   C73       1.0  0.52185  0.57210  0.36925  1.0000
  H   H42       1.0  0.42743  0.59150  0.35592  1.0000
  H   H43       1.0  0.55761  0.59093  0.38760  1.0000
  C   C74       1.0  0.57642  0.06320  0.36931  1.0000
  C   C75       1.0  0.60281  0.11467  0.36928  1.0000
  C   C76       1.0  0.57725  0.13964  0.35435  1.0000
  H   H44       1.0  0.59525  0.04626  0.38760  1.0000
  H   H45       1.0  0.59582  0.17702  0.35616  1.0000
  C   C77       1.0  0.44866  0.87765  0.35397  1.0000
  C   C78       1.0  0.42311  0.90262  0.36905  1.0000
  C   C79       1.0  0.44951  0.95409  0.36928  1.0000
  H   H46       1.0  0.43010  0.84027  0.35574  1.0000
  H   H47       1.0  0.43070  0.97101  0.38779  1.0000
  C   C80       1.0  0.29315  0.46912  0.41567  1.0000
  C   C81       1.0  0.34104  0.47741  0.40793  1.0000
  H   H48       1.0  0.35657  0.47095  0.46313  1.0000
  C   C82       1.0  0.55224  0.82826  0.41556  1.0000
  C   C83       1.0  0.54404  0.86791  0.40768  1.0000
  H   H49       1.0  0.56577  0.82369  0.47542  1.0000
  H   H50       1.0  0.55028  0.88974  0.46304  1.0000
  C   C84       1.0  0.53835  0.74821  0.35947  1.0000
  C   C85       1.0  0.52024  0.65022  0.37548  1.0000
  C   C86       1.0  0.50810  0.67217  0.44658  1.0000
  C   C87       1.0  0.51743  0.72040  0.43906  1.0000
  H   H51       1.0  0.48856  0.65182  0.50110  1.0000
  H   H52       1.0  0.50444  0.73324  0.48904  1.0000
  C   C88       1.0  0.37140  0.87435  0.37565  1.0000
  C   C89       1.0  0.34943  0.84032  0.44680  1.0000
  C   C90       1.0  0.30120  0.80144  0.43929  1.0000
  H   H53       1.0  0.36970  0.84132  0.50162  1.0000
  H   H54       1.0  0.28822  0.77574  0.48951  1.0000
  C   C91       1.0  0.73269  0.54797  0.41563  1.0000
  C   C92       1.0  0.68483  0.53977  0.40777  1.0000
  H   H55       1.0  0.75079  0.56152  0.47546  1.0000
  H   H56       1.0  0.66927  0.54604  0.46313  1.0000
  C   C93       1.0  0.79880  0.53402  0.35954  1.0000
  C   C94       1.0  0.87867  0.51589  0.37556  1.0000
  C   C95       1.0  0.84458  0.50377  0.44667  1.0000
  C   C96       1.0  0.80569  0.51311  0.43915  1.0000
  H   H57       1.0  0.84539  0.48424  0.50121  1.0000
  H   H58       1.0  0.77987  0.50014  0.48913  1.0000
  C   C97       1.0  0.47345  0.18899  0.41577  1.0000
  C   C98       1.0  0.48173  0.14938  0.40807  1.0000
  H   H59       1.0  0.45977  0.19350  0.47548  1.0000
  H   H60       1.0  0.47527  0.12741  0.46330  1.0000
  C   C99       1.0  0.48756  0.26910  0.35964  1.0000
  C   C100      1.0  0.50567  0.36707  0.37553  1.0000
  C   C101      1.0  0.51774  0.34515  0.44675  1.0000
  C   C102      1.0  0.50839  0.29691  0.43928  1.0000
  H   H61       1.0  0.53701  0.36544  0.50155  1.0000
  H   H62       1.0  0.52111  0.28395  0.48951  1.0000
  C   C103      1.0  0.83259  0.28893  0.41559  1.0000
  C   C104      1.0  0.87225  0.33679  0.40773  1.0000
  H   H63       1.0  0.82803  0.27082  0.47543  1.0000
  H   H64       1.0  0.89408  0.35236  0.46308  1.0000
  C   C105      1.0  0.75253  0.22280  0.35953  1.0000
  C   C106      1.0  0.65453  0.14293  0.37561  1.0000
  C   C107      1.0  0.67651  0.17701  0.44671  1.0000
  C   C108      1.0  0.72474  0.21591  0.43917  1.0000
  H   H65       1.0  0.65618  0.17620  0.50129  1.0000
  H   H66       1.0  0.73760  0.24172  0.48915  1.0000
