data_image0
_chemical_formula_structural       C3NC3NC5NC4NC35H25C8H3NO2C8H3NO2C18H17C2HC2H2NO2C2HC2H2NO2
_chemical_formula_sum              "C92 N8 H54 O8"
_cell_length_a       34.2504
_cell_length_b       34.2502
_cell_length_c       14.8631
_cell_angle_alpha    90
_cell_angle_beta     90
_cell_angle_gamma    90.0626

_space_group_name_H-M_alt    "P 1"
_space_group_IT_number       1

loop_
  _space_group_symop_operation_xyz
  'x, y, z'

loop_
  _atom_site_type_symbol
  _atom_site_label
  _atom_site_symmetry_multiplicity
  _atom_site_fract_x
  _atom_site_fract_y
  _atom_site_fract_z
  _atom_site_occupancy
  C   C1        1.0  0.10836  0.07754  0.34288  1.0000
  C   C2        1.0  0.07987  0.10602  0.34262  1.0000
  C   C3        1.0  0.04341  0.08767  0.34138  1.0000
  N   N1        1.0  0.05122  0.04883  0.34022  1.0000
  C   C4        1.0  0.09006  0.04104  0.34087  1.0000
  C   C5        1.0  0.10983  0.00445  0.34050  1.0000
  C   C6        1.0  0.09093  0.96747  0.34051  1.0000
  N   N2        1.0  0.05216  0.95989  0.34064  1.0000
  C   C7        1.0  0.04454  0.92113  0.34067  1.0000
  C   C8        1.0  0.08087  0.90263  0.34102  1.0000
  C   C9        1.0  0.10939  0.93112  0.34003  1.0000
  C   C10       1.0  0.00753  0.90226  0.34064  1.0000
  C   C11       1.0  0.97097  0.92208  0.34060  1.0000
  N   N3        1.0  0.96322  0.96092  0.34176  1.0000
  C   C12       1.0  0.92439  0.96877  0.34068  1.0000
  C   C13       1.0  0.90600  0.93234  0.33908  1.0000
  C   C14       1.0  0.93445  0.90382  0.33842  1.0000
  C   C15       1.0  0.90467  0.00536  0.34119  1.0000
  N   N4        1.0  0.96225  0.04989  0.34128  1.0000
  C   C16       1.0  0.96983  0.08864  0.34110  1.0000
  C   C17       1.0  0.93353  0.10718  0.34143  1.0000
  C   C18       1.0  0.90499  0.07868  0.34135  1.0000
  C   C19       1.0  0.00684  0.10742  0.34120  1.0000
  C   C20       1.0  0.00719  0.14911  0.34124  1.0000
  C   C21       1.0  0.00282  0.17012  0.26016  1.0000
  C   C22       1.0  0.00294  0.21123  0.26033  1.0000
  C   C23       1.0  0.00745  0.23274  0.34123  1.0000
  C   C24       1.0  0.00751  0.27468  0.34122  1.0000
  C   C25       1.0  0.98191  0.33735  0.28528  1.0000
  C   C26       1.0  0.98177  0.29623  0.28555  1.0000
  C   C27       1.0  0.86298  0.00506  0.34087  1.0000
  C   C28       1.0  0.84209  0.00040  0.25969  1.0000
  C   C29       1.0  0.80097  0.00035  0.25954  1.0000
  C   C30       1.0  0.77934  0.00504  0.34020  1.0000
  C   C31       1.0  0.73740  0.00516  0.33985  1.0000
  C   C32       1.0  0.71583  0.97931  0.28438  1.0000
  C   C33       1.0  0.67470  0.97952  0.28381  1.0000
  C   C34       1.0  0.65327  0.00545  0.33912  1.0000
  C   C35       1.0  0.00716  0.86051  0.34026  1.0000
  C   C36       1.0  0.00701  0.77700  0.34001  1.0000
  C   C37       1.0  0.01647  0.79838  0.26138  1.0000
  C   C38       1.0  0.01625  0.83949  0.26121  1.0000
  C   C39       1.0  0.00714  0.73523  0.34002  1.0000
  C   C40       1.0  0.03849  0.71401  0.30187  1.0000
  C   C41       1.0  0.03881  0.67290  0.30260  1.0000
  C   C42       1.0  0.00754  0.65138  0.34039  1.0000
  C   C43       1.0  0.15157  0.00479  0.34027  1.0000
  C   C44       1.0  0.17245  0.01387  0.26099  1.0000
  C   C45       1.0  0.21357  0.01429  0.26085  1.0000
  C   C46       1.0  0.23509  0.00509  0.33942  1.0000
  C   C47       1.0  0.27686  0.00521  0.33898  1.0000
  C   C48       1.0  0.36071  0.00557  0.33849  1.0000
  C   C49       1.0  0.33921  0.03671  0.30031  1.0000
  C   C50       1.0  0.29809  0.03640  0.29996  1.0000
  H   H1        1.0  0.35336  0.05977  0.27104  1.0000
  H   H2        1.0  0.28376  0.05969  0.27230  1.0000
  H   H3        1.0  0.22768  0.02058  0.20193  1.0000
  H   H4        1.0  0.15784  0.02026  0.20277  1.0000
  H   H5        1.0  0.13765  0.08315  0.34458  1.0000
  H   H6        1.0  0.08543  0.13533  0.34380  1.0000
  H   H7        1.0  0.03141  0.02903  0.33836  1.0000
  H   H8        1.0  0.98304  0.98071  0.34386  1.0000
  H   H9        1.0  0.13871  0.92566  0.33950  1.0000
  H   H10       1.0  0.08631  0.87331  0.34153  1.0000
  H   H11       1.0  0.02296  0.85401  0.20303  1.0000
  H   H12       1.0  0.02290  0.78416  0.20268  1.0000
  H   H13       1.0  0.92880  0.87454  0.33636  1.0000
  H   H14       1.0  0.87668  0.92681  0.33786  1.0000
  H   H15       1.0  0.87566  0.08407  0.34116  1.0000
  H   H16       1.0  0.85669  0.99724  0.20005  1.0000
  H   H17       1.0  0.78697  0.99770  0.19907  1.0000
  H   H18       1.0  0.66050  0.95980  0.24375  1.0000
  H   H19       1.0  0.72988  0.95934  0.24481  1.0000
  H   H20       1.0  0.96189  0.28216  0.24569  1.0000
  H   H21       1.0  0.96226  0.35152  0.24505  1.0000
  H   H22       1.0  0.00039  0.22532  0.19996  1.0000
  H   H23       1.0  0.99963  0.15561  0.20039  1.0000
  H   H24       1.0  0.06185  0.72836  0.27446  1.0000
  H   H25       1.0  0.06197  0.65876  0.27386  1.0000
  C   C51       1.0  0.00785  0.60962  0.34092  1.0000
  C   C52       1.0  0.97488  0.58792  0.31285  1.0000
  C   C53       1.0  0.97542  0.54685  0.31242  1.0000
  C   C54       1.0  0.00879  0.52602  0.34111  1.0000
  C   C55       1.0  0.00830  0.48435  0.33915  1.0000
  C   C56       1.0  0.00683  0.46326  0.25697  1.0000
  C   C57       1.0  0.00651  0.42187  0.25885  1.0000
  C   C58       1.0  0.00787  0.40065  0.34055  1.0000
  H   H26       1.0  0.00622  0.40714  0.19895  1.0000
  H   H27       1.0  0.95032  0.60188  0.29054  1.0000
  H   H28       1.0  0.95103  0.53220  0.29120  1.0000
  N   N5        1.0  0.00677  0.48390  0.17438  1.0000
  O   O1        1.0  0.97675  0.47641  0.12891  1.0000
  O   O2        1.0  0.03639  0.47591  0.12802  1.0000
  C   C59       1.0  0.40246  0.00587  0.33873  1.0000
  C   C60       1.0  0.42406  0.97285  0.31091  1.0000
  C   C61       1.0  0.46513  0.97337  0.31035  1.0000
  C   C62       1.0  0.48607  0.00677  0.33869  1.0000
  C   C63       1.0  0.52774  0.00623  0.33683  1.0000
  C   C64       1.0  0.54886  0.00457  0.25473  1.0000
  C   C65       1.0  0.59026  0.00419  0.25673  1.0000
  C   C66       1.0  0.61143  0.00567  0.33848  1.0000
  H   H29       1.0  0.60503  0.00377  0.19689  1.0000
  H   H30       1.0  0.41002  0.94825  0.28893  1.0000
  H   H31       1.0  0.47970  0.94892  0.28937  1.0000
  N   N6        1.0  0.52827  0.00440  0.17208  1.0000
  O   O3        1.0  0.53567  0.97429  0.12692  1.0000
  O   O4        1.0  0.53639  0.03392  0.12547  1.0000
  C   C67       1.0  0.92349  0.04235  0.34153  1.0000
  C   C68       1.0  0.01188  0.21122  0.42212  1.0000
  C   C69       1.0  0.01171  0.17010  0.42231  1.0000
  C   C70       1.0  0.03332  0.29624  0.39683  1.0000
  C   C71       1.0  0.03335  0.33736  0.39692  1.0000
  C   C72       1.0  0.00768  0.35881  0.34102  1.0000
  C   C73       1.0  0.80074  0.00968  0.42121  1.0000
  C   C74       1.0  0.84185  0.00968  0.42172  1.0000
  C   C75       1.0  0.67474  0.03122  0.39481  1.0000
  C   C76       1.0  0.71587  0.03114  0.39497  1.0000
  C   C77       1.0  0.99790  0.83942  0.41914  1.0000
  C   C78       1.0  0.99753  0.79830  0.41873  1.0000
  C   C79       1.0  0.97605  0.67258  0.37793  1.0000
  C   C80       1.0  0.97599  0.71370  0.37834  1.0000
  C   C81       1.0  0.17280  0.99591  0.41916  1.0000
  C   C82       1.0  0.21391  0.99579  0.41846  1.0000
  C   C83       1.0  0.29838  0.97418  0.37763  1.0000
  C   C84       1.0  0.33950  0.97421  0.37679  1.0000
  H   H32       1.0  0.35387  0.95132  0.40609  1.0000
  H   H33       1.0  0.28425  0.95081  0.40561  1.0000
  H   H34       1.0  0.22829  0.98957  0.47707  1.0000
  H   H35       1.0  0.15844  0.98935  0.47762  1.0000
  H   H36       1.0  0.99136  0.85388  0.47748  1.0000
  H   H37       1.0  0.99115  0.78403  0.47739  1.0000
  H   H38       1.0  0.92818  0.13653  0.34159  1.0000
  H   H39       1.0  0.85627  0.01298  0.48156  1.0000
  H   H40       1.0  0.78656  0.01242  0.48143  1.0000
  H   H41       1.0  0.72996  0.05107  0.43466  1.0000
  H   H42       1.0  0.66058  0.05108  0.43451  1.0000
  H   H43       1.0  0.01471  0.15558  0.48210  1.0000
  H   H44       1.0  0.01443  0.22531  0.48250  1.0000
  H   H45       1.0  0.05308  0.35154  0.43700  1.0000
  H   H46       1.0  0.05315  0.28216  0.43676  1.0000
  H   H47       1.0  0.95251  0.72783  0.40570  1.0000
  H   H48       1.0  0.95305  0.65821  0.40688  1.0000
  C   C85       1.0  0.04207  0.54726  0.37037  1.0000
  C   C86       1.0  0.04121  0.58865  0.36941  1.0000
  H   H49       1.0  0.06533  0.60357  0.39121  1.0000
  C   C87       1.0  0.00959  0.42227  0.42158  1.0000
  C   C88       1.0  0.00970  0.46334  0.42095  1.0000
  H   H50       1.0  0.00998  0.40825  0.48236  1.0000
  H   H51       1.0  0.01052  0.47786  0.48114  1.0000
  N   N7        1.0  0.07584  0.52679  0.39842  1.0000
  O   O5        1.0  0.08428  0.53449  0.47878  1.0000
  O   O6        1.0  0.10474  0.53476  0.34966  1.0000
  C   C89       1.0  0.46493  0.04011  0.36769  1.0000
  C   C90       1.0  0.42353  0.03928  0.36682  1.0000
  H   H52       1.0  0.40869  0.06344  0.38846  1.0000
  C   C91       1.0  0.58978  0.00757  0.41943  1.0000
  C   C92       1.0  0.54870  0.00774  0.41868  1.0000
  H   H53       1.0  0.60376  0.00805  0.48025  1.0000
  H   H54       1.0  0.53415  0.00869  0.47881  1.0000
  N   N8        1.0  0.48550  0.07392  0.39543  1.0000
  O   O7        1.0  0.47786  0.08248  0.47575  1.0000
  O   O8        1.0  0.47759  0.10275  0.34646  1.0000
