data_image0
_chemical_formula_structural       C3OHCNC3HC5OHCNC3HC2NCNC2NHCNC2NCNC2N2CNC2NHCNC2NCNC2NC3OHC3OHNC2NCHC2HC3H2NC2NC2NC4OHC3OHNC2NCHC2HC3H2NC2NC2NC4OHC3OHC3OHNC2N2C2N2C2NC3H2C2HCHC3H2C4NC2NCNC2NC2NC3OHC3OHC3OHNC2N2C2N2C2NC3H2C2HCHC3H2C4NC2NCNC2NC2NC6O2H2C6O2H2C6O2H2NC2N2C2N2C2N2C2N2C2N2C2NC3H2C3H2C3H2C3H2C3H2C3H2C2NC2NC2NC2NC2NC2NC2NC2NC2NC2NC2NC2NC6O2H2C6O2H2C6O2H2NC2N2C2N2C2N2C2N2C2N2C2NC3H2C3H2C3H2C3H2C3H2C3H2C2NC2NC2NC2NC2NC2NC2NC2NC2NC2NC2NC2N
_chemical_formula_sum              "C288 O24 H72 N96"
_cell_length_a       46.3235
_cell_length_b       46.3235
_cell_length_c       14.8384
_cell_angle_alpha    90
_cell_angle_beta     90
_cell_angle_gamma    120

_space_group_name_H-M_alt    "P 1"
_space_group_IT_number       1

loop_
  _space_group_symop_operation_xyz
  'x, y, z'

loop_
  _atom_site_type_symbol
  _atom_site_label
  _atom_site_symmetry_multiplicity
  _atom_site_fract_x
  _atom_site_fract_y
  _atom_site_fract_z
  _atom_site_occupancy
  C   C1        1.0  0.02655  0.26468  0.31030  1.0000
  C   C2        1.0  0.04678  0.30068  0.31159  1.0000
  C   C3        1.0  0.07925  0.31759  0.35048  1.0000
  O   O1        1.0  0.03635  0.32134  0.27869  1.0000
  H   H1        1.0  0.03436  0.31796  0.21304  1.0000
  C   C4        1.0  0.09711  0.23328  0.20262  1.0000
  N   N1        1.0  0.08539  0.22920  0.13223  1.0000
  C   C5        1.0  0.09424  0.29836  0.37090  1.0000
  C   C6        1.0  0.07919  0.26426  0.35031  1.0000
  C   C7        1.0  0.04562  0.24817  0.32133  1.0000
  H   H2        1.0  0.03493  0.22312  0.31755  1.0000
  C   C8        1.0  0.09949  0.24930  0.35735  1.0000
  C   C9        1.0  0.09992  0.35277  0.36143  1.0000
  C   C10       1.0  0.02655  0.76468  0.31030  1.0000
  C   C11       1.0  0.04678  0.80069  0.31159  1.0000
  C   C12       1.0  0.07925  0.81759  0.35048  1.0000
  O   O2        1.0  0.03635  0.82134  0.27869  1.0000
  H   H3        1.0  0.03436  0.81796  0.21304  1.0000
  C   C13       1.0  0.09711  0.73328  0.20262  1.0000
  N   N2        1.0  0.08539  0.72920  0.13223  1.0000
  C   C14       1.0  0.09424  0.79836  0.37090  1.0000
  C   C15       1.0  0.07919  0.76426  0.35031  1.0000
  C   C16       1.0  0.04562  0.74817  0.32133  1.0000
  H   H4        1.0  0.03493  0.72312  0.31755  1.0000
  C   C17       1.0  0.09949  0.74930  0.35735  1.0000
  C   C18       1.0  0.09992  0.85277  0.36143  1.0000
  N   N3        1.0  0.14117  0.24073  0.28683  1.0000
  C   C19       1.0  0.11043  0.23812  0.28234  1.0000
  N   N4        1.0  0.11044  0.37223  0.28596  1.0000
  C   C20       1.0  0.13844  0.40302  0.28054  1.0000
  C   C21       1.0  0.14672  0.41629  0.20073  1.0000
  N   N5        1.0  0.15418  0.42797  0.13025  1.0000
  H   H5        1.0  0.11894  0.31055  0.38911  1.0000
  C   C22       1.0  0.16082  0.24954  0.36193  1.0000
  N   N6        1.0  0.11878  0.25708  0.43247  1.0000
  C   C23       1.0  0.14719  0.25581  0.44040  1.0000
  C   C24       1.0  0.16215  0.26452  0.51826  1.0000
  N   N7        1.0  0.17542  0.27235  0.58671  1.0000
  C   C25       1.0  0.16066  0.41452  0.35527  1.0000
  N   N8        1.0  0.14951  0.39537  0.43076  1.0000
  C   C26       1.0  0.12002  0.36680  0.43946  1.0000
  C   C27       1.0  0.11413  0.35220  0.51779  1.0000
  N   N9        1.0  0.10902  0.33924  0.58666  1.0000
  N   N10       1.0  0.14117  0.74073  0.28683  1.0000
  C   C28       1.0  0.11043  0.73811  0.28234  1.0000
  N   N11       1.0  0.11044  0.87223  0.28596  1.0000
  C   C29       1.0  0.13844  0.90302  0.28054  1.0000
  C   C30       1.0  0.14672  0.91629  0.20073  1.0000
  N   N12       1.0  0.15417  0.92796  0.13025  1.0000
  H   H6        1.0  0.11894  0.81055  0.38911  1.0000
  C   C31       1.0  0.16082  0.74954  0.36193  1.0000
  N   N13       1.0  0.11878  0.75708  0.43247  1.0000
  C   C32       1.0  0.14719  0.75581  0.44040  1.0000
  C   C33       1.0  0.16215  0.76452  0.51826  1.0000
  N   N14       1.0  0.17542  0.77235  0.58671  1.0000
  C   C34       1.0  0.16066  0.91452  0.35527  1.0000
  N   N15       1.0  0.14951  0.89537  0.43076  1.0000
  C   C35       1.0  0.12002  0.86681  0.43946  1.0000
  C   C36       1.0  0.11414  0.85220  0.51779  1.0000
  N   N16       1.0  0.10902  0.83924  0.58666  1.0000
  C   C37       1.0  0.24889  0.26430  0.31034  1.0000
  C   C38       1.0  0.21287  0.24845  0.31185  1.0000
  C   C39       1.0  0.19595  0.26421  0.34944  1.0000
  O   O3        1.0  0.19218  0.21716  0.28041  1.0000
  H   H7        1.0  0.19523  0.21819  0.21466  1.0000
  C   C40       1.0  0.25125  0.04394  0.31218  1.0000
  C   C41       1.0  0.24918  0.48735  0.30985  1.0000
  C   C42       1.0  0.24911  0.43430  0.34755  1.0000
  O   O4        1.0  0.22011  0.03349  0.27971  1.0000
  H   H8        1.0  0.22139  0.03153  0.21403  1.0000
  N   N17       1.0  0.24356  0.10772  0.28748  1.0000
  C   C43       1.0  0.24097  0.13585  0.28225  1.0000
  C   C44       1.0  0.23628  0.14424  0.20226  1.0000
  N   N18       1.0  0.23231  0.15180  0.13163  1.0000
  C   C45       1.0  0.25091  0.21079  0.32133  1.0000
  H   H9        1.0  0.22585  0.19645  0.31823  1.0000
  C   C46       1.0  0.21512  0.29850  0.36892  1.0000
  C   C47       1.0  0.24925  0.31748  0.34859  1.0000
  H   H10       1.0  0.20286  0.31100  0.38651  1.0000
  C   C48       1.0  0.21476  0.41910  0.36633  1.0000
  C   C49       1.0  0.19592  0.43452  0.34760  1.0000
  C   C50       1.0  0.21359  0.46832  0.32076  1.0000
  H   H11       1.0  0.20215  0.39428  0.38332  1.0000
  H   H12       1.0  0.19934  0.47916  0.31848  1.0000
  N   N19       1.0  0.25630  0.36425  0.43036  1.0000
  C   C51       1.0  0.25737  0.39383  0.43811  1.0000
  C   C52       1.0  0.24853  0.40000  0.51590  1.0000
  N   N20       1.0  0.24058  0.40536  0.58428  1.0000
  C   C53       1.0  0.25223  0.09694  0.36300  1.0000
  C   C54       1.0  0.25200  0.15804  0.35707  1.0000
  N   N21       1.0  0.25971  0.14669  0.43263  1.0000
  C   C55       1.0  0.25841  0.11701  0.44111  1.0000
  C   C56       1.0  0.24889  0.76430  0.31034  1.0000
  C   C57       1.0  0.21287  0.74845  0.31185  1.0000
  C   C58       1.0  0.19595  0.76420  0.34944  1.0000
  O   O5        1.0  0.19218  0.71716  0.28041  1.0000
  H   H13       1.0  0.19523  0.71819  0.21466  1.0000
  C   C59       1.0  0.25125  0.54394  0.31218  1.0000
  C   C60       1.0  0.24918  0.98735  0.30985  1.0000
  C   C61       1.0  0.24911  0.93430  0.34755  1.0000
  O   O6        1.0  0.22010  0.53349  0.27971  1.0000
  H   H14       1.0  0.22139  0.53153  0.21403  1.0000
  N   N22       1.0  0.24356  0.60772  0.28748  1.0000
  C   C62       1.0  0.24097  0.63585  0.28225  1.0000
  C   C63       1.0  0.23628  0.64424  0.20226  1.0000
  N   N23       1.0  0.23231  0.65180  0.13163  1.0000
  C   C64       1.0  0.25091  0.71079  0.32133  1.0000
  H   H15       1.0  0.22585  0.69645  0.31823  1.0000
  C   C65       1.0  0.21512  0.79851  0.36892  1.0000
  C   C66       1.0  0.24925  0.81748  0.34859  1.0000
  H   H16       1.0  0.20286  0.81100  0.38651  1.0000
  C   C67       1.0  0.21476  0.91910  0.36633  1.0000
  C   C68       1.0  0.19593  0.93452  0.34760  1.0000
  C   C69       1.0  0.21358  0.96832  0.32076  1.0000
  H   H17       1.0  0.20215  0.89428  0.38332  1.0000
  H   H18       1.0  0.19934  0.97916  0.31848  1.0000
  N   N24       1.0  0.25630  0.86425  0.43036  1.0000
  C   C70       1.0  0.25737  0.89383  0.43811  1.0000
  C   C71       1.0  0.24853  0.90000  0.51590  1.0000
  N   N25       1.0  0.24057  0.90536  0.58428  1.0000
  C   C72       1.0  0.25223  0.59694  0.36300  1.0000
  C   C73       1.0  0.25200  0.65804  0.35707  1.0000
  N   N26       1.0  0.25971  0.64669  0.43263  1.0000
  C   C74       1.0  0.25841  0.61701  0.44111  1.0000
  C   C75       1.0  0.49012  0.24625  0.30976  1.0000
  C   C76       1.0  0.43699  0.19334  0.34719  1.0000
  C   C77       1.0  0.46985  0.21024  0.31082  1.0000
  O   O7        1.0  0.48051  0.18950  0.28023  1.0000
  H   H19       1.0  0.48262  0.19242  0.21444  1.0000
  C   C78       1.0  0.26740  0.24637  0.31034  1.0000
  C   C79       1.0  0.32039  0.24651  0.34901  1.0000
  C   C80       1.0  0.30341  0.26219  0.31137  1.0000
  O   O8        1.0  0.32404  0.29341  0.27934  1.0000
  H   H20       1.0  0.32087  0.29222  0.21363  1.0000
  C   C81       1.0  0.26711  0.02379  0.31030  1.0000
  C   C82       1.0  0.26686  0.07643  0.35094  1.0000
  C   C83       1.0  0.26498  0.46713  0.31092  1.0000
  O   O9        1.0  0.29639  0.47783  0.28035  1.0000
  H   H21       1.0  0.29554  0.47978  0.21453  1.0000
  N   N27       1.0  0.27267  0.40296  0.28475  1.0000
  C   C84       1.0  0.27528  0.37483  0.28045  1.0000
  C   C85       1.0  0.28048  0.36638  0.20109  1.0000
  N   N28       1.0  0.28488  0.35878  0.13103  1.0000
  N   N29       1.0  0.37484  0.26970  0.28474  1.0000
  C   C86       1.0  0.40561  0.27244  0.27924  1.0000
  C   C87       1.0  0.41870  0.27709  0.19927  1.0000
  N   N30       1.0  0.43021  0.28100  0.12865  1.0000
  N   N31       1.0  0.40566  0.13837  0.28516  1.0000
  C   C88       1.0  0.37749  0.10766  0.28120  1.0000
  C   C89       1.0  0.36896  0.09388  0.20202  1.0000
  N   N32       1.0  0.36129  0.08176  0.13208  1.0000
  C   C90       1.0  0.47113  0.26287  0.32046  1.0000
  C   C91       1.0  0.43728  0.24676  0.34682  1.0000
  C   C92       1.0  0.42181  0.21252  0.36586  1.0000
  H   H22       1.0  0.48201  0.28797  0.31801  1.0000
  H   H23       1.0  0.39697  0.20032  0.38253  1.0000
  C   C93       1.0  0.26707  0.19329  0.34954  1.0000
  C   C94       1.0  0.30124  0.21229  0.36946  1.0000
  H   H24       1.0  0.31345  0.19977  0.38726  1.0000
  C   C95       1.0  0.26538  0.29990  0.32083  1.0000
  H   H25       1.0  0.29043  0.31424  0.31698  1.0000
  C   C96       1.0  0.30270  0.04295  0.32070  1.0000
  C   C97       1.0  0.32017  0.07649  0.34994  1.0000
  C   C98       1.0  0.30107  0.09142  0.37151  1.0000
  H   H26       1.0  0.31714  0.03238  0.31576  1.0000
  H   H27       1.0  0.31351  0.11611  0.38967  1.0000
  C   C99       1.0  0.26372  0.41377  0.35963  1.0000
  C   C100      1.0  0.26427  0.35275  0.35553  1.0000
  C   C101      1.0  0.35556  0.26116  0.36053  1.0000
  C   C102      1.0  0.41731  0.26206  0.35429  1.0000
  N   N33       1.0  0.39820  0.25426  0.42984  1.0000
  C   C103      1.0  0.36967  0.25525  0.43857  1.0000
  C   C104      1.0  0.35502  0.24651  0.51682  1.0000
  N   N34       1.0  0.34202  0.23866  0.58564  1.0000
  C   C105      1.0  0.26694  0.11084  0.51931  1.0000
  N   N35       1.0  0.27463  0.10547  0.58809  1.0000
  C   C106      1.0  0.41651  0.15824  0.35986  1.0000
  C   C107      1.0  0.35545  0.09691  0.35635  1.0000
  N   N36       1.0  0.36701  0.11639  0.43115  1.0000
  C   C108      1.0  0.39666  0.14483  0.43857  1.0000
  C   C109      1.0  0.40296  0.15999  0.51613  1.0000
  N   N37       1.0  0.40843  0.17345  0.58433  1.0000
  C   C110      1.0  0.49012  0.74625  0.30976  1.0000
  C   C111      1.0  0.43699  0.69334  0.34719  1.0000
  C   C112      1.0  0.46985  0.71024  0.31082  1.0000
  O   O10       1.0  0.48051  0.68949  0.28023  1.0000
  H   H28       1.0  0.48262  0.69242  0.21444  1.0000
  C   C113      1.0  0.26740  0.74637  0.31034  1.0000
  C   C114      1.0  0.32039  0.74651  0.34901  1.0000
  C   C115      1.0  0.30341  0.76219  0.31137  1.0000
  O   O11       1.0  0.32404  0.79342  0.27934  1.0000
  H   H29       1.0  0.32086  0.79222  0.21363  1.0000
  C   C116      1.0  0.26711  0.52379  0.31030  1.0000
  C   C117      1.0  0.26686  0.57643  0.35094  1.0000
  C   C118      1.0  0.26498  0.96713  0.31092  1.0000
  O   O12       1.0  0.29639  0.97783  0.28035  1.0000
  H   H30       1.0  0.29554  0.97978  0.21453  1.0000
  N   N38       1.0  0.27267  0.90296  0.28475  1.0000
  C   C119      1.0  0.27528  0.87483  0.28045  1.0000
  C   C120      1.0  0.28048  0.86638  0.20109  1.0000
  N   N39       1.0  0.28488  0.85878  0.13103  1.0000
  N   N40       1.0  0.37484  0.76970  0.28474  1.0000
  C   C121      1.0  0.40561  0.77244  0.27924  1.0000
  C   C122      1.0  0.41870  0.77709  0.19927  1.0000
  N   N41       1.0  0.43021  0.78100  0.12865  1.0000
  N   N42       1.0  0.40566  0.63838  0.28516  1.0000
  C   C123      1.0  0.37749  0.60765  0.28120  1.0000
  C   C124      1.0  0.36896  0.59388  0.20202  1.0000
  N   N43       1.0  0.36129  0.58176  0.13208  1.0000
  C   C125      1.0  0.47113  0.76287  0.32046  1.0000
  C   C126      1.0  0.43728  0.74676  0.34682  1.0000
  C   C127      1.0  0.42181  0.71252  0.36586  1.0000
  H   H31       1.0  0.48201  0.78797  0.31801  1.0000
  H   H32       1.0  0.39697  0.70032  0.38253  1.0000
  C   C128      1.0  0.26707  0.69330  0.34954  1.0000
  C   C129      1.0  0.30124  0.71229  0.36946  1.0000
  H   H33       1.0  0.31345  0.69977  0.38726  1.0000
  C   C130      1.0  0.26538  0.79990  0.32083  1.0000
  H   H34       1.0  0.29043  0.81424  0.31698  1.0000
  C   C131      1.0  0.30270  0.54295  0.32070  1.0000
  C   C132      1.0  0.32017  0.57649  0.34994  1.0000
  C   C133      1.0  0.30107  0.59142  0.37151  1.0000
  H   H35       1.0  0.31714  0.53238  0.31576  1.0000
  H   H36       1.0  0.31351  0.61611  0.38967  1.0000
  C   C134      1.0  0.26371  0.91377  0.35963  1.0000
  C   C135      1.0  0.26427  0.85275  0.35553  1.0000
  C   C136      1.0  0.35555  0.76116  0.36053  1.0000
  C   C137      1.0  0.41731  0.76206  0.35429  1.0000
  N   N44       1.0  0.39820  0.75426  0.42984  1.0000
  C   C138      1.0  0.36967  0.75525  0.43857  1.0000
  C   C139      1.0  0.35502  0.74651  0.51682  1.0000
  N   N45       1.0  0.34202  0.73866  0.58564  1.0000
  C   C140      1.0  0.26694  0.61084  0.51931  1.0000
  N   N46       1.0  0.27463  0.60547  0.58809  1.0000
  C   C141      1.0  0.41651  0.65823  0.35986  1.0000
  C   C142      1.0  0.35545  0.59691  0.35635  1.0000
  N   N47       1.0  0.36701  0.61638  0.43115  1.0000
  C   C143      1.0  0.39666  0.64483  0.43857  1.0000
  C   C144      1.0  0.40296  0.65999  0.51613  1.0000
  N   N48       1.0  0.40843  0.67345  0.58433  1.0000
  C   C145      1.0  0.99012  0.24625  0.30976  1.0000
  C   C146      1.0  0.93699  0.19334  0.34719  1.0000
  C   C147      1.0  0.96985  0.21024  0.31082  1.0000
  C   C148      1.0  0.52655  0.26468  0.31030  1.0000
  C   C149      1.0  0.54678  0.30068  0.31159  1.0000
  C   C150      1.0  0.57925  0.31759  0.35048  1.0000
  O   O13       1.0  0.98051  0.18950  0.28023  1.0000
  O   O14       1.0  0.53635  0.32134  0.27869  1.0000
  H   H37       1.0  0.98262  0.19242  0.21444  1.0000
  H   H38       1.0  0.53436  0.31796  0.21304  1.0000
  C   C151      1.0  0.76740  0.24637  0.31034  1.0000
  C   C152      1.0  0.82039  0.24651  0.34901  1.0000
  C   C153      1.0  0.80341  0.26219  0.31137  1.0000
  C   C154      1.0  0.74889  0.26430  0.31034  1.0000
  C   C155      1.0  0.71287  0.24845  0.31185  1.0000
  C   C156      1.0  0.69595  0.26421  0.34944  1.0000
  O   O15       1.0  0.82404  0.29341  0.27934  1.0000
  O   O16       1.0  0.69218  0.21716  0.28041  1.0000
  H   H39       1.0  0.82086  0.29222  0.21363  1.0000
  H   H40       1.0  0.69523  0.21819  0.21466  1.0000
  C   C157      1.0  0.76711  0.02379  0.31030  1.0000
  C   C158      1.0  0.76686  0.07643  0.35094  1.0000
  C   C159      1.0  0.75125  0.04394  0.31218  1.0000
  C   C160      1.0  0.74918  0.48735  0.30985  1.0000
  C   C161      1.0  0.76498  0.46713  0.31092  1.0000
  C   C162      1.0  0.74911  0.43430  0.34755  1.0000
  O   O17       1.0  0.72011  0.03349  0.27971  1.0000
  O   O18       1.0  0.79639  0.47783  0.28035  1.0000
  H   H41       1.0  0.72139  0.03153  0.21403  1.0000
  H   H42       1.0  0.79554  0.47978  0.21453  1.0000
  N   N49       1.0  0.64117  0.24073  0.28683  1.0000
  C   C163      1.0  0.61043  0.23812  0.28234  1.0000
  C   C164      1.0  0.59711  0.23328  0.20262  1.0000
  N   N50       1.0  0.58539  0.22920  0.13223  1.0000
  N   N51       1.0  0.77267  0.40296  0.28475  1.0000
  C   C165      1.0  0.77528  0.37483  0.28045  1.0000
  C   C166      1.0  0.78048  0.36638  0.20109  1.0000
  N   N52       1.0  0.78488  0.35878  0.13103  1.0000
  N   N53       1.0  0.61044  0.37223  0.28596  1.0000
  C   C167      1.0  0.63844  0.40302  0.28054  1.0000
  C   C168      1.0  0.64672  0.41629  0.20073  1.0000
  N   N54       1.0  0.65418  0.42797  0.13025  1.0000
  N   N55       1.0  0.87484  0.26970  0.28474  1.0000
  C   C169      1.0  0.90561  0.27244  0.27924  1.0000
  C   C170      1.0  0.91870  0.27709  0.19927  1.0000
  N   N56       1.0  0.93021  0.28100  0.12865  1.0000
  N   N57       1.0  0.74356  0.10772  0.28748  1.0000
  C   C171      1.0  0.74097  0.13585  0.28225  1.0000
  C   C172      1.0  0.73628  0.14424  0.20226  1.0000
  N   N58       1.0  0.73231  0.15180  0.13163  1.0000
  N   N59       1.0  0.90566  0.13837  0.28516  1.0000
  C   C173      1.0  0.87749  0.10766  0.28120  1.0000
  C   C174      1.0  0.86896  0.09388  0.20202  1.0000
  N   N60       1.0  0.86129  0.08176  0.13208  1.0000
  C   C175      1.0  0.97113  0.26287  0.32046  1.0000
  C   C176      1.0  0.93728  0.24676  0.34682  1.0000
  C   C177      1.0  0.92181  0.21252  0.36586  1.0000
  H   H43       1.0  0.98201  0.28797  0.31801  1.0000
  H   H44       1.0  0.89697  0.20032  0.38253  1.0000
  C   C178      1.0  0.59424  0.29836  0.37090  1.0000
  C   C179      1.0  0.57919  0.26426  0.35031  1.0000
  C   C180      1.0  0.54562  0.24817  0.32133  1.0000
  H   H45       1.0  0.61894  0.31055  0.38911  1.0000
  H   H46       1.0  0.53493  0.22312  0.31755  1.0000
  C   C181      1.0  0.75091  0.21079  0.32133  1.0000
  C   C182      1.0  0.76707  0.19329  0.34954  1.0000
  C   C183      1.0  0.80124  0.21229  0.36946  1.0000
  H   H47       1.0  0.72585  0.19645  0.31823  1.0000
  H   H48       1.0  0.81345  0.19977  0.38726  1.0000
  C   C184      1.0  0.71512  0.29850  0.36892  1.0000
  C   C185      1.0  0.74925  0.31748  0.34859  1.0000
  C   C186      1.0  0.76538  0.29990  0.32083  1.0000
  H   H49       1.0  0.70286  0.31100  0.38651  1.0000
  H   H50       1.0  0.79043  0.31424  0.31698  1.0000
  C   C187      1.0  0.80270  0.04295  0.32070  1.0000
  C   C188      1.0  0.82017  0.07649  0.34994  1.0000
  C   C189      1.0  0.80107  0.09142  0.37151  1.0000
  H   H51       1.0  0.81714  0.03238  0.31576  1.0000
  H   H52       1.0  0.81351  0.11611  0.38967  1.0000
  C   C190      1.0  0.71476  0.41910  0.36633  1.0000
  C   C191      1.0  0.69593  0.43452  0.34760  1.0000
  C   C192      1.0  0.71359  0.46832  0.32076  1.0000
  H   H53       1.0  0.70215  0.39428  0.38332  1.0000
  H   H54       1.0  0.69934  0.47916  0.31848  1.0000
  C   C193      1.0  0.66082  0.24954  0.36193  1.0000
  C   C194      1.0  0.59949  0.24930  0.35735  1.0000
  N   N61       1.0  0.61878  0.25708  0.43247  1.0000
  C   C195      1.0  0.64719  0.25581  0.44040  1.0000
  C   C196      1.0  0.66215  0.26452  0.51826  1.0000
  N   N62       1.0  0.67542  0.27235  0.58671  1.0000
  C   C197      1.0  0.76371  0.41377  0.35963  1.0000
  C   C198      1.0  0.76427  0.35275  0.35553  1.0000
  N   N63       1.0  0.75630  0.36425  0.43036  1.0000
  C   C199      1.0  0.75737  0.39383  0.43811  1.0000
  C   C200      1.0  0.74853  0.40000  0.51590  1.0000
  N   N64       1.0  0.74057  0.40536  0.58428  1.0000
  C   C201      1.0  0.59992  0.35277  0.36143  1.0000
  C   C202      1.0  0.66066  0.41452  0.35527  1.0000
  N   N65       1.0  0.64951  0.39537  0.43076  1.0000
  C   C203      1.0  0.62002  0.36680  0.43946  1.0000
  C   C204      1.0  0.61413  0.35220  0.51779  1.0000
  N   N66       1.0  0.60902  0.33924  0.58666  1.0000
  C   C205      1.0  0.85555  0.26116  0.36053  1.0000
  C   C206      1.0  0.91731  0.26206  0.35429  1.0000
  N   N67       1.0  0.89820  0.25426  0.42984  1.0000
  C   C207      1.0  0.86966  0.25525  0.43857  1.0000
  C   C208      1.0  0.85502  0.24651  0.51682  1.0000
  N   N68       1.0  0.84202  0.23866  0.58564  1.0000
  C   C209      1.0  0.75223  0.09694  0.36300  1.0000
  C   C210      1.0  0.75200  0.15804  0.35707  1.0000
  N   N69       1.0  0.75971  0.14669  0.43263  1.0000
  C   C211      1.0  0.75841  0.11701  0.44111  1.0000
  C   C212      1.0  0.76695  0.11084  0.51931  1.0000
  N   N70       1.0  0.77463  0.10547  0.58809  1.0000
  C   C213      1.0  0.91651  0.15824  0.35986  1.0000
  C   C214      1.0  0.85545  0.09691  0.35635  1.0000
  N   N71       1.0  0.86701  0.11639  0.43115  1.0000
  C   C215      1.0  0.89667  0.14483  0.43857  1.0000
  C   C216      1.0  0.90296  0.15999  0.51613  1.0000
  N   N72       1.0  0.90843  0.17345  0.58433  1.0000
  C   C217      1.0  0.99012  0.74625  0.30976  1.0000
  C   C218      1.0  0.93699  0.69334  0.34719  1.0000
  C   C219      1.0  0.96985  0.71024  0.31082  1.0000
  C   C220      1.0  0.52655  0.76468  0.31030  1.0000
  C   C221      1.0  0.54678  0.80069  0.31159  1.0000
  C   C222      1.0  0.57925  0.81759  0.35048  1.0000
  O   O19       1.0  0.98051  0.68949  0.28023  1.0000
  O   O20       1.0  0.53635  0.82134  0.27869  1.0000
  H   H55       1.0  0.98262  0.69242  0.21444  1.0000
  H   H56       1.0  0.53436  0.81796  0.21304  1.0000
  C   C223      1.0  0.76740  0.74637  0.31034  1.0000
  C   C224      1.0  0.82039  0.74651  0.34901  1.0000
  C   C225      1.0  0.80341  0.76219  0.31137  1.0000
  C   C226      1.0  0.74889  0.76430  0.31034  1.0000
  C   C227      1.0  0.71287  0.74845  0.31185  1.0000
  C   C228      1.0  0.69595  0.76420  0.34944  1.0000
  O   O21       1.0  0.82404  0.79342  0.27934  1.0000
  O   O22       1.0  0.69217  0.71716  0.28041  1.0000
  H   H57       1.0  0.82086  0.79222  0.21363  1.0000
  H   H58       1.0  0.69523  0.71819  0.21466  1.0000
  C   C229      1.0  0.76711  0.52379  0.31030  1.0000
  C   C230      1.0  0.76686  0.57643  0.35094  1.0000
  C   C231      1.0  0.75125  0.54394  0.31218  1.0000
  C   C232      1.0  0.74918  0.98735  0.30985  1.0000
  C   C233      1.0  0.76498  0.96713  0.31092  1.0000
  C   C234      1.0  0.74911  0.93430  0.34755  1.0000
  O   O23       1.0  0.72011  0.53349  0.27971  1.0000
  O   O24       1.0  0.79639  0.97783  0.28035  1.0000
  H   H59       1.0  0.72139  0.53153  0.21403  1.0000
  H   H60       1.0  0.79554  0.97978  0.21453  1.0000
  N   N73       1.0  0.64117  0.74073  0.28683  1.0000
  C   C235      1.0  0.61043  0.73811  0.28234  1.0000
  C   C236      1.0  0.59711  0.73328  0.20262  1.0000
  N   N74       1.0  0.58539  0.72920  0.13223  1.0000
  N   N75       1.0  0.77267  0.90296  0.28475  1.0000
  C   C237      1.0  0.77528  0.87483  0.28045  1.0000
  C   C238      1.0  0.78048  0.86638  0.20109  1.0000
  N   N76       1.0  0.78488  0.85878  0.13103  1.0000
  N   N77       1.0  0.61044  0.87223  0.28596  1.0000
  C   C239      1.0  0.63844  0.90302  0.28054  1.0000
  C   C240      1.0  0.64672  0.91629  0.20073  1.0000
  N   N78       1.0  0.65417  0.92796  0.13025  1.0000
  N   N79       1.0  0.87484  0.76970  0.28474  1.0000
  C   C241      1.0  0.90561  0.77244  0.27924  1.0000
  C   C242      1.0  0.91869  0.77709  0.19927  1.0000
  N   N80       1.0  0.93021  0.78100  0.12865  1.0000
  N   N81       1.0  0.74356  0.60772  0.28748  1.0000
  C   C243      1.0  0.74097  0.63585  0.28225  1.0000
  C   C244      1.0  0.73628  0.64424  0.20226  1.0000
  N   N82       1.0  0.73231  0.65180  0.13163  1.0000
  N   N83       1.0  0.90566  0.63838  0.28516  1.0000
  C   C245      1.0  0.87749  0.60765  0.28120  1.0000
  C   C246      1.0  0.86896  0.59388  0.20202  1.0000
  N   N84       1.0  0.86129  0.58176  0.13208  1.0000
  C   C247      1.0  0.97113  0.76287  0.32046  1.0000
  C   C248      1.0  0.93728  0.74676  0.34682  1.0000
  C   C249      1.0  0.92181  0.71252  0.36586  1.0000
  H   H61       1.0  0.98201  0.78797  0.31801  1.0000
  H   H62       1.0  0.89697  0.70032  0.38253  1.0000
  C   C250      1.0  0.59424  0.79836  0.37090  1.0000
  C   C251      1.0  0.57918  0.76426  0.35031  1.0000
  C   C252      1.0  0.54562  0.74817  0.32133  1.0000
  H   H63       1.0  0.61894  0.81055  0.38911  1.0000
  H   H64       1.0  0.53493  0.72312  0.31755  1.0000
  C   C253      1.0  0.75091  0.71079  0.32133  1.0000
  C   C254      1.0  0.76707  0.69330  0.34954  1.0000
  C   C255      1.0  0.80124  0.71229  0.36946  1.0000
  H   H65       1.0  0.72585  0.69645  0.31823  1.0000
  H   H66       1.0  0.81345  0.69977  0.38726  1.0000
  C   C256      1.0  0.71512  0.79851  0.36892  1.0000
  C   C257      1.0  0.74925  0.81748  0.34859  1.0000
  C   C258      1.0  0.76538  0.79990  0.32083  1.0000
  H   H67       1.0  0.70286  0.81100  0.38651  1.0000
  H   H68       1.0  0.79043  0.81424  0.31698  1.0000
  C   C259      1.0  0.80270  0.54295  0.32070  1.0000
  C   C260      1.0  0.82017  0.57649  0.34994  1.0000
  C   C261      1.0  0.80107  0.59142  0.37151  1.0000
  H   H69       1.0  0.81714  0.53238  0.31576  1.0000
  H   H70       1.0  0.81351  0.61611  0.38967  1.0000
  C   C262      1.0  0.71476  0.91910  0.36633  1.0000
  C   C263      1.0  0.69592  0.93452  0.34760  1.0000
  C   C264      1.0  0.71359  0.96832  0.32076  1.0000
  H   H71       1.0  0.70215  0.89428  0.38332  1.0000
  H   H72       1.0  0.69934  0.97916  0.31848  1.0000
  C   C265      1.0  0.66082  0.74954  0.36193  1.0000
  C   C266      1.0  0.59949  0.74930  0.35735  1.0000
  N   N85       1.0  0.61878  0.75708  0.43247  1.0000
  C   C267      1.0  0.64719  0.75581  0.44040  1.0000
  C   C268      1.0  0.66215  0.76452  0.51826  1.0000
  N   N86       1.0  0.67542  0.77235  0.58671  1.0000
  C   C269      1.0  0.76372  0.91377  0.35963  1.0000
  C   C270      1.0  0.76427  0.85275  0.35553  1.0000
  N   N87       1.0  0.75630  0.86425  0.43036  1.0000
  C   C271      1.0  0.75737  0.89383  0.43811  1.0000
  C   C272      1.0  0.74853  0.90000  0.51590  1.0000
  N   N88       1.0  0.74057  0.90536  0.58428  1.0000
  C   C273      1.0  0.59992  0.85277  0.36143  1.0000
  C   C274      1.0  0.66066  0.91452  0.35527  1.0000
  N   N89       1.0  0.64951  0.89537  0.43076  1.0000
  C   C275      1.0  0.62002  0.86681  0.43946  1.0000
  C   C276      1.0  0.61413  0.85220  0.51779  1.0000
  N   N90       1.0  0.60902  0.83924  0.58666  1.0000
  C   C277      1.0  0.85555  0.76116  0.36053  1.0000
  C   C278      1.0  0.91731  0.76206  0.35429  1.0000
  N   N91       1.0  0.89820  0.75426  0.42984  1.0000
  C   C279      1.0  0.86966  0.75525  0.43857  1.0000
  C   C280      1.0  0.85502  0.74651  0.51682  1.0000
  N   N92       1.0  0.84202  0.73866  0.58564  1.0000
  C   C281      1.0  0.75223  0.59694  0.36300  1.0000
  C   C282      1.0  0.75200  0.65804  0.35707  1.0000
  N   N93       1.0  0.75971  0.64669  0.43263  1.0000
  C   C283      1.0  0.75841  0.61701  0.44111  1.0000
  C   C284      1.0  0.76695  0.61084  0.51931  1.0000
  N   N94       1.0  0.77463  0.60547  0.58809  1.0000
  C   C285      1.0  0.91651  0.65823  0.35986  1.0000
  C   C286      1.0  0.85545  0.59691  0.35635  1.0000
  N   N95       1.0  0.86701  0.61638  0.43115  1.0000
  C   C287      1.0  0.89666  0.64483  0.43857  1.0000
  C   C288      1.0  0.90296  0.65999  0.51613  1.0000
  N   N96       1.0  0.90843  0.67345  0.58433  1.0000
