data_image0
_chemical_formula_structural       C3NC3NC5NC4NC35H25C21H18C16H16C7H2NH2NO2C7H2NH2NO2C7H2NH2NO2C7H2NH2NO2C7H2NH2NO2C7H2NH2NO2C18H17C3NC3NC2NC5NC34H24C3NC3NC5NC5NC36H26C2HC3HNH2NO2C2HC3HNH2NO2C2HC3HNH2NO2C2HC3HNH2NO2C2HC3HNH2NO2C2HC3HNH2NO2
_chemical_formula_sum              "C276 N36 H174 O24"
_cell_length_a       67.2656
_cell_length_b       67.2656
_cell_length_c       14.9421
_cell_angle_alpha    89.8028
_cell_angle_beta     90.1972
_cell_angle_gamma    120

_space_group_name_H-M_alt    "P 1"
_space_group_IT_number       1

loop_
  _space_group_symop_operation_xyz
  'x, y, z'

loop_
  _atom_site_type_symbol
  _atom_site_label
  _atom_site_symmetry_multiplicity
  _atom_site_fract_x
  _atom_site_fract_y
  _atom_site_fract_z
  _atom_site_occupancy
  C   C1        1.0  0.04479  0.62869  0.31927  1.0000
  C   C2        1.0  0.02108  0.61684  0.31909  1.0000
  C   C3        1.0  0.01356  0.59351  0.33058  1.0000
  N   N1        1.0  0.03292  0.59208  0.33692  1.0000
  C   C4        1.0  0.05231  0.61288  0.33097  1.0000
  C   C5        1.0  0.07570  0.61855  0.33598  1.0000
  C   C6        1.0  0.08312  0.60215  0.34049  1.0000
  N   N2        1.0  0.07016  0.57903  0.33508  1.0000
  C   C7        1.0  0.08306  0.56879  0.34017  1.0000
  C   C8        1.0  0.10576  0.58650  0.34949  1.0000
  C   C9        1.0  0.10579  0.60703  0.34986  1.0000
  C   C10       1.0  0.07559  0.54498  0.33535  1.0000
  C   C11       1.0  0.05219  0.52728  0.33058  1.0000
  N   N3        1.0  0.03283  0.52872  0.33700  1.0000
  C   C12       1.0  0.01344  0.50793  0.33107  1.0000
  C   C13       1.0  0.02094  0.49213  0.31921  1.0000
  C   C14       1.0  0.04465  0.50397  0.31895  1.0000
  C   C15       1.0  0.99006  0.50224  0.33625  1.0000
  N   N4        1.0  0.99559  0.54176  0.33527  1.0000
  C   C16       1.0  0.98270  0.55199  0.34031  1.0000
  C   C17       1.0  0.96000  0.53427  0.34955  1.0000
  C   C18       1.0  0.95998  0.51374  0.35004  1.0000
  C   C19       1.0  0.99016  0.57581  0.33533  1.0000
  C   C20       1.0  0.97287  0.58221  0.33292  1.0000
  C   C21       1.0  0.96065  0.58003  0.25309  1.0000
  C   C22       1.0  0.94255  0.58484  0.25199  1.0000
  C   C23       1.0  0.93614  0.59205  0.33036  1.0000
  C   C24       1.0  0.91696  0.59576  0.33010  1.0000
  C   C25       1.0  0.87688  0.58307  0.28983  1.0000
  C   C26       1.0  0.89600  0.57985  0.28870  1.0000
  C   C27       1.0  0.97277  0.47853  0.33564  1.0000
  C   C28       1.0  0.95935  0.46843  0.25834  1.0000
  C   C29       1.0  0.94153  0.44538  0.25931  1.0000
  C   C30       1.0  0.93654  0.43162  0.33724  1.0000
  C   C31       1.0  0.91772  0.40846  0.33910  1.0000
  C   C32       1.0  0.91276  0.39350  0.26530  1.0000
  C   C33       1.0  0.89365  0.37112  0.26581  1.0000
  C   C34       1.0  0.87879  0.36275  0.34042  1.0000
  C   C35       1.0  0.09286  0.53856  0.33305  1.0000
  C   C36       1.0  0.12926  0.52824  0.33044  1.0000
  C   C37       1.0  0.12301  0.53581  0.25225  1.0000
  C   C38       1.0  0.10507  0.54085  0.25337  1.0000
  C   C39       1.0  0.14822  0.52417  0.33011  1.0000
  C   C40       1.0  0.16927  0.53998  0.28918  1.0000
  C   C41       1.0  0.18815  0.53639  0.29015  1.0000
  C   C42       1.0  0.18673  0.51682  0.33197  1.0000
  C   C43       1.0  0.09301  0.64226  0.33517  1.0000
  C   C44       1.0  0.10639  0.65235  0.25789  1.0000
  C   C45       1.0  0.12435  0.67534  0.25885  1.0000
  C   C46       1.0  0.12952  0.68905  0.33675  1.0000
  C   C47       1.0  0.14855  0.71210  0.33871  1.0000
  C   C48       1.0  0.18794  0.75753  0.34007  1.0000
  C   C49       1.0  0.17304  0.74940  0.26533  1.0000
  C   C50       1.0  0.15370  0.72715  0.26481  1.0000
  H   H1        1.0  0.17648  0.75941  0.20938  1.0000
  H   H2        1.0  0.14340  0.72204  0.20927  1.0000
  H   H3        1.0  0.13416  0.68170  0.20250  1.0000
  H   H4        1.0  0.10349  0.64285  0.20096  1.0000
  H   H5        1.0  0.05470  0.64608  0.31195  1.0000
  H   H6        1.0  0.01117  0.62433  0.31174  1.0000
  H   H7        1.0  0.03292  0.57806  0.34993  1.0000
  H   H8        1.0  0.03286  0.54272  0.35022  1.0000
  H   H9        1.0  0.12017  0.62280  0.35624  1.0000
  H   H10       1.0  0.12011  0.58502  0.35555  1.0000
  H   H11       1.0  0.10120  0.54655  0.19588  1.0000
  H   H12       1.0  0.13149  0.53773  0.19331  1.0000
  H   H13       1.0  0.05455  0.49649  0.31148  1.0000
  H   H14       1.0  0.01102  0.47475  0.31183  1.0000
  H   H15       1.0  0.94560  0.49796  0.35636  1.0000
  H   H16       1.0  0.96215  0.47796  0.20134  1.0000
  H   H17       1.0  0.93170  0.43899  0.20290  1.0000
  H   H18       1.0  0.89034  0.36117  0.20996  1.0000
  H   H19       1.0  0.92304  0.39879  0.20988  1.0000
  H   H20       1.0  0.89422  0.56533  0.25924  1.0000
  H   H21       1.0  0.86192  0.57086  0.26081  1.0000
  H   H22       1.0  0.93403  0.58298  0.19298  1.0000
  H   H23       1.0  0.96458  0.57453  0.19553  1.0000
  H   H24       1.0  0.17128  0.55467  0.26011  1.0000
  H   H25       1.0  0.20320  0.54852  0.26149  1.0000
  C   C51       1.0  0.52298  0.59917  0.34279  1.0000
  C   C52       1.0  0.50527  0.60415  0.35197  1.0000
  C   C53       1.0  0.48474  0.58365  0.35244  1.0000
  C   C54       1.0  0.51171  0.46564  0.25576  1.0000
  C   C55       1.0  0.50691  0.44274  0.25464  1.0000
  C   C56       1.0  0.50870  0.37879  0.29238  1.0000
  C   C57       1.0  0.51191  0.40113  0.29131  1.0000
  C   C58       1.0  0.62332  0.57594  0.26086  1.0000
  C   C59       1.0  0.64636  0.58116  0.26171  1.0000
  C   C60       1.0  0.69824  0.60427  0.26742  1.0000
  C   C61       1.0  0.72063  0.60755  0.26774  1.0000
  C   C62       1.0  0.72903  0.60095  0.34226  1.0000
  C   C63       1.0  0.55598  0.67224  0.25490  1.0000
  C   C64       1.0  0.55094  0.64925  0.25601  1.0000
  C   C65       1.0  0.55179  0.71426  0.29183  1.0000
  C   C66       1.0  0.55538  0.73674  0.29280  1.0000
  C   C67       1.0  0.43944  0.53906  0.26043  1.0000
  C   C68       1.0  0.41646  0.53404  0.26127  1.0000
  C   C69       1.0  0.33423  0.51529  0.34189  1.0000
  C   C70       1.0  0.34239  0.50863  0.26725  1.0000
  C   C71       1.0  0.36464  0.51154  0.26692  1.0000
  H   H26       1.0  0.33241  0.50214  0.21125  1.0000
  H   H27       1.0  0.36978  0.50644  0.21146  1.0000
  H   H28       1.0  0.41010  0.53755  0.20484  1.0000
  H   H29       1.0  0.44895  0.54574  0.20353  1.0000
  H   H30       1.0  0.46897  0.58225  0.35877  1.0000
  H   H31       1.0  0.54524  0.63977  0.19853  1.0000
  H   H32       1.0  0.55407  0.67889  0.19594  1.0000
  H   H33       1.0  0.59530  0.64300  0.31464  1.0000
  H   H34       1.0  0.61378  0.56933  0.20387  1.0000
  H   H35       1.0  0.65274  0.57784  0.20520  1.0000
  H   H36       1.0  0.73055  0.61429  0.21186  1.0000
  H   H37       1.0  0.69293  0.60936  0.21208  1.0000
  H   H38       1.0  0.52643  0.41391  0.26185  1.0000
  H   H39       1.0  0.52092  0.37609  0.26342  1.0000
  H   H40       1.0  0.50877  0.43617  0.19562  1.0000
  H   H41       1.0  0.51723  0.47518  0.19823  1.0000
  H   H42       1.0  0.53711  0.70163  0.26270  1.0000
  H   H43       1.0  0.54326  0.73969  0.26408  1.0000
  C   C72       1.0  0.62602  0.13101  0.25689  1.0000
  C   C73       1.0  0.64893  0.14911  0.25529  1.0000
  C   C74       1.0  0.71292  0.21483  0.29139  1.0000
  C   C75       1.0  0.69058  0.19571  0.29085  1.0000
  C   C76       1.0  0.51581  0.13239  0.26324  1.0000
  C   C77       1.0  0.51058  0.15020  0.26413  1.0000
  C   C78       1.0  0.48746  0.17896  0.26998  1.0000
  C   C79       1.0  0.48418  0.19806  0.27035  1.0000
  C   C80       1.0  0.41965  0.96886  0.25552  1.0000
  C   C81       1.0  0.44263  0.98679  0.25716  1.0000
  C   C82       1.0  0.37757  0.92256  0.29126  1.0000
  C   C83       1.0  0.35509  0.90367  0.29168  1.0000
  C   C84       1.0  0.55272  0.98539  0.26277  1.0000
  C   C85       1.0  0.55776  0.96744  0.26363  1.0000
  C   C86       1.0  0.58316  0.91877  0.26980  1.0000
  C   C87       1.0  0.58024  0.93810  0.26943  1.0000
  H   H44       1.0  0.58966  0.91536  0.21382  1.0000
  H   H45       1.0  0.58535  0.94843  0.21395  1.0000
  H   H46       1.0  0.55423  0.95764  0.20723  1.0000
  H   H47       1.0  0.54605  0.98831  0.20583  1.0000
  H   H48       1.0  0.45219  0.99074  0.19985  1.0000
  H   H49       1.0  0.41307  0.96045  0.19638  1.0000
  H   H50       1.0  0.52244  0.12958  0.20624  1.0000
  H   H51       1.0  0.51392  0.16002  0.20769  1.0000
  H   H52       1.0  0.47745  0.20135  0.21447  1.0000
  H   H53       1.0  0.48238  0.16865  0.21463  1.0000
  H   H54       1.0  0.67776  0.19745  0.26150  1.0000
  H   H55       1.0  0.71560  0.22975  0.26215  1.0000
  H   H56       1.0  0.65542  0.15756  0.19608  1.0000
  H   H57       1.0  0.61643  0.12701  0.19951  1.0000
  H   H58       1.0  0.39024  0.92057  0.26240  1.0000
  H   H59       1.0  0.35217  0.88866  0.26284  1.0000
  C   C88       1.0  0.31221  0.51370  0.34042  1.0000
  C   C89       1.0  0.29160  0.49287  0.32230  1.0000
  C   C90       1.0  0.27045  0.49268  0.32063  1.0000
  C   C91       1.0  0.26931  0.51278  0.33619  1.0000
  C   C92       1.0  0.24753  0.51146  0.33191  1.0000
  C   C93       1.0  0.23779  0.51329  0.24980  1.0000
  C   C94       1.0  0.21726  0.51426  0.25256  1.0000
  H   H60       1.0  0.21034  0.51583  0.19357  1.0000
  H   H61       1.0  0.25567  0.47754  0.30776  1.0000
  N   N5        1.0  0.24768  0.51465  0.16894  1.0000
  H   H62       1.0  0.26183  0.51421  0.16349  1.0000
  H   H63       1.0  0.24078  0.51601  0.11355  1.0000
  N   N6        1.0  0.29233  0.47241  0.30863  1.0000
  O   O1        1.0  0.28468  0.46398  0.23277  1.0000
  O   O2        1.0  0.28102  0.45758  0.36716  1.0000
  C   C95       1.0  0.57808  0.88341  0.34299  1.0000
  C   C96       1.0  0.59892  0.88367  0.32490  1.0000
  C   C97       1.0  0.59912  0.86271  0.32325  1.0000
  C   C98       1.0  0.57901  0.84144  0.33879  1.0000
  C   C99       1.0  0.58034  0.82098  0.33451  1.0000
  C   C100      1.0  0.57850  0.80954  0.25241  1.0000
  C   C101      1.0  0.57752  0.78803  0.25518  1.0000
  H   H64       1.0  0.57594  0.77962  0.19620  1.0000
  H   H65       1.0  0.61425  0.86309  0.31039  1.0000
  N   N7        1.0  0.57712  0.81818  0.17155  1.0000
  H   H66       1.0  0.57756  0.83279  0.16609  1.0000
  H   H67       1.0  0.57575  0.81000  0.11617  1.0000
  N   N8        1.0  0.61937  0.90487  0.31124  1.0000
  O   O3        1.0  0.62781  0.90577  0.23538  1.0000
  O   O4        1.0  0.63421  0.90831  0.36978  1.0000
  C   C102      1.0  0.20838  0.77954  0.33880  1.0000
  C   C103      1.0  0.20813  0.80016  0.32087  1.0000
  C   C104      1.0  0.22909  0.82132  0.31957  1.0000
  C   C105      1.0  0.25034  0.82245  0.33532  1.0000
  C   C106      1.0  0.27081  0.84424  0.33156  1.0000
  C   C107      1.0  0.28235  0.85408  0.24973  1.0000
  C   C108      1.0  0.30385  0.87462  0.25303  1.0000
  H   H68       1.0  0.31233  0.88161  0.19424  1.0000
  H   H69       1.0  0.22872  0.83611  0.30687  1.0000
  N   N9        1.0  0.27380  0.84430  0.16864  1.0000
  H   H70       1.0  0.25920  0.83015  0.16281  1.0000
  H   H71       1.0  0.28205  0.85127  0.11344  1.0000
  N   N10       1.0  0.18693  0.79944  0.30705  1.0000
  O   O5        1.0  0.18610  0.80716  0.23125  1.0000
  O   O6        1.0  0.18345  0.81070  0.36566  1.0000
  C   C109      1.0  0.75123  0.60296  0.34082  1.0000
  C   C110      1.0  0.77162  0.62405  0.32320  1.0000
  C   C111      1.0  0.79297  0.62467  0.32156  1.0000
  C   C112      1.0  0.79454  0.60476  0.33663  1.0000
  C   C113      1.0  0.81652  0.60652  0.33236  1.0000
  C   C114      1.0  0.82636  0.60513  0.25019  1.0000
  C   C115      1.0  0.84711  0.60456  0.25291  1.0000
  H   H72       1.0  0.85411  0.60329  0.19388  1.0000
  H   H73       1.0  0.80759  0.63999  0.30904  1.0000
  N   N11       1.0  0.81638  0.60379  0.16931  1.0000
  H   H74       1.0  0.80206  0.60395  0.16389  1.0000
  H   H75       1.0  0.82335  0.60272  0.11389  1.0000
  N   N12       1.0  0.77046  0.64431  0.31000  1.0000
  O   O7        1.0  0.77800  0.65301  0.23434  1.0000
  O   O8        1.0  0.78159  0.65908  0.36889  1.0000
  C   C116      1.0  0.48880  0.23315  0.34345  1.0000
  C   C117      1.0  0.46771  0.23249  0.32585  1.0000
  C   C118      1.0  0.46711  0.25324  0.32421  1.0000
  C   C119      1.0  0.48703  0.27468  0.33926  1.0000
  C   C120      1.0  0.48529  0.29492  0.33500  1.0000
  C   C121      1.0  0.48667  0.30627  0.25282  1.0000
  C   C122      1.0  0.48723  0.32759  0.25553  1.0000
  H   H76       1.0  0.48848  0.33593  0.19648  1.0000
  H   H77       1.0  0.45180  0.25257  0.31171  1.0000
  N   N13       1.0  0.48799  0.29774  0.17194  1.0000
  H   H78       1.0  0.48782  0.28327  0.16652  1.0000
  H   H79       1.0  0.48904  0.30586  0.11651  1.0000
  N   N14       1.0  0.44744  0.21110  0.31268  1.0000
  O   O9        1.0  0.43875  0.21006  0.23703  1.0000
  O   O10       1.0  0.43269  0.20739  0.37158  1.0000
  C   C123      1.0  0.85860  0.34055  0.33918  1.0000
  C   C124      1.0  0.85926  0.32015  0.32175  1.0000
  C   C125      1.0  0.83852  0.29879  0.32047  1.0000
  C   C126      1.0  0.81708  0.29724  0.33574  1.0000
  C   C127      1.0  0.79685  0.27525  0.33200  1.0000
  C   C128      1.0  0.78539  0.26529  0.25012  1.0000
  C   C129      1.0  0.76408  0.24454  0.25340  1.0000
  H   H80       1.0  0.75565  0.23746  0.19457  1.0000
  H   H81       1.0  0.83919  0.28416  0.30813  1.0000
  N   N15       1.0  0.79381  0.27516  0.16900  1.0000
  H   H82       1.0  0.80827  0.28947  0.16319  1.0000
  H   H83       1.0  0.78561  0.26812  0.11377  1.0000
  N   N16       1.0  0.88065  0.32130  0.30839  1.0000
  O   O11       1.0  0.88163  0.31369  0.23279  1.0000
  O   O12       1.0  0.88442  0.31021  0.36735  1.0000
  C   C130      1.0  0.98264  0.51864  0.34077  1.0000
  C   C131      1.0  0.94882  0.59463  0.40966  1.0000
  C   C132      1.0  0.96684  0.58969  0.41114  1.0000
  C   C133      1.0  0.91804  0.61510  0.37231  1.0000
  C   C134      1.0  0.89894  0.61841  0.37302  1.0000
  C   C135      1.0  0.87798  0.60237  0.33222  1.0000
  C   C136      1.0  0.95037  0.44185  0.41395  1.0000
  C   C137      1.0  0.96816  0.46492  0.41337  1.0000
  C   C138      1.0  0.88377  0.37754  0.41453  1.0000
  C   C139      1.0  0.90287  0.39991  0.41393  1.0000
  C   C140      1.0  0.09876  0.53075  0.41112  1.0000
  C   C141      1.0  0.11662  0.52558  0.40962  1.0000
  C   C142      1.0  0.16568  0.50088  0.37230  1.0000
  C   C143      1.0  0.14681  0.50456  0.37172  1.0000
  C   C144      1.0  0.09778  0.65582  0.41284  1.0000
  C   C145      1.0  0.11571  0.67883  0.41340  1.0000
  C   C146      1.0  0.16345  0.72041  0.41367  1.0000
  C   C147      1.0  0.18276  0.74264  0.41431  1.0000
  H   H84       1.0  0.19321  0.74781  0.46949  1.0000
  H   H85       1.0  0.16085  0.71005  0.46784  1.0000
  H   H86       1.0  0.11857  0.68809  0.47094  1.0000
  H   H87       1.0  0.08844  0.64893  0.46996  1.0000
  H   H88       1.0  0.09037  0.52921  0.47004  1.0000
  H   H89       1.0  0.12088  0.52065  0.46812  1.0000
  H   H90       1.0  0.94566  0.53574  0.35553  1.0000
  H   H91       1.0  0.97755  0.47181  0.47047  1.0000
  H   H92       1.0  0.94764  0.43255  0.47150  1.0000
  H   H93       1.0  0.90532  0.41019  0.46799  1.0000
  H   H94       1.0  0.87335  0.37220  0.46962  1.0000
  H   H95       1.0  0.97521  0.59110  0.47018  1.0000
  H   H96       1.0  0.94445  0.59928  0.46828  1.0000
  H   H97       1.0  0.90051  0.63276  0.40324  1.0000
  H   H98       1.0  0.93294  0.62721  0.40197  1.0000
  H   H99       1.0  0.13183  0.49251  0.40098  1.0000
  H   H100      1.0  0.16387  0.48634  0.40205  1.0000
  C   C148      1.0  0.46307  0.50103  0.32205  1.0000
  C   C149      1.0  0.47492  0.48917  0.32188  1.0000
  C   C150      1.0  0.49825  0.50495  0.33336  1.0000
  N   N17       1.0  0.49969  0.52575  0.33969  1.0000
  C   C151      1.0  0.47889  0.52434  0.33372  1.0000
  C   C152      1.0  0.47322  0.54206  0.33872  1.0000
  C   C153      1.0  0.48962  0.56587  0.34323  1.0000
  N   N18       1.0  0.51274  0.57604  0.33781  1.0000
  C   C154      1.0  0.54679  0.61551  0.33802  1.0000
  C   C155      1.0  0.56449  0.60982  0.33350  1.0000
  N   N19       1.0  0.56306  0.58902  0.33993  1.0000
  C   C156      1.0  0.58385  0.59043  0.33399  1.0000
  C   C157      1.0  0.59966  0.61375  0.32237  1.0000
  C   C158      1.0  0.58781  0.62562  0.32210  1.0000
  C   C159      1.0  0.58952  0.57271  0.33896  1.0000
  C   C160      1.0  0.57313  0.54889  0.34337  1.0000
  N   N20       1.0  0.55000  0.53873  0.33799  1.0000
  C   C161      1.0  0.53977  0.51559  0.34295  1.0000
  C   C162      1.0  0.55749  0.51061  0.35211  1.0000
  C   C163      1.0  0.57802  0.53110  0.35256  1.0000
  C   C164      1.0  0.51595  0.49925  0.33806  1.0000
  C   C165      1.0  0.50955  0.47556  0.33562  1.0000
  C   C166      1.0  0.49970  0.42899  0.33299  1.0000
  C   C167      1.0  0.49714  0.43897  0.41233  1.0000
  C   C168      1.0  0.50206  0.46193  0.41381  1.0000
  C   C169      1.0  0.49599  0.40610  0.33271  1.0000
  C   C170      1.0  0.47666  0.38777  0.37490  1.0000
  C   C171      1.0  0.47336  0.36537  0.37562  1.0000
  C   C172      1.0  0.48941  0.36053  0.33480  1.0000
  C   C173      1.0  0.61324  0.57913  0.33825  1.0000
  C   C174      1.0  0.66015  0.58981  0.33959  1.0000
  C   C175      1.0  0.64993  0.59327  0.41640  1.0000
  C   C176      1.0  0.62686  0.58798  0.41594  1.0000
  C   C177      1.0  0.68331  0.59416  0.34129  1.0000
  C   C178      1.0  0.71427  0.59101  0.41644  1.0000
  C   C179      1.0  0.69188  0.58772  0.41598  1.0000
  C   C180      1.0  0.55322  0.63921  0.33571  1.0000
  C   C181      1.0  0.56102  0.65280  0.41378  1.0000
  C   C182      1.0  0.56619  0.67584  0.41229  1.0000
  C   C183      1.0  0.56354  0.68594  0.33309  1.0000
  C   C184      1.0  0.56760  0.70896  0.33276  1.0000
  C   C185      1.0  0.57495  0.75482  0.33462  1.0000
  C   C186      1.0  0.59089  0.74964  0.37498  1.0000
  C   C187      1.0  0.58722  0.72710  0.37439  1.0000
  C   C188      1.0  0.44951  0.53566  0.33779  1.0000
  C   C189      1.0  0.43592  0.52675  0.41540  1.0000
  C   C190      1.0  0.40272  0.52538  0.33911  1.0000
  C   C191      1.0  0.41291  0.52167  0.41585  1.0000
  C   C192      1.0  0.37966  0.52133  0.34090  1.0000
  C   C193      1.0  0.37131  0.52780  0.41577  1.0000
  C   C194      1.0  0.34908  0.52488  0.41623  1.0000
  H   H101      1.0  0.34389  0.53007  0.47134  1.0000
  H   H102      1.0  0.38165  0.53549  0.46998  1.0000
  H   H103      1.0  0.40364  0.51519  0.47335  1.0000
  H   H104      1.0  0.44280  0.52423  0.47260  1.0000
  H   H105      1.0  0.44569  0.49357  0.31471  1.0000
  H   H106      1.0  0.46743  0.47178  0.31453  1.0000
  H   H107      1.0  0.51370  0.53974  0.35270  1.0000
  H   H108      1.0  0.54903  0.57500  0.35246  1.0000
  H   H109      1.0  0.50675  0.61997  0.35803  1.0000
  H   H110      1.0  0.56253  0.64585  0.47273  1.0000
  H   H111      1.0  0.57110  0.68493  0.47079  1.0000
  H   H112      1.0  0.61704  0.62122  0.31501  1.0000
  H   H113      1.0  0.55602  0.49478  0.35803  1.0000
  H   H114      1.0  0.59380  0.53250  0.35882  1.0000
  H   H115      1.0  0.61999  0.59039  0.47311  1.0000
  H   H116      1.0  0.65925  0.59974  0.47391  1.0000
  H   H117      1.0  0.68163  0.57983  0.47014  1.0000
  H   H118      1.0  0.71964  0.58586  0.47148  1.0000
  H   H119      1.0  0.50067  0.46880  0.47289  1.0000
  H   H120      1.0  0.49248  0.42985  0.47092  1.0000
  H   H121      1.0  0.45902  0.35254  0.40586  1.0000
  H   H122      1.0  0.46455  0.39051  0.40459  1.0000
  H   H123      1.0  0.59926  0.72412  0.40366  1.0000
  H   H124      1.0  0.60543  0.76233  0.40472  1.0000
  C   C195      1.0  0.59074  0.04696  0.32449  1.0000
  C   C196      1.0  0.60261  0.07067  0.32415  1.0000
  C   C197      1.0  0.58682  0.07820  0.33546  1.0000
  N   N21       1.0  0.56603  0.05883  0.34198  1.0000
  C   C198      1.0  0.56743  0.03945  0.33605  1.0000
  C   C199      1.0  0.54971  0.01605  0.34098  1.0000
  C   C200      1.0  0.52590  0.00864  0.34542  1.0000
  N   N22       1.0  0.51573  0.02160  0.33997  1.0000
  C   C201      1.0  0.49260  0.00870  0.34488  1.0000
  C   C202      1.0  0.48762  0.98599  0.35399  1.0000
  C   C203      1.0  0.50811  0.98596  0.35454  1.0000
  C   C204      1.0  0.47626  0.01618  0.33991  1.0000
  C   C205      1.0  0.48195  0.03958  0.33532  1.0000
  N   N23       1.0  0.50275  0.05894  0.34194  1.0000
  C   C206      1.0  0.50134  0.07833  0.33608  1.0000
  C   C207      1.0  0.47803  0.07083  0.32417  1.0000
  C   C208      1.0  0.46617  0.04712  0.32372  1.0000
  C   C209      1.0  0.51906  0.10171  0.34125  1.0000
  C   C210      1.0  0.54288  0.10913  0.34558  1.0000
  N   N24       1.0  0.55303  0.09617  0.34010  1.0000
  C   C211      1.0  0.57617  0.10907  0.34486  1.0000
  C   C212      1.0  0.58116  0.13177  0.35401  1.0000
  C   C213      1.0  0.56067  0.13180  0.35467  1.0000
  C   C214      1.0  0.59251  0.10160  0.33988  1.0000
  C   C215      1.0  0.61619  0.11889  0.33701  1.0000
  C   C216      1.0  0.66276  0.15563  0.33340  1.0000
  C   C217      1.0  0.65287  0.14306  0.41301  1.0000
  C   C218      1.0  0.62991  0.12502  0.41498  1.0000
  C   C219      1.0  0.68565  0.17481  0.33259  1.0000
  C   C220      1.0  0.70403  0.17378  0.37461  1.0000
  C   C221      1.0  0.72644  0.19288  0.37474  1.0000
  C   C222      1.0  0.73124  0.21378  0.33356  1.0000
  C   C223      1.0  0.51263  0.11900  0.34060  1.0000
  C   C224      1.0  0.50194  0.15522  0.34206  1.0000
  C   C225      1.0  0.49848  0.14142  0.41883  1.0000
  C   C226      1.0  0.50377  0.12363  0.41832  1.0000
  C   C227      1.0  0.49758  0.17403  0.34382  1.0000
  C   C228      1.0  0.49080  0.21296  0.34486  1.0000
  C   C229      1.0  0.50073  0.20800  0.41905  1.0000
  C   C230      1.0  0.50401  0.18891  0.41857  1.0000
  C   C231      1.0  0.45256  0.99890  0.33712  1.0000
  C   C232      1.0  0.43888  0.99292  0.41492  1.0000
  C   C233      1.0  0.41584  0.97504  0.41292  1.0000
  C   C234      1.0  0.40584  0.96250  0.33344  1.0000
  C   C235      1.0  0.38282  0.94355  0.33255  1.0000
  C   C236      1.0  0.33695  0.90505  0.33326  1.0000
  C   C237      1.0  0.34208  0.92604  0.37394  1.0000
  C   C238      1.0  0.36463  0.94492  0.37392  1.0000
  C   C239      1.0  0.55611  0.99874  0.34011  1.0000
  C   C240      1.0  0.56500  0.99394  0.41777  1.0000
  C   C241      1.0  0.56639  0.96223  0.34153  1.0000
  C   C242      1.0  0.57008  0.97602  0.41826  1.0000
  C   C243      1.0  0.57044  0.94322  0.34337  1.0000
  C   C244      1.0  0.56396  0.92829  0.41825  1.0000
  C   C245      1.0  0.56688  0.90898  0.41874  1.0000
  C   C246      1.0  0.57649  0.90383  0.34444  1.0000
  H   H125      1.0  0.56169  0.89851  0.47386  1.0000
  H   H126      1.0  0.55626  0.93085  0.47243  1.0000
  H   H127      1.0  0.57655  0.97313  0.47580  1.0000
  H   H128      1.0  0.56751  0.00326  0.47495  1.0000
  H   H129      1.0  0.59821  0.03705  0.31717  1.0000
  H   H130      1.0  0.61999  0.08058  0.31671  1.0000
  H   H131      1.0  0.55202  0.05885  0.35441  1.0000
  H   H132      1.0  0.51675  0.05890  0.35513  1.0000
  H   H133      1.0  0.50951  0.97158  0.36087  1.0000
  H   H134      1.0  0.47180  0.97165  0.35995  1.0000
  H   H135      1.0  0.44574  0.00122  0.47405  1.0000
  H   H136      1.0  0.40667  0.97072  0.47123  1.0000
  H   H137      1.0  0.44878  0.03723  0.31613  1.0000
  H   H138      1.0  0.47056  0.08076  0.31676  1.0000
  H   H139      1.0  0.59699  0.14611  0.35980  1.0000
  H   H140      1.0  0.55927  0.14618  0.36094  1.0000
  H   H141      1.0  0.50137  0.11426  0.47546  1.0000
  H   H142      1.0  0.49201  0.14416  0.47637  1.0000
  H   H143      1.0  0.51192  0.18647  0.47267  1.0000
  H   H144      1.0  0.50590  0.21845  0.47406  1.0000
  H   H145      1.0  0.62311  0.11672  0.47422  1.0000
  H   H146      1.0  0.66207  0.14749  0.47144  1.0000
  H   H147      1.0  0.73930  0.19135  0.40481  1.0000
  H   H148      1.0  0.70132  0.15892  0.40449  1.0000
  H   H149      1.0  0.36757  0.95986  0.40343  1.0000
  H   H150      1.0  0.32936  0.92782  0.40355  1.0000
  C   C247      1.0  0.28985  0.53375  0.35447  1.0000
  C   C248      1.0  0.31088  0.53373  0.35646  1.0000
  H   H151      1.0  0.32572  0.54891  0.36816  1.0000
  C   C249      1.0  0.20625  0.51369  0.33390  1.0000
  C   C250      1.0  0.21590  0.51146  0.41537  1.0000
  C   C251      1.0  0.23633  0.51030  0.41320  1.0000
  H   H152      1.0  0.24353  0.50941  0.47254  1.0000
  N   N25       1.0  0.29017  0.55388  0.36920  1.0000
  H   H153      1.0  0.30445  0.56803  0.38129  1.0000
  H   H154      1.0  0.27628  0.55492  0.36741  1.0000
  N   N26       1.0  0.20575  0.51165  0.49807  1.0000
  O   O13       1.0  0.19978  0.49354  0.54177  1.0000
  O   O14       1.0  0.21914  0.52852  0.54548  1.0000
  C   C252      1.0  0.55804  0.84098  0.35705  1.0000
  C   C253      1.0  0.55806  0.86202  0.35907  1.0000
  H   H155      1.0  0.54287  0.86166  0.37071  1.0000
  C   C254      1.0  0.57809  0.77747  0.33653  1.0000
  C   C255      1.0  0.58031  0.78922  0.41800  1.0000
  C   C256      1.0  0.58150  0.81083  0.41581  1.0000
  H   H156      1.0  0.58237  0.81882  0.47515  1.0000
  N   N27       1.0  0.53792  0.82114  0.37177  1.0000
  H   H157      1.0  0.52375  0.82124  0.38380  1.0000
  H   H158      1.0  0.53688  0.80622  0.36993  1.0000
  N   N28       1.0  0.58011  0.77875  0.50070  1.0000
  O   O15       1.0  0.59822  0.79082  0.54444  1.0000
  O   O16       1.0  0.56324  0.77522  0.54808  1.0000
  C   C257      1.0  0.25079  0.80190  0.35337  1.0000
  C   C258      1.0  0.22975  0.78086  0.35500  1.0000
  H   H159      1.0  0.23010  0.76601  0.36656  1.0000
  C   C259      1.0  0.31431  0.88552  0.33465  1.0000
  C   C260      1.0  0.30245  0.87577  0.41584  1.0000
  C   C261      1.0  0.28086  0.85534  0.41312  1.0000
  H   H160      1.0  0.27278  0.84806  0.47227  1.0000
  N   N29       1.0  0.27062  0.80157  0.36825  1.0000
  H   H161      1.0  0.27050  0.78728  0.38020  1.0000
  H   H162      1.0  0.28554  0.81546  0.36674  1.0000
  N   N30       1.0  0.31281  0.88582  0.49881  1.0000
  O   O17       1.0  0.30067  0.89173  0.54241  1.0000
  O   O18       1.0  0.31629  0.87237  0.54610  1.0000
  C   C262      1.0  0.77423  0.58355  0.35442  1.0000
  C   C263      1.0  0.75299  0.58313  0.35644  1.0000
  H   H163      1.0  0.73830  0.56778  0.36774  1.0000
  C   C264      1.0  0.85823  0.60511  0.33426  1.0000
  C   C265      1.0  0.84846  0.60690  0.41579  1.0000
  C   C266      1.0  0.82781  0.60767  0.41367  1.0000
  H   H164      1.0  0.82053  0.60822  0.47304  1.0000
  N   N31       1.0  0.77432  0.56358  0.36865  1.0000
  H   H165      1.0  0.76018  0.54925  0.38034  1.0000
  H   H166      1.0  0.78836  0.56284  0.36676  1.0000
  N   N32       1.0  0.85872  0.60666  0.49848  1.0000
  O   O19       1.0  0.86440  0.62458  0.54272  1.0000
  O   O20       1.0  0.84552  0.58956  0.54538  1.0000
  C   C267      1.0  0.50824  0.27554  0.35703  1.0000
  C   C268      1.0  0.50864  0.25471  0.35903  1.0000
  H   H167      1.0  0.52399  0.25535  0.37034  1.0000
  C   C269      1.0  0.48668  0.33804  0.33687  1.0000
  C   C270      1.0  0.48490  0.32636  0.41841  1.0000
  C   C271      1.0  0.48414  0.30495  0.41630  1.0000
  H   H168      1.0  0.48357  0.29701  0.47567  1.0000
  N   N33       1.0  0.52821  0.29557  0.37126  1.0000
  H   H169      1.0  0.54254  0.29574  0.38301  1.0000
  H   H170      1.0  0.52897  0.31037  0.36946  1.0000
  N   N34       1.0  0.48512  0.33672  0.50109  1.0000
  O   O21       1.0  0.46720  0.32441  0.54530  1.0000
  O   O22       1.0  0.50222  0.34056  0.54803  1.0000
  C   C272      1.0  0.81622  0.31756  0.35329  1.0000
  C   C273      1.0  0.83704  0.33881  0.35495  1.0000
  H   H171      1.0  0.83640  0.35350  0.36614  1.0000
  C   C274      1.0  0.75374  0.23354  0.33503  1.0000
  C   C275      1.0  0.76552  0.24342  0.41629  1.0000
  C   C276      1.0  0.78693  0.26406  0.41360  1.0000
  H   H172      1.0  0.79494  0.27143  0.47277  1.0000
  N   N35       1.0  0.79619  0.31748  0.36767  1.0000
  H   H173      1.0  0.79602  0.33163  0.37921  1.0000
  H   H174      1.0  0.78140  0.30344  0.36603  1.0000
  N   N36       1.0  0.75526  0.23327  0.49925  1.0000
  O   O23       1.0  0.76762  0.22764  0.54341  1.0000
  O   O24       1.0  0.75149  0.24653  0.54601  1.0000
