data_image0
_chemical_formula_structural       C5OHOHCHC3OHOHCHC3O2H2CHCOHC2OHCHCNCNCN4CNCN4CN4CNCN4C3O2H2CHC3O2H2CHC3OHOHCHC2OHCHCOHC5OHOHCHC3OHOHCHC3O2H2CHC3O2H2CHC3O2H2CHC3O2H2C3OHOH2C3OHOHCHC3OHOHCHC3OHCHCNCNCN4CN2CNCNCN6CNCN6CNCN4CN2C3O2H2CHC3O2H2CHC3OHOHCHC3OHOHCHC3OHOHC4OHOHCHC3OHCHC3O2H2CHC3O2H2CHC2O2H3C4OHOHCHC3OHOHCHC2OHCNCNCN4CNCN3C3O2H2C4O2H2CH2OHC3HC3O2H2CHC2OHCHCOHCNCNCN5CNCN4HC3OHOHCHCOHC2OHCH
_chemical_formula_sum              "C180 O72 H108 N72"
_cell_length_a       59.9127
_cell_length_b       59.9128
_cell_length_c       14.5907
_cell_angle_alpha    90
_cell_angle_beta     90
_cell_angle_gamma    120

_space_group_name_H-M_alt    "P 1"
_space_group_IT_number       1

loop_
  _space_group_symop_operation_xyz
  'x, y, z'

loop_
  _atom_site_type_symbol
  _atom_site_label
  _atom_site_symmetry_multiplicity
  _atom_site_fract_x
  _atom_site_fract_y
  _atom_site_fract_z
  _atom_site_occupancy
  C   C1        1.0  0.36477  0.46115  0.36032  1.0000
  C   C2        1.0  0.12442  0.68761  0.36030  1.0000
  C   C3        1.0  0.27034  0.46470  0.35513  1.0000
  C   C4        1.0  0.25698  0.46484  0.27503  1.0000
  C   C5        1.0  0.23367  0.46549  0.28093  1.0000
  O   O1        1.0  0.22111  0.46459  0.20194  1.0000
  H   H1        1.0  0.22744  0.48260  0.18422  1.0000
  O   O2        1.0  0.26654  0.46454  0.19052  1.0000
  H   H2        1.0  0.25799  0.44637  0.17144  1.0000
  C   C6        1.0  0.29139  0.46074  0.34878  1.0000
  H   H3        1.0  0.28833  0.44392  0.32498  1.0000
  C   C7        1.0  0.22239  0.78204  0.35508  1.0000
  C   C8        1.0  0.23591  0.79538  0.27498  1.0000
  C   C9        1.0  0.25988  0.81868  0.28089  1.0000
  O   O3        1.0  0.27155  0.83123  0.20191  1.0000
  H   H4        1.0  0.28320  0.82485  0.18416  1.0000
  O   O4        1.0  0.22605  0.78582  0.19047  1.0000
  H   H5        1.0  0.21644  0.79438  0.17138  1.0000
  C   C10       1.0  0.19739  0.76100  0.34878  1.0000
  H   H6        1.0  0.18362  0.76406  0.32506  1.0000
  C   C11       1.0  0.16950  0.57323  0.35423  1.0000
  C   C12       1.0  0.16941  0.58659  0.27427  1.0000
  C   C13       1.0  0.16876  0.60979  0.28126  1.0000
  O   O5        1.0  0.16948  0.57709  0.18941  1.0000
  O   O6        1.0  0.16944  0.62251  0.20289  1.0000
  H   H7        1.0  0.18763  0.58539  0.17029  1.0000
  H   H8        1.0  0.15139  0.61581  0.18481  1.0000
  C   C14       1.0  0.17236  0.55180  0.34714  1.0000
  H   H9        1.0  0.18910  0.55413  0.32540  1.0000
  C   C15       1.0  0.04351  0.41530  0.28489  1.0000
  O   O7        1.0  0.05884  0.42520  0.20960  1.0000
  H   H10       1.0  0.06334  0.41219  0.19061  1.0000
  C   C16       1.0  0.05429  0.65731  0.34817  1.0000
  C   C17       1.0  0.03719  0.64888  0.27219  1.0000
  O   O8        1.0  0.04665  0.65216  0.18509  1.0000
  H   H11       1.0  0.04586  0.63591  0.16776  1.0000
  C   C18       1.0  0.07966  0.66297  0.33529  1.0000
  H   H12       1.0  0.08159  0.64912  0.30523  1.0000
  C   C19       1.0  0.12441  0.46114  0.36211  1.0000
  N   N1        1.0  0.14567  0.45825  0.35823  1.0000
  C   C20       1.0  0.17012  0.47919  0.35790  1.0000
  N   N2        1.0  0.17288  0.50312  0.35967  1.0000
  C   C21       1.0  0.15214  0.50660  0.36280  1.0000
  N   N3        1.0  0.12836  0.48556  0.36380  1.0000
  N   N4        1.0  0.10015  0.44121  0.35780  1.0000
  N   N5        1.0  0.15345  0.52929  0.36563  1.0000
  N   N6        1.0  0.19205  0.47851  0.35468  1.0000
  C   C22       1.0  0.36478  0.92795  0.36206  1.0000
  N   N7        1.0  0.34064  0.90669  0.35814  1.0000
  C   C23       1.0  0.33712  0.88224  0.35779  1.0000
  N   N8        1.0  0.35830  0.87949  0.35956  1.0000
  N   N9        1.0  0.36910  0.95221  0.35779  1.0000
  N   N10       1.0  0.31452  0.86032  0.35444  1.0000
  N   N11       1.0  0.34063  0.45826  0.36424  1.0000
  C   C24       1.0  0.33711  0.47920  0.36463  1.0000
  N   N12       1.0  0.35829  0.50313  0.36289  1.0000
  N   N13       1.0  0.36910  0.44122  0.36454  1.0000
  N   N14       1.0  0.31451  0.47852  0.36795  1.0000
  N   N15       1.0  0.14567  0.71175  0.36421  1.0000
  C   C25       1.0  0.17014  0.71528  0.36458  1.0000
  N   N16       1.0  0.17289  0.69410  0.36283  1.0000
  C   C26       1.0  0.15216  0.66988  0.35965  1.0000
  N   N17       1.0  0.12838  0.66714  0.35860  1.0000
  N   N18       1.0  0.10016  0.68327  0.36455  1.0000
  N   N19       1.0  0.15348  0.64850  0.35685  1.0000
  N   N20       1.0  0.19205  0.73788  0.36788  1.0000
  C   C27       1.0  0.22239  0.46468  0.36719  1.0000
  C   C28       1.0  0.23593  0.46489  0.44729  1.0000
  C   C29       1.0  0.25989  0.46555  0.44138  1.0000
  O   O9        1.0  0.22609  0.46463  0.53180  1.0000
  O   O10       1.0  0.27159  0.46472  0.52035  1.0000
  H   H13       1.0  0.21646  0.44647  0.55098  1.0000
  H   H14       1.0  0.28322  0.48275  0.53803  1.0000
  C   C30       1.0  0.19738  0.46071  0.37350  1.0000
  H   H15       1.0  0.18359  0.44382  0.39672  1.0000
  C   C31       1.0  0.27036  0.82997  0.36714  1.0000
  C   C32       1.0  0.25701  0.81644  0.44723  1.0000
  C   C33       1.0  0.23370  0.79249  0.44133  1.0000
  O   O11       1.0  0.26659  0.82629  0.53174  1.0000
  O   O12       1.0  0.22116  0.78082  0.52033  1.0000
  H   H16       1.0  0.25805  0.83591  0.55092  1.0000
  H   H17       1.0  0.22752  0.76915  0.53801  1.0000
  C   C34       1.0  0.29139  0.85498  0.37347  1.0000
  H   H18       1.0  0.28832  0.86874  0.39718  1.0000
  C   C35       1.0  0.16952  0.62060  0.36835  1.0000
  C   C36       1.0  0.16938  0.60714  0.44832  1.0000
  C   C37       1.0  0.16873  0.58328  0.44131  1.0000
  O   O13       1.0  0.16937  0.57122  0.51968  1.0000
  H   H19       1.0  0.15130  0.55988  0.53767  1.0000
  O   O14       1.0  0.16944  0.61671  0.53317  1.0000
  H   H20       1.0  0.18759  0.62655  0.55237  1.0000
  C   C38       1.0  0.17238  0.64490  0.37544  1.0000
  H   H21       1.0  0.18911  0.65931  0.39726  1.0000
  C   C39       1.0  0.05427  0.42129  0.37420  1.0000
  C   C40       1.0  0.03717  0.41249  0.45013  1.0000
  O   O15       1.0  0.04664  0.41858  0.53724  1.0000
  H   H22       1.0  0.04585  0.43402  0.55485  1.0000
  C   C41       1.0  0.07965  0.44102  0.38692  1.0000
  H   H23       1.0  0.08157  0.45679  0.41706  1.0000
  C   C42       1.0  0.04351  0.65265  0.43740  1.0000
  O   O16       1.0  0.05884  0.65819  0.51273  1.0000
  H   H24       1.0  0.06329  0.67570  0.53149  1.0000
  C   C43       1.0  0.46239  0.12318  0.36028  1.0000
  C   C44       1.0  0.59126  0.92796  0.36011  1.0000
  C   C45       1.0  0.58771  0.82999  0.35496  1.0000
  C   C46       1.0  0.58750  0.81642  0.27495  1.0000
  C   C47       1.0  0.58684  0.79246  0.28103  1.0000
  O   O17       1.0  0.58768  0.78072  0.20215  1.0000
  H   H25       1.0  0.56965  0.76911  0.18440  1.0000
  O   O18       1.0  0.58775  0.82621  0.19037  1.0000
  H   H26       1.0  0.60591  0.83581  0.17113  1.0000
  C   C48       1.0  0.59164  0.85498  0.34844  1.0000
  H   H27       1.0  0.60841  0.86871  0.32416  1.0000
  C   C49       1.0  0.46593  0.22115  0.35518  1.0000
  C   C50       1.0  0.46608  0.23465  0.27504  1.0000
  C   C51       1.0  0.46673  0.25861  0.28090  1.0000
  O   O19       1.0  0.46583  0.27026  0.20188  1.0000
  H   H28       1.0  0.48385  0.28195  0.18418  1.0000
  O   O20       1.0  0.46578  0.22478  0.19056  1.0000
  H   H29       1.0  0.44761  0.21516  0.17148  1.0000
  C   C52       1.0  0.46196  0.19614  0.34887  1.0000
  H   H30       1.0  0.44512  0.18237  0.32523  1.0000
  C   C53       1.0  0.47916  0.62060  0.35417  1.0000
  C   C54       1.0  0.46580  0.60715  0.27421  1.0000
  C   C55       1.0  0.44260  0.58330  0.28123  1.0000
  O   O21       1.0  0.47529  0.61673  0.18935  1.0000
  O   O22       1.0  0.42988  0.57127  0.20286  1.0000
  H   H31       1.0  0.46699  0.62658  0.17024  1.0000
  H   H32       1.0  0.43657  0.55991  0.18479  1.0000
  C   C56       1.0  0.50059  0.64490  0.34706  1.0000
  H   H33       1.0  0.49826  0.65931  0.32529  1.0000
  C   C57       1.0  0.43180  0.88287  0.35425  1.0000
  C   C58       1.0  0.44526  0.88299  0.27430  1.0000
  C   C59       1.0  0.46912  0.88364  0.28132  1.0000
  O   O23       1.0  0.43569  0.88292  0.18943  1.0000
  O   O24       1.0  0.48117  0.88299  0.20297  1.0000
  H   H34       1.0  0.42584  0.86477  0.17029  1.0000
  H   H35       1.0  0.49250  0.90105  0.18490  1.0000
  C   C60       1.0  0.40750  0.88001  0.34714  1.0000
  H   H36       1.0  0.39307  0.86324  0.32569  1.0000
  C   C61       1.0  0.57448  0.43055  0.35420  1.0000
  C   C62       1.0  0.58783  0.44400  0.27423  1.0000
  C   C63       1.0  0.61103  0.46786  0.28124  1.0000
  O   O25       1.0  0.57833  0.43443  0.18937  1.0000
  O   O26       1.0  0.62374  0.47989  0.20287  1.0000
  H   H37       1.0  0.58663  0.42457  0.17025  1.0000
  H   H38       1.0  0.61704  0.49124  0.18479  1.0000
  C   C64       1.0  0.55304  0.40625  0.34709  1.0000
  H   H39       1.0  0.55538  0.39183  0.32550  1.0000
  C   C65       1.0  0.62184  0.16826  0.35424  1.0000
  C   C66       1.0  0.60839  0.16816  0.27428  1.0000
  C   C67       1.0  0.58454  0.16751  0.28128  1.0000
  O   O27       1.0  0.61797  0.16823  0.18942  1.0000
  O   O28       1.0  0.57251  0.16819  0.20291  1.0000
  H   H40       1.0  0.62782  0.18639  0.17029  1.0000
  H   H41       1.0  0.56115  0.15013  0.18484  1.0000
  C   C68       1.0  0.64614  0.17112  0.34714  1.0000
  C   C69       1.0  0.65013  0.63857  0.27214  1.0000
  C   C70       1.0  0.63713  0.65264  0.28504  1.0000
  O   O29       1.0  0.62732  0.65824  0.20989  1.0000
  H   H42       1.0  0.64044  0.67568  0.19085  1.0000
  O   O30       1.0  0.65343  0.63245  0.18499  1.0000
  H   H43       1.0  0.63719  0.61702  0.16751  1.0000
  H   H44       1.0  0.65041  0.59438  0.30477  1.0000
  C   C71       1.0  0.42257  0.05304  0.34805  1.0000
  C   C72       1.0  0.41384  0.03594  0.27210  1.0000
  C   C73       1.0  0.39976  0.00887  0.28487  1.0000
  O   O31       1.0  0.39419  0.99350  0.20963  1.0000
  H   H45       1.0  0.37672  0.98913  0.19067  1.0000
  O   O32       1.0  0.41999  0.04540  0.18499  1.0000
  H   H46       1.0  0.43544  0.04460  0.16758  1.0000
  C   C74       1.0  0.44229  0.07843  0.33529  1.0000
  H   H47       1.0  0.45806  0.08036  0.30515  1.0000
  C   C75       1.0  0.39505  0.42130  0.34814  1.0000
  C   C76       1.0  0.40353  0.41267  0.27218  1.0000
  C   C77       1.0  0.41653  0.39859  0.28489  1.0000
  O   O33       1.0  0.42642  0.39314  0.20960  1.0000
  H   H48       1.0  0.41341  0.37563  0.19064  1.0000
  O   O34       1.0  0.40029  0.41888  0.18508  1.0000
  H   H49       1.0  0.41654  0.43435  0.16787  1.0000
  C   C78       1.0  0.38939  0.44102  0.33526  1.0000
  H   H50       1.0  0.40325  0.45680  0.30524  1.0000
  C   C79       1.0  0.63108  0.99810  0.34788  1.0000
  C   C80       1.0  0.63986  0.01522  0.27200  1.0000
  C   C81       1.0  0.65392  0.04230  0.28486  1.0000
  O   O35       1.0  0.63379  0.00579  0.18484  1.0000
  H   H51       1.0  0.61836  0.00659  0.16721  1.0000
  C   C82       1.0  0.61139  0.97271  0.33492  1.0000
  H   H52       1.0  0.59565  0.97077  0.30458  1.0000
  C   C83       1.0  0.59126  0.68762  0.36222  1.0000
  N   N21       1.0  0.59414  0.71176  0.35814  1.0000
  C   C84       1.0  0.57321  0.71528  0.35772  1.0000
  N   N22       1.0  0.54927  0.69410  0.35949  1.0000
  C   C85       1.0  0.54579  0.66989  0.36276  1.0000
  N   N23       1.0  0.56683  0.66715  0.36389  1.0000
  N   N24       1.0  0.61117  0.68327  0.35785  1.0000
  N   N25       1.0  0.52310  0.64851  0.36559  1.0000
  N   N26       1.0  0.57390  0.73789  0.35427  1.0000
  C   C86       1.0  0.38252  0.90022  0.36274  1.0000
  N   N27       1.0  0.38525  0.92401  0.36377  1.0000
  N   N28       1.0  0.40390  0.89892  0.36551  1.0000
  C   C87       1.0  0.46238  0.36353  0.36206  1.0000
  N   N29       1.0  0.45949  0.33939  0.35820  1.0000
  C   C88       1.0  0.48043  0.33587  0.35785  1.0000
  N   N30       1.0  0.50436  0.35705  0.35962  1.0000
  C   C89       1.0  0.50785  0.38127  0.36274  1.0000
  N   N31       1.0  0.48680  0.38400  0.36374  1.0000
  N   N32       1.0  0.44245  0.36786  0.35779  1.0000
  N   N33       1.0  0.53053  0.40265  0.36553  1.0000
  N   N34       1.0  0.47976  0.31327  0.35468  1.0000
  N   N35       1.0  0.64975  0.15222  0.36566  1.0000
  N   N36       1.0  0.45950  0.14443  0.36422  1.0000
  C   C90       1.0  0.48044  0.16889  0.36462  1.0000
  N   N37       1.0  0.50437  0.17165  0.36287  1.0000
  C   C91       1.0  0.50786  0.15092  0.35968  1.0000
  N   N38       1.0  0.48682  0.12714  0.35861  1.0000
  N   N39       1.0  0.44247  0.09892  0.36454  1.0000
  N   N40       1.0  0.53055  0.15224  0.35686  1.0000
  N   N41       1.0  0.47975  0.19081  0.36792  1.0000
  N   N42       1.0  0.64973  0.52185  0.35681  1.0000
  N   N43       1.0  0.59415  0.90671  0.36415  1.0000
  C   C92       1.0  0.57321  0.88225  0.36461  1.0000
  N   N44       1.0  0.54928  0.87950  0.36289  1.0000
  C   C93       1.0  0.54579  0.90023  0.35965  1.0000
  N   N45       1.0  0.56684  0.92401  0.35849  1.0000
  N   N46       1.0  0.61118  0.95223  0.36444  1.0000
  N   N47       1.0  0.52310  0.89892  0.35684  1.0000
  N   N48       1.0  0.57390  0.86034  0.36802  1.0000
  C   C94       1.0  0.38250  0.50662  0.35971  1.0000
  N   N49       1.0  0.38524  0.48557  0.35864  1.0000
  N   N50       1.0  0.40389  0.52931  0.35693  1.0000
  C   C95       1.0  0.58771  0.78204  0.36736  1.0000
  C   C96       1.0  0.58754  0.79543  0.44737  1.0000
  C   C97       1.0  0.58688  0.81873  0.44130  1.0000
  O   O36       1.0  0.58782  0.78590  0.53195  1.0000
  O   O37       1.0  0.58775  0.83132  0.52018  1.0000
  H   H53       1.0  0.60598  0.79446  0.55111  1.0000
  H   H54       1.0  0.56973  0.82491  0.53800  1.0000
  C   C98       1.0  0.59164  0.76098  0.37389  1.0000
  H   H55       1.0  0.60839  0.76401  0.39830  1.0000
  C   C99       1.0  0.46591  0.26910  0.36714  1.0000
  C   C100      1.0  0.46612  0.25578  0.44726  1.0000
  C   C101      1.0  0.46678  0.23247  0.44140  1.0000
  O   O38       1.0  0.46585  0.26536  0.53175  1.0000
  O   O39       1.0  0.46593  0.21994  0.52040  1.0000
  H   H56       1.0  0.44769  0.25683  0.55090  1.0000
  H   H57       1.0  0.48396  0.22633  0.53809  1.0000
  C   C102      1.0  0.46194  0.29013  0.37339  1.0000
  H   H58       1.0  0.44504  0.28702  0.39646  1.0000
  C   C103      1.0  0.43179  0.57325  0.36832  1.0000
  C   C104      1.0  0.44526  0.58659  0.44827  1.0000
  C   C105      1.0  0.46912  0.60979  0.44127  1.0000
  O   O40       1.0  0.48117  0.62249  0.51962  1.0000
  H   H59       1.0  0.49251  0.61577  0.53764  1.0000
  O   O41       1.0  0.43569  0.57708  0.53314  1.0000
  H   H60       1.0  0.42585  0.58538  0.55232  1.0000
  C   C106      1.0  0.40749  0.55181  0.37544  1.0000
  H   H61       1.0  0.39308  0.55415  0.39707  1.0000
  C   C107      1.0  0.47916  0.88288  0.36841  1.0000
  C   C108      1.0  0.46581  0.88299  0.44837  1.0000
  C   C109      1.0  0.44261  0.88364  0.44135  1.0000
  O   O42       1.0  0.42990  0.88297  0.51971  1.0000
  H   H62       1.0  0.43659  0.90103  0.53771  1.0000
  O   O43       1.0  0.47532  0.88293  0.53324  1.0000
  H   H63       1.0  0.46701  0.86478  0.55240  1.0000
  C   C110      1.0  0.50060  0.88003  0.37555  1.0000
  H   H64       1.0  0.49828  0.86330  0.39745  1.0000
  C   C111      1.0  0.62184  0.47790  0.36833  1.0000
  C   C112      1.0  0.60837  0.46457  0.44829  1.0000
  C   C113      1.0  0.58452  0.44137  0.44128  1.0000
  O   O44       1.0  0.57247  0.42866  0.51964  1.0000
  H   H65       1.0  0.56112  0.43538  0.53764  1.0000
  O   O45       1.0  0.61794  0.47408  0.53315  1.0000
  H   H66       1.0  0.62778  0.46577  0.55234  1.0000
  C   C114      1.0  0.64613  0.49935  0.37543  1.0000
  C   C115      1.0  0.57449  0.16827  0.36837  1.0000
  C   C116      1.0  0.58783  0.16815  0.44833  1.0000
  C   C117      1.0  0.61103  0.16749  0.44133  1.0000
  O   O46       1.0  0.62373  0.16815  0.51969  1.0000
  H   H67       1.0  0.61701  0.15009  0.53772  1.0000
  O   O47       1.0  0.57832  0.16821  0.53319  1.0000
  H   H68       1.0  0.58663  0.18636  0.55237  1.0000
  C   C118      1.0  0.55305  0.17113  0.37548  1.0000
  H   H69       1.0  0.55538  0.18786  0.39733  1.0000
  C   C119      1.0  0.63107  0.65730  0.37440  1.0000
  C   C120      1.0  0.63980  0.64889  0.45026  1.0000
  C   C121      1.0  0.65385  0.63587  0.43740  1.0000
  O   O48       1.0  0.63369  0.65220  0.53744  1.0000
  H   H70       1.0  0.61825  0.63595  0.55492  1.0000
  C   C122      1.0  0.61140  0.66302  0.38748  1.0000
  H   H71       1.0  0.59566  0.64923  0.41793  1.0000
  C   C123      1.0  0.39505  0.99808  0.37414  1.0000
  C   C124      1.0  0.40348  0.01521  0.45005  1.0000
  C   C125      1.0  0.41650  0.04229  0.43736  1.0000
  O   O49       1.0  0.40017  0.00576  0.53718  1.0000
  O   O50       1.0  0.42633  0.05764  0.51265  1.0000
  H   H72       1.0  0.41641  0.00653  0.55457  1.0000
  H   H73       1.0  0.41329  0.06210  0.53149  1.0000
  C   C126      1.0  0.38940  0.97271  0.38704  1.0000
  H   H74       1.0  0.40325  0.97079  0.41707  1.0000
  C   C127      1.0  0.42253  0.39382  0.37420  1.0000
  C   C128      1.0  0.41374  0.40214  0.45012  1.0000
  C   C129      1.0  0.39968  0.41515  0.43739  1.0000
  O   O51       1.0  0.41984  0.39877  0.53723  1.0000
  O   O52       1.0  0.39405  0.42490  0.51267  1.0000
  H   H75       1.0  0.43528  0.41500  0.55482  1.0000
  H   H76       1.0  0.37658  0.41177  0.53149  1.0000
  C   C130      1.0  0.44226  0.38818  0.38692  1.0000
  H   H77       1.0  0.45803  0.40202  0.41701  1.0000
  C   C131      1.0  0.65008  0.03589  0.45009  1.0000
  C   C132      1.0  0.63707  0.00881  0.43727  1.0000
  O   O53       1.0  0.65333  0.04532  0.53724  1.0000
  O   O54       1.0  0.62721  0.99342  0.51243  1.0000
  H   H78       1.0  0.63708  0.04451  0.55456  1.0000
  H   H79       1.0  0.64032  0.98908  0.53158  1.0000
  H   H80       1.0  0.65041  0.08035  0.41747  1.0000
  C   C133      1.0  0.68884  0.59001  0.36026  1.0000
  C   C134      1.0  0.78326  0.58646  0.35516  1.0000
  C   C135      1.0  0.79661  0.58630  0.27502  1.0000
  C   C136      1.0  0.81991  0.58563  0.28086  1.0000
  O   O55       1.0  0.83245  0.58652  0.20185  1.0000
  H   H81       1.0  0.82609  0.56850  0.18410  1.0000
  O   O56       1.0  0.78704  0.58661  0.19054  1.0000
  H   H82       1.0  0.79559  0.60478  0.17147  1.0000
  C   C137      1.0  0.76223  0.59043  0.34888  1.0000
  H   H83       1.0  0.76531  0.60728  0.32525  1.0000
  C   C138      1.0  0.83121  0.26907  0.35503  1.0000
  C   C139      1.0  0.81766  0.25573  0.27497  1.0000
  C   C140      1.0  0.79371  0.23243  0.28097  1.0000
  O   O57       1.0  0.78199  0.21987  0.20203  1.0000
  H   H84       1.0  0.77036  0.22628  0.18434  1.0000
  O   O58       1.0  0.82748  0.26530  0.19043  1.0000
  H   H85       1.0  0.83708  0.25675  0.17118  1.0000
  C   C141      1.0  0.85621  0.29013  0.34860  1.0000
  H   H86       1.0  0.66055  0.18785  0.32528  1.0000
  C   C142      1.0  0.65852  0.62982  0.34801  1.0000
  C   C143      1.0  0.66421  0.61013  0.33507  1.0000
  O   O59       1.0  0.65956  0.05770  0.20967  1.0000
  H   H87       1.0  0.67702  0.06203  0.19081  1.0000
  C   C144      1.0  0.68884  0.12316  0.36205  1.0000
  N   N51       1.0  0.71298  0.14441  0.35806  1.0000
  C   C145      1.0  0.71651  0.16887  0.35769  1.0000
  N   N52       1.0  0.69534  0.17163  0.35954  1.0000
  C   C146      1.0  0.67112  0.15090  0.36278  1.0000
  N   N53       1.0  0.66838  0.12712  0.36381  1.0000
  N   N54       1.0  0.68450  0.09890  0.35773  1.0000
  N   N55       1.0  0.73912  0.19078  0.35435  1.0000
  N   N56       1.0  0.71298  0.59290  0.36420  1.0000
  C   C147      1.0  0.71650  0.57196  0.36457  1.0000
  N   N57       1.0  0.69532  0.54803  0.36280  1.0000
  C   C148      1.0  0.67111  0.54454  0.35962  1.0000
  N   N58       1.0  0.66836  0.56558  0.35857  1.0000
  N   N59       1.0  0.68449  0.60992  0.36455  1.0000
  N   N60       1.0  0.73910  0.57264  0.36788  1.0000
  C   C149      1.0  0.83120  0.58643  0.36708  1.0000
  C   C150      1.0  0.81769  0.58625  0.44721  1.0000
  C   C151      1.0  0.79373  0.58559  0.44138  1.0000
  O   O60       1.0  0.82754  0.58651  0.53169  1.0000
  O   O61       1.0  0.78207  0.58646  0.52040  1.0000
  H   H88       1.0  0.83717  0.60467  0.55086  1.0000
  H   H89       1.0  0.77040  0.56844  0.53805  1.0000
  C   C152      1.0  0.85622  0.59041  0.37335  1.0000
  C   C153      1.0  0.78328  0.22113  0.36725  1.0000
  C   C154      1.0  0.79664  0.23466  0.44731  1.0000
  C   C155      1.0  0.81994  0.25862  0.44133  1.0000
  O   O62       1.0  0.78710  0.22482  0.53185  1.0000
  O   O63       1.0  0.83251  0.27032  0.52026  1.0000
  H   H90       1.0  0.79566  0.21522  0.55097  1.0000
  H   H91       1.0  0.82612  0.28194  0.53806  1.0000
  C   C156      1.0  0.76223  0.19613  0.37368  1.0000
  H   H92       1.0  0.76528  0.18238  0.39765  1.0000
  H   H93       1.0  0.66054  0.49703  0.39728  1.0000
  O   O64       1.0  0.65944  0.62605  0.51256  1.0000
  H   H94       1.0  0.67690  0.63916  0.53156  1.0000
  C   C157      1.0  0.65853  0.05302  0.37420  1.0000
  C   C158      1.0  0.66421  0.07841  0.38715  1.0000
  C   C159      1.0  0.92917  0.36351  0.36028  1.0000
  H   H95       1.0  0.86996  0.28708  0.32460  1.0000
  C   C160      1.0  0.88409  0.47788  0.35424  1.0000
  C   C161      1.0  0.88418  0.46452  0.27429  1.0000
  C   C162      1.0  0.88484  0.44131  0.28131  1.0000
  O   O65       1.0  0.88410  0.47401  0.18941  1.0000
  O   O66       1.0  0.88415  0.42859  0.20296  1.0000
  H   H96       1.0  0.86595  0.46570  0.17030  1.0000
  H   H97       1.0  0.90220  0.43531  0.18484  1.0000
  C   C163      1.0  0.88124  0.49932  0.34711  1.0000
  H   H98       1.0  0.86451  0.49700  0.32523  1.0000
  C   C164      1.0  0.99931  0.39381  0.34816  1.0000
  C   C165      1.0  0.01642  0.40230  0.27220  1.0000
  O   O67       1.0  0.00697  0.39907  0.18510  1.0000
  H   H99       1.0  0.00776  0.41533  0.16792  1.0000
  C   C166      1.0  0.97394  0.38816  0.33531  1.0000
  H   H100      1.0  0.97200  0.40200  0.30522  1.0000
  C   C167      1.0  0.01010  0.63587  0.28485  1.0000
  O   O68       1.0  0.99475  0.62604  0.20959  1.0000
  H   H101      1.0  0.99038  0.63912  0.19052  1.0000
  C   C168      1.0  0.92918  0.58998  0.36209  1.0000
  N   N61       1.0  0.90793  0.59287  0.35816  1.0000
  C   C169      1.0  0.88347  0.57193  0.35784  1.0000
  N   N62       1.0  0.88071  0.54800  0.35966  1.0000
  C   C170      1.0  0.90145  0.54451  0.36286  1.0000
  N   N63       1.0  0.92523  0.56556  0.36386  1.0000
  N   N64       1.0  0.95344  0.60991  0.35781  1.0000
  N   N65       1.0  0.90013  0.52182  0.36571  1.0000
  N   N66       1.0  0.86155  0.57261  0.35450  1.0000
  N   N67       1.0  0.90793  0.33937  0.36422  1.0000
  C   C171      1.0  0.88347  0.33584  0.36462  1.0000
  N   N68       1.0  0.88071  0.35702  0.36289  1.0000
  C   C172      1.0  0.90144  0.38124  0.35970  1.0000
  N   N69       1.0  0.92522  0.38398  0.35861  1.0000
  N   N70       1.0  0.95344  0.36785  0.36454  1.0000
  N   N71       1.0  0.90012  0.40261  0.35688  1.0000
  N   N72       1.0  0.86155  0.31324  0.36797  1.0000
  H   H102      1.0  0.86999  0.60727  0.39687  1.0000
  C   C173      1.0  0.88409  0.43052  0.36841  1.0000
  C   C174      1.0  0.88423  0.44400  0.44837  1.0000
  C   C175      1.0  0.88488  0.46785  0.44133  1.0000
  O   O69       1.0  0.88425  0.47992  0.51968  1.0000
  H   H103      1.0  0.90232  0.49125  0.53767  1.0000
  O   O70       1.0  0.88419  0.43444  0.53324  1.0000
  H   H104      1.0  0.86605  0.42460  0.55247  1.0000
  C   C176      1.0  0.88123  0.40622  0.37554  1.0000
  H   H105      1.0  0.86450  0.39182  0.39742  1.0000
  C   C177      1.0  0.01009  0.39842  0.43741  1.0000
  O   O71       1.0  0.99472  0.39280  0.51269  1.0000
  H   H106      1.0  0.99038  0.37532  0.53147  1.0000
  C   C178      1.0  0.99931  0.62983  0.37411  1.0000
  C   C179      1.0  0.01642  0.63856  0.45006  1.0000
  O   O72       1.0  0.00696  0.63245  0.53717  1.0000
  H   H107      1.0  0.00774  0.61699  0.55469  1.0000
  C   C180      1.0  0.97394  0.61011  0.38701  1.0000
  H   H108      1.0  0.97203  0.59434  0.41702  1.0000
