data_image0
_chemical_formula_structural       C4NC2NHOHC4NC2NHOHC4NC2NHOHC4NC2NHOHC4NC2NHOHC4NC2NHOHC2H2OC2H2OC2H2OC2H2OC2H2OC2H2OC4NC2NHOHC4NC2NHOHC4NC2NHOHC4NC2NHOHC4NC2NHOHC4NC2NHOHC6H3C6H3C6H3C6H3C6H3C6H3C6H3C6H3C6H3C6H3C6H3C6H3C2H2C2H2C2H2C2H2C2H2C2H2C4NC2NH2C4NC2NH2C4NC2NH2C4NC2NH2C4NC2NH2C4NC2NH2C2H2C2H2C2H2C2H2C2H2C2H2
_chemical_formula_sum              "C216 N36 H108 O18"
_cell_length_a       39.8507
_cell_length_b       39.8508
_cell_length_c       14.8322
_cell_angle_alpha    90
_cell_angle_beta     90
_cell_angle_gamma    120

_space_group_name_H-M_alt    "P 1"
_space_group_IT_number       1

loop_
  _space_group_symop_operation_xyz
  'x, y, z'

loop_
  _atom_site_type_symbol
  _atom_site_label
  _atom_site_symmetry_multiplicity
  _atom_site_fract_x
  _atom_site_fract_y
  _atom_site_fract_z
  _atom_site_occupancy
  C   C1        1.0  0.19900  0.45877  0.34065  1.0000
  C   C2        1.0  0.21714  0.45855  0.25801  1.0000
  C   C3        1.0  0.25306  0.45859  0.25984  1.0000
  C   C4        1.0  0.27117  0.45878  0.34227  1.0000
  N   N1        1.0  0.27041  0.45966  0.18004  1.0000
  C   C5        1.0  0.25529  0.46037  0.09888  1.0000
  C   C6        1.0  0.22004  0.46023  0.09634  1.0000
  N   N2        1.0  0.20221  0.45944  0.17522  1.0000
  H   H1        1.0  0.26954  0.46114  0.04101  1.0000
  O   O1        1.0  0.20433  0.46112  0.01611  1.0000
  H   H2        1.0  0.17783  0.45942  0.17094  1.0000
  C   C7        1.0  0.57392  0.76161  0.34063  1.0000
  C   C8        1.0  0.57413  0.77996  0.25801  1.0000
  C   C9        1.0  0.57409  0.81584  0.25985  1.0000
  C   C10       1.0  0.57390  0.83375  0.34229  1.0000
  N   N3        1.0  0.57302  0.83213  0.18005  1.0000
  C   C11       1.0  0.57232  0.81631  0.09889  1.0000
  C   C12       1.0  0.57246  0.78119  0.09634  1.0000
  N   N4        1.0  0.57325  0.76415  0.17520  1.0000
  H   H3        1.0  0.57155  0.82979  0.04103  1.0000
  O   O2        1.0  0.57158  0.76461  0.01610  1.0000
  H   H4        1.0  0.57328  0.73980  0.17091  1.0000
  C   C13       1.0  0.27109  0.83368  0.34062  1.0000
  C   C14       1.0  0.25272  0.81555  0.25799  1.0000
  C   C15       1.0  0.21684  0.77963  0.25985  1.0000
  C   C16       1.0  0.19890  0.76153  0.34226  1.0000
  N   N5        1.0  0.20055  0.76229  0.18005  1.0000
  C   C17       1.0  0.21637  0.77739  0.09889  1.0000
  C   C18       1.0  0.25150  0.81264  0.09633  1.0000
  N   N6        1.0  0.26854  0.83047  0.17519  1.0000
  H   H5        1.0  0.20288  0.76314  0.04102  1.0000
  O   O3        1.0  0.26808  0.82833  0.01609  1.0000
  H   H6        1.0  0.29290  0.85484  0.17090  1.0000
  C   C19       1.0  0.83038  0.57732  0.34055  1.0000
  C   C20       1.0  0.81221  0.57751  0.25795  1.0000
  C   C21       1.0  0.77628  0.57746  0.25979  1.0000
  C   C22       1.0  0.75818  0.57728  0.34222  1.0000
  N   N7        1.0  0.75893  0.57639  0.18001  1.0000
  C   C23       1.0  0.77403  0.57567  0.09884  1.0000
  C   C24       1.0  0.80929  0.57581  0.09628  1.0000
  N   N8        1.0  0.82713  0.57662  0.17514  1.0000
  H   H7        1.0  0.75977  0.57489  0.04098  1.0000
  O   O4        1.0  0.82499  0.57493  0.01604  1.0000
  H   H8        1.0  0.85151  0.57666  0.17084  1.0000
  C   C25       1.0  0.45538  0.27443  0.34058  1.0000
  C   C26       1.0  0.45519  0.25607  0.25798  1.0000
  C   C27       1.0  0.45523  0.22019  0.25984  1.0000
  C   C28       1.0  0.45541  0.20226  0.34226  1.0000
  N   N9        1.0  0.45630  0.20391  0.18005  1.0000
  C   C29       1.0  0.45702  0.21973  0.09888  1.0000
  C   C30       1.0  0.45688  0.25485  0.09632  1.0000
  N   N10       1.0  0.45607  0.27188  0.17517  1.0000
  H   H9        1.0  0.45780  0.20625  0.04101  1.0000
  O   O5        1.0  0.45777  0.27143  0.01608  1.0000
  H   H10       1.0  0.45605  0.29624  0.17089  1.0000
  C   C31       1.0  0.75826  0.20233  0.34056  1.0000
  C   C32       1.0  0.77663  0.22050  0.25795  1.0000
  C   C33       1.0  0.81251  0.25643  0.25982  1.0000
  C   C34       1.0  0.83041  0.27452  0.34226  1.0000
  N   N11       1.0  0.82880  0.27378  0.18004  1.0000
  C   C35       1.0  0.81298  0.25868  0.09887  1.0000
  C   C36       1.0  0.77786  0.22342  0.09630  1.0000
  N   N12       1.0  0.76083  0.20558  0.17515  1.0000
  H   H11       1.0  0.82647  0.27294  0.04101  1.0000
  O   O6        1.0  0.76129  0.20774  0.01605  1.0000
  H   H12       1.0  0.73647  0.18120  0.17084  1.0000
  C   C37       1.0  0.14936  0.56796  0.26738  1.0000
  C   C38       1.0  0.14943  0.60328  0.26844  1.0000
  H   H13       1.0  0.14811  0.61517  0.20829  1.0000
  H   H14       1.0  0.14803  0.55517  0.20660  1.0000
  O   O7        1.0  0.14459  0.61461  0.00864  1.0000
  C   C39       1.0  0.46476  0.60279  0.26736  1.0000
  C   C40       1.0  0.42944  0.56754  0.26840  1.0000
  H   H15       1.0  0.41757  0.55434  0.20822  1.0000
  H   H16       1.0  0.47756  0.61426  0.20658  1.0000
  O   O8        1.0  0.41804  0.55131  0.00856  1.0000
  C   C41       1.0  0.42989  0.88331  0.26730  1.0000
  C   C42       1.0  0.46514  0.88324  0.26836  1.0000
  H   H17       1.0  0.47834  0.88455  0.20820  1.0000
  H   H18       1.0  0.41843  0.88463  0.20652  1.0000
  O   O9        1.0  0.48134  0.88810  0.00855  1.0000
  C   C43       1.0  0.87994  0.46807  0.26736  1.0000
  C   C44       1.0  0.87994  0.43279  0.26846  1.0000
  H   H19       1.0  0.88120  0.42086  0.20831  1.0000
  H   H20       1.0  0.88128  0.48086  0.20657  1.0000
  O   O10       1.0  0.88474  0.42146  0.00864  1.0000
  C   C45       1.0  0.56461  0.43326  0.26731  1.0000
  C   C46       1.0  0.59993  0.46850  0.26840  1.0000
  H   H21       1.0  0.61184  0.48169  0.20824  1.0000
  H   H22       1.0  0.55184  0.42177  0.20652  1.0000
  O   O11       1.0  0.61124  0.48466  0.00858  1.0000
  C   C47       1.0  0.59945  0.15275  0.26734  1.0000
  C   C48       1.0  0.56418  0.15278  0.26840  1.0000
  H   H23       1.0  0.55099  0.15149  0.20823  1.0000
  H   H24       1.0  0.61092  0.15143  0.20655  1.0000
  O   O12       1.0  0.54799  0.14794  0.00860  1.0000
  C   C49       1.0  0.05638  0.41073  0.34025  1.0000
  C   C50       1.0  0.03524  0.40004  0.25772  1.0000
  C   C51       1.0  0.99381  0.37946  0.25963  1.0000
  C   C52       1.0  0.97301  0.36919  0.34207  1.0000
  N   N13       1.0  0.97440  0.37162  0.17993  1.0000
  C   C53       1.0  0.99223  0.38176  0.09879  1.0000
  C   C54       1.0  0.03286  0.40178  0.09618  1.0000
  N   N14       1.0  0.05298  0.41044  0.17498  1.0000
  H   H25       1.0  0.97621  0.37508  0.04101  1.0000
  O   O13       1.0  0.05150  0.41255  0.01601  1.0000
  H   H26       1.0  0.08112  0.42440  0.17073  1.0000
  C   C55       1.0  0.62197  0.66704  0.34027  1.0000
  C   C56       1.0  0.63265  0.65655  0.25778  1.0000
  C   C57       1.0  0.65323  0.63570  0.25977  1.0000
  C   C58       1.0  0.66349  0.62518  0.34224  1.0000
  N   N15       1.0  0.66106  0.62411  0.18007  1.0000
  C   C59       1.0  0.65093  0.63180  0.09891  1.0000
  C   C60       1.0  0.63091  0.65240  0.09626  1.0000
  N   N16       1.0  0.62225  0.66388  0.17503  1.0000
  H   H27       1.0  0.65761  0.62244  0.04115  1.0000
  O   O14       1.0  0.62014  0.66026  0.01607  1.0000
  H   H28       1.0  0.60829  0.67807  0.17074  1.0000
  C   C61       1.0  0.36566  0.97631  0.34033  1.0000
  C   C62       1.0  0.37614  0.99744  0.25780  1.0000
  C   C63       1.0  0.39698  0.03888  0.25977  1.0000
  C   C64       1.0  0.40750  0.05967  0.34224  1.0000
  N   N17       1.0  0.40856  0.05829  0.18007  1.0000
  C   C65       1.0  0.40087  0.04047  0.09891  1.0000
  C   C66       1.0  0.38027  0.99985  0.09627  1.0000
  N   N18       1.0  0.36880  0.97972  0.17505  1.0000
  H   H29       1.0  0.41023  0.05651  0.04115  1.0000
  O   O15       1.0  0.37242  0.98123  0.01608  1.0000
  H   H30       1.0  0.35461  0.95157  0.17077  1.0000
  C   C67       1.0  0.97299  0.62528  0.34046  1.0000
  C   C68       1.0  0.99409  0.63595  0.25786  1.0000
  C   C69       1.0  0.03553  0.65656  0.25971  1.0000
  C   C70       1.0  0.05631  0.66683  0.34216  1.0000
  N   N19       1.0  0.05492  0.66439  0.17999  1.0000
  C   C71       1.0  0.03707  0.65424  0.09887  1.0000
  C   C72       1.0  0.99645  0.63421  0.09631  1.0000
  N   N20       1.0  0.97634  0.62555  0.17513  1.0000
  H   H31       1.0  0.05308  0.66091  0.04108  1.0000
  O   O16       1.0  0.97779  0.62345  0.01615  1.0000
  H   H32       1.0  0.94819  0.61159  0.17089  1.0000
  C   C73       1.0  0.40738  0.36906  0.34048  1.0000
  C   C74       1.0  0.39673  0.37951  0.25790  1.0000
  C   C75       1.0  0.37613  0.40035  0.25983  1.0000
  C   C76       1.0  0.36584  0.41084  0.34232  1.0000
  N   N21       1.0  0.36830  0.41193  0.18012  1.0000
  C   C77       1.0  0.37845  0.40425  0.09897  1.0000
  C   C78       1.0  0.39848  0.38365  0.09636  1.0000
  N   N22       1.0  0.40714  0.37219  0.17515  1.0000
  H   H33       1.0  0.37177  0.41359  0.04121  1.0000
  O   O17       1.0  0.40925  0.37579  0.01619  1.0000
  H   H34       1.0  0.42110  0.35800  0.17089  1.0000
  C   C79       1.0  0.66364  0.05974  0.34047  1.0000
  C   C80       1.0  0.65316  0.03858  0.25793  1.0000
  C   C81       1.0  0.63231  0.99714  0.25983  1.0000
  C   C82       1.0  0.62183  0.97636  0.34231  1.0000
  N   N23       1.0  0.62074  0.97774  0.18012  1.0000
  C   C83       1.0  0.62843  0.99557  0.09898  1.0000
  C   C84       1.0  0.64904  0.03620  0.09638  1.0000
  N   N24       1.0  0.66050  0.05632  0.17518  1.0000
  H   H35       1.0  0.61908  0.97955  0.04121  1.0000
  O   O18       1.0  0.65691  0.05484  0.01621  1.0000
  H   H36       1.0  0.67470  0.08446  0.17091  1.0000
  C   C85       1.0  0.14240  0.51086  0.34563  1.0000
  C   C86       1.0  0.10405  0.47946  0.34489  1.0000
  C   C87       1.0  0.09610  0.44070  0.34350  1.0000
  C   C88       1.0  0.12766  0.43367  0.34265  1.0000
  C   C89       1.0  0.16653  0.46481  0.34380  1.0000
  C   C90       1.0  0.17342  0.50329  0.34529  1.0000
  H   H37       1.0  0.12229  0.40574  0.34047  1.0000
  H   H38       1.0  0.20130  0.52608  0.34575  1.0000
  H   H39       1.0  0.08150  0.48497  0.34512  1.0000
  C   C91       1.0  0.52183  0.65291  0.34561  1.0000
  C   C92       1.0  0.55324  0.64597  0.34487  1.0000
  C   C93       1.0  0.59200  0.67679  0.34350  1.0000
  C   C94       1.0  0.59902  0.71537  0.34266  1.0000
  C   C95       1.0  0.56788  0.72310  0.34379  1.0000
  C   C96       1.0  0.52940  0.69151  0.34527  1.0000
  H   H40       1.0  0.62695  0.73794  0.34047  1.0000
  H   H41       1.0  0.50660  0.69659  0.34573  1.0000
  H   H42       1.0  0.54773  0.61791  0.34511  1.0000
  C   C97       1.0  0.37978  0.89029  0.34558  1.0000
  C   C98       1.0  0.38672  0.92864  0.34487  1.0000
  C   C99       1.0  0.35591  0.93659  0.34350  1.0000
  C   C100      1.0  0.31732  0.90502  0.34268  1.0000
  C   C101      1.0  0.30959  0.86615  0.34376  1.0000
  C   C102      1.0  0.34119  0.85927  0.34523  1.0000
  H   H43       1.0  0.29475  0.91039  0.34051  1.0000
  H   H44       1.0  0.33611  0.83139  0.34567  1.0000
  H   H45       1.0  0.41478  0.95120  0.34510  1.0000
  C   C103      1.0  0.88693  0.52518  0.34559  1.0000
  C   C104      1.0  0.92529  0.55658  0.34492  1.0000
  C   C105      1.0  0.93325  0.59534  0.34351  1.0000
  C   C106      1.0  0.90170  0.60238  0.34267  1.0000
  C   C107      1.0  0.86283  0.57125  0.34373  1.0000
  C   C108      1.0  0.85593  0.53277  0.34519  1.0000
  H   H46       1.0  0.90708  0.63032  0.34053  1.0000
  H   H47       1.0  0.82804  0.50998  0.34561  1.0000
  H   H48       1.0  0.94784  0.55106  0.34521  1.0000
  C   C109      1.0  0.50751  0.38313  0.34556  1.0000
  C   C110      1.0  0.47610  0.39008  0.34490  1.0000
  C   C111      1.0  0.43734  0.35927  0.34356  1.0000
  C   C112      1.0  0.43030  0.32068  0.34269  1.0000
  C   C113      1.0  0.46144  0.31294  0.34377  1.0000
  C   C114      1.0  0.49992  0.34453  0.34519  1.0000
  H   H49       1.0  0.40237  0.29813  0.34056  1.0000
  H   H50       1.0  0.52271  0.33944  0.34561  1.0000
  H   H51       1.0  0.48162  0.41814  0.34517  1.0000
  C   C115      1.0  0.64957  0.14578  0.34557  1.0000
  C   C116      1.0  0.64261  0.10742  0.34492  1.0000
  C   C117      1.0  0.67341  0.09946  0.34356  1.0000
  C   C118      1.0  0.71200  0.13101  0.34266  1.0000
  C   C119      1.0  0.71975  0.16989  0.34375  1.0000
  C   C120      1.0  0.68816  0.17678  0.34518  1.0000
  H   H52       1.0  0.73456  0.12563  0.34053  1.0000
  H   H53       1.0  0.69326  0.20467  0.34561  1.0000
  H   H54       1.0  0.61455  0.08487  0.34521  1.0000
  C   C121      1.0  0.50759  0.14575  0.34750  1.0000
  C   C122      1.0  0.47620  0.10738  0.34695  1.0000
  C   C123      1.0  0.43743  0.09940  0.34505  1.0000
  C   C124      1.0  0.43038  0.13094  0.34352  1.0000
  C   C125      1.0  0.46149  0.16983  0.34493  1.0000
  C   C126      1.0  0.49998  0.17674  0.34666  1.0000
  H   H55       1.0  0.40244  0.12555  0.34129  1.0000
  H   H56       1.0  0.52276  0.20464  0.34726  1.0000
  H   H57       1.0  0.48173  0.08485  0.34766  1.0000
  C   C127      1.0  0.64949  0.52509  0.34751  1.0000
  C   C128      1.0  0.64250  0.55648  0.34698  1.0000
  C   C129      1.0  0.67329  0.59525  0.34506  1.0000
  C   C130      1.0  0.71188  0.60230  0.34352  1.0000
  C   C131      1.0  0.71966  0.57119  0.34492  1.0000
  C   C132      1.0  0.68809  0.53270  0.34666  1.0000
  H   H58       1.0  0.73443  0.63024  0.34127  1.0000
  H   H59       1.0  0.69320  0.50992  0.34726  1.0000
  H   H60       1.0  0.61444  0.55095  0.34768  1.0000
  C   C133      1.0  0.88693  0.38321  0.34756  1.0000
  C   C134      1.0  0.92530  0.39019  0.34696  1.0000
  C   C135      1.0  0.93328  0.35940  0.34504  1.0000
  C   C136      1.0  0.90174  0.32081  0.34349  1.0000
  C   C137      1.0  0.86286  0.31304  0.34496  1.0000
  C   C138      1.0  0.85594  0.34460  0.34675  1.0000
  H   H61       1.0  0.90713  0.29826  0.34119  1.0000
  H   H62       1.0  0.82804  0.33949  0.34739  1.0000
  H   H63       1.0  0.94783  0.41826  0.34764  1.0000
  C   C139      1.0  0.52174  0.89028  0.34745  1.0000
  C   C140      1.0  0.55313  0.92864  0.34692  1.0000
  C   C141      1.0  0.59190  0.93663  0.34503  1.0000
  C   C142      1.0  0.59895  0.90509  0.34354  1.0000
  C   C143      1.0  0.56784  0.86620  0.34491  1.0000
  C   C144      1.0  0.52935  0.85929  0.34662  1.0000
  H   H64       1.0  0.62689  0.91048  0.34135  1.0000
  H   H65       1.0  0.50657  0.83139  0.34722  1.0000
  H   H66       1.0  0.54760  0.95118  0.34764  1.0000
  C   C145      1.0  0.37986  0.51093  0.34744  1.0000
  C   C146      1.0  0.38683  0.47954  0.34693  1.0000
  C   C147      1.0  0.35604  0.44078  0.34505  1.0000
  C   C148      1.0  0.31745  0.43373  0.34353  1.0000
  C   C149      1.0  0.30969  0.46485  0.34487  1.0000
  C   C150      1.0  0.34126  0.50333  0.34660  1.0000
  H   H67       1.0  0.29490  0.40579  0.34133  1.0000
  H   H68       1.0  0.33615  0.52612  0.34721  1.0000
  H   H69       1.0  0.41490  0.48507  0.34765  1.0000
  C   C151      1.0  0.14240  0.65284  0.34752  1.0000
  C   C152      1.0  0.10404  0.64585  0.34696  1.0000
  C   C153      1.0  0.09605  0.67664  0.34505  1.0000
  C   C154      1.0  0.12758  0.71523  0.34351  1.0000
  C   C155      1.0  0.16647  0.72301  0.34493  1.0000
  C   C156      1.0  0.17339  0.69144  0.34670  1.0000
  H   H70       1.0  0.12218  0.73777  0.34125  1.0000
  H   H71       1.0  0.20129  0.69656  0.34733  1.0000
  H   H72       1.0  0.08150  0.61778  0.34765  1.0000
  C   C157      1.0  0.25275  0.45912  0.42333  1.0000
  C   C158      1.0  0.21735  0.45907  0.42251  1.0000
  H   H73       1.0  0.20581  0.46087  0.48273  1.0000
  H   H74       1.0  0.26578  0.46094  0.48403  1.0000
  C   C159      1.0  0.57358  0.81500  0.42335  1.0000
  C   C160      1.0  0.57358  0.77963  0.42251  1.0000
  H   H75       1.0  0.57183  0.76631  0.48273  1.0000
  H   H76       1.0  0.57175  0.82621  0.48405  1.0000
  C   C161      1.0  0.21773  0.77992  0.42331  1.0000
  C   C162      1.0  0.25306  0.81532  0.42249  1.0000
  H   H77       1.0  0.26640  0.82686  0.48272  1.0000
  H   H78       1.0  0.20650  0.76690  0.48401  1.0000
  C   C163      1.0  0.77658  0.57687  0.42326  1.0000
  C   C164      1.0  0.81197  0.57692  0.42241  1.0000
  H   H79       1.0  0.82351  0.57511  0.48264  1.0000
  H   H80       1.0  0.76354  0.57502  0.48397  1.0000
  C   C165      1.0  0.45583  0.22109  0.42329  1.0000
  C   C166      1.0  0.45578  0.25643  0.42244  1.0000
  H   H81       1.0  0.45760  0.26978  0.48267  1.0000
  H   H82       1.0  0.45768  0.20989  0.48400  1.0000
  C   C167      1.0  0.81161  0.25611  0.42331  1.0000
  C   C168      1.0  0.77626  0.22072  0.42244  1.0000
  H   H83       1.0  0.76291  0.20918  0.48266  1.0000
  H   H84       1.0  0.82280  0.26915  0.48402  1.0000
  C   C169      1.0  0.14879  0.62084  0.35071  1.0000
  C   C170      1.0  0.14847  0.60260  0.43346  1.0000
  C   C171      1.0  0.14841  0.56677  0.43140  1.0000
  C   C172      1.0  0.14874  0.54923  0.34861  1.0000
  N   N25       1.0  0.14687  0.54909  0.51103  1.0000
  C   C173      1.0  0.14572  0.56390  0.59228  1.0000
  C   C174      1.0  0.14588  0.59917  0.59503  1.0000
  N   N26       1.0  0.14712  0.61726  0.51627  1.0000
  H   H85       1.0  0.14461  0.54943  0.65003  1.0000
  H   H86       1.0  0.14718  0.64167  0.52062  1.0000
  C   C175      1.0  0.41186  0.54931  0.35062  1.0000
  C   C176      1.0  0.43010  0.56723  0.43340  1.0000
  C   C177      1.0  0.46592  0.60302  0.43138  1.0000
  C   C178      1.0  0.48347  0.62089  0.34861  1.0000
  N   N27       1.0  0.48359  0.61914  0.51102  1.0000
  C   C179      1.0  0.46876  0.60317  0.59226  1.0000
  C   C180      1.0  0.43350  0.56806  0.59497  1.0000
  N   N28       1.0  0.41542  0.55120  0.51619  1.0000
  H   H87       1.0  0.48322  0.61653  0.65003  1.0000
  H   H88       1.0  0.39102  0.52686  0.52052  1.0000
  C   C181      1.0  0.48337  0.88390  0.35061  1.0000
  C   C182      1.0  0.46544  0.88422  0.43337  1.0000
  C   C183      1.0  0.42966  0.88428  0.43133  1.0000
  C   C184      1.0  0.41180  0.88396  0.34853  1.0000
  N   N29       1.0  0.41353  0.88582  0.51096  1.0000
  C   C185      1.0  0.42950  0.88698  0.59221  1.0000
  C   C186      1.0  0.46461  0.88681  0.59494  1.0000
  N   N30       1.0  0.48146  0.88558  0.51617  1.0000
  H   H89       1.0  0.41614  0.88808  0.64996  1.0000
  H   H90       1.0  0.50580  0.88551  0.52053  1.0000
  C   C187      1.0  0.88054  0.41520  0.35073  1.0000
  C   C188      1.0  0.88086  0.43346  0.43346  1.0000
  C   C189      1.0  0.88092  0.46930  0.43138  1.0000
  C   C190      1.0  0.88059  0.48682  0.34857  1.0000
  N   N31       1.0  0.88247  0.48698  0.51100  1.0000
  C   C191      1.0  0.88362  0.47218  0.59226  1.0000
  C   C192      1.0  0.88346  0.43691  0.59502  1.0000
  N   N32       1.0  0.88221  0.41880  0.51628  1.0000
  H   H91       1.0  0.88473  0.48665  0.65000  1.0000
  H   H92       1.0  0.88214  0.39440  0.52064  1.0000
  C   C193      1.0  0.61748  0.48671  0.35065  1.0000
  C   C194      1.0  0.59923  0.46879  0.43340  1.0000
  C   C195      1.0  0.56340  0.43301  0.43133  1.0000
  C   C196      1.0  0.54587  0.41515  0.34853  1.0000
  N   N33       1.0  0.54572  0.41686  0.51096  1.0000
  C   C197      1.0  0.56053  0.43283  0.59221  1.0000
  C   C198      1.0  0.59579  0.46793  0.59497  1.0000
  N   N34       1.0  0.61389  0.48480  0.51621  1.0000
  H   H93       1.0  0.54606  0.41945  0.64996  1.0000
  H   H94       1.0  0.63829  0.50913  0.52058  1.0000
  C   C199      1.0  0.54597  0.15212  0.35065  1.0000
  C   C200      1.0  0.56389  0.15182  0.43342  1.0000
  C   C201      1.0  0.59968  0.15178  0.43137  1.0000
  C   C202      1.0  0.61755  0.15212  0.34858  1.0000
  N   N35       1.0  0.61582  0.15024  0.51100  1.0000
  C   C203      1.0  0.59984  0.14908  0.59225  1.0000
  C   C204      1.0  0.56473  0.14923  0.59499  1.0000
  N   N36       1.0  0.54787  0.15046  0.51623  1.0000
  H   H95       1.0  0.61321  0.14799  0.65000  1.0000
  H   H96       1.0  0.52353  0.15052  0.52058  1.0000
  C   C205      1.0  0.99455  0.37964  0.42307  1.0000
  C   C206      1.0  0.03537  0.39994  0.42216  1.0000
  H   H97       1.0  0.04965  0.40952  0.48231  1.0000
  H   H98       1.0  0.98069  0.37521  0.48375  1.0000
  C   C207      1.0  0.65308  0.63634  0.42317  1.0000
  C   C208      1.0  0.63278  0.65687  0.42222  1.0000
  H   H99       1.0  0.62321  0.66160  0.48235  1.0000
  H   H100      1.0  0.65751  0.62693  0.48387  1.0000
  C   C209      1.0  0.39632  0.03810  0.42319  1.0000
  C   C210      1.0  0.37577  0.99728  0.42228  1.0000
  H   H101      1.0  0.37106  0.98297  0.48239  1.0000
  H   H102      1.0  0.40573  0.05195  0.48388  1.0000
  C   C211      1.0  0.03482  0.65650  0.42321  1.0000
  C   C212      1.0  0.99400  0.63622  0.42234  1.0000
  H   H103      1.0  0.97971  0.62664  0.48248  1.0000
  H   H104      1.0  0.04870  0.66098  0.48387  1.0000
  C   C213      1.0  0.37617  0.39963  0.42330  1.0000
  C   C214      1.0  0.39645  0.37910  0.42241  1.0000
  H   H105      1.0  0.40603  0.37437  0.48252  1.0000
  H   H106      1.0  0.37170  0.40903  0.48398  1.0000
  C   C215      1.0  0.63306  0.99789  0.42330  1.0000
  C   C216      1.0  0.65349  0.03871  0.42234  1.0000
  H   H107      1.0  0.65832  0.05301  0.48248  1.0000
  H   H108      1.0  0.62365  0.98401  0.48395  1.0000
