data_image0
_chemical_formula_structural       C3NC3NC5NC4NC35H25C21H18C16H16C2NC2HNCHCNHNCHC2NC3HNCHC2NC2HNCHCNHNCHC2NC3HNCHC18H17C3NC3NC2NC5NC34H24C3NC3NC5NC5NC36H26C2HC3N2HC4HC4N2HC2HC2N2HC2HC3N2HC4HC4N2HC2HC2N2H
_chemical_formula_sum              "C264 N36 H150"
_cell_length_a       66.9589
_cell_length_b       66.9588
_cell_length_c       14.9815
_cell_angle_alpha    89.8014
_cell_angle_beta     90.1986
_cell_angle_gamma    120

_space_group_name_H-M_alt    "P 1"
_space_group_IT_number       1

loop_
  _space_group_symop_operation_xyz
  'x, y, z'

loop_
  _atom_site_type_symbol
  _atom_site_label
  _atom_site_symmetry_multiplicity
  _atom_site_fract_x
  _atom_site_fract_y
  _atom_site_fract_z
  _atom_site_occupancy
  C   C1        1.0  0.04300  0.62833  0.33310  1.0000
  C   C2        1.0  0.01919  0.61642  0.33218  1.0000
  C   C3        1.0  0.01166  0.59283  0.33242  1.0000
  N   N1        1.0  0.03110  0.59132  0.33328  1.0000
  C   C4        1.0  0.05054  0.61228  0.33369  1.0000
  C   C5        1.0  0.07402  0.61788  0.33441  1.0000
  C   C6        1.0  0.08164  0.60154  0.33391  1.0000
  N   N2        1.0  0.06860  0.57830  0.33303  1.0000
  C   C7        1.0  0.08165  0.56810  0.33258  1.0000
  C   C8        1.0  0.10456  0.58598  0.33313  1.0000
  C   C9        1.0  0.10456  0.60658  0.33414  1.0000
  C   C10       1.0  0.07404  0.54415  0.33181  1.0000
  C   C11       1.0  0.05057  0.52627  0.33226  1.0000
  N   N3        1.0  0.03112  0.52778  0.33322  1.0000
  C   C12       1.0  0.01169  0.50682  0.33371  1.0000
  C   C13       1.0  0.01923  0.49077  0.33306  1.0000
  C   C14       1.0  0.04303  0.50268  0.33202  1.0000
  C   C15       1.0  0.98821  0.50121  0.33455  1.0000
  N   N4        1.0  0.99363  0.54080  0.33326  1.0000
  C   C16       1.0  0.98058  0.55099  0.33282  1.0000
  C   C17       1.0  0.95766  0.53311  0.33331  1.0000
  C   C18       1.0  0.95767  0.51251  0.33431  1.0000
  C   C19       1.0  0.98818  0.57495  0.33204  1.0000
  C   C20       1.0  0.97089  0.58141  0.33038  1.0000
  C   C21       1.0  0.96213  0.58414  0.24826  1.0000
  C   C22       1.0  0.94415  0.58924  0.24658  1.0000
  C   C23       1.0  0.93445  0.59180  0.32666  1.0000
  C   C24       1.0  0.91540  0.59581  0.32487  1.0000
  C   C25       1.0  0.87718  0.58618  0.26775  1.0000
  C   C26       1.0  0.89638  0.58295  0.26751  1.0000
  C   C27       1.0  0.97094  0.47746  0.33625  1.0000
  C   C28       1.0  0.96133  0.46538  0.25605  1.0000
  C   C29       1.0  0.94355  0.44220  0.25814  1.0000
  C   C30       1.0  0.93483  0.43048  0.34020  1.0000
  C   C31       1.0  0.91602  0.40729  0.34219  1.0000
  C   C32       1.0  0.91516  0.39027  0.28391  1.0000
  C   C33       1.0  0.89618  0.36767  0.28402  1.0000
  C   C34       1.0  0.87736  0.36122  0.34255  1.0000
  C   C35       1.0  0.09132  0.53768  0.33012  1.0000
  C   C36       1.0  0.12745  0.52686  0.32643  1.0000
  C   C37       1.0  0.11789  0.52979  0.24634  1.0000
  C   C38       1.0  0.10004  0.53510  0.24800  1.0000
  C   C39       1.0  0.14628  0.52251  0.32468  1.0000
  C   C40       1.0  0.16538  0.53532  0.26780  1.0000
  C   C41       1.0  0.18433  0.53170  0.26793  1.0000
  C   C42       1.0  0.18495  0.51511  0.32494  1.0000
  C   C43       1.0  0.09130  0.64163  0.33607  1.0000
  C   C44       1.0  0.10101  0.65371  0.25589  1.0000
  C   C45       1.0  0.11892  0.67684  0.25798  1.0000
  C   C46       1.0  0.12771  0.68848  0.34004  1.0000
  C   C47       1.0  0.14674  0.71155  0.34207  1.0000
  C   C48       1.0  0.18589  0.75733  0.34229  1.0000
  C   C49       1.0  0.16713  0.75117  0.28337  1.0000
  C   C50       1.0  0.14792  0.72871  0.28331  1.0000
  H   H1        1.0  0.16722  0.76307  0.24008  1.0000
  H   H2        1.0  0.13466  0.72505  0.24005  1.0000
  H   H3        1.0  0.12606  0.68484  0.19871  1.0000
  H   H4        1.0  0.09541  0.64562  0.19558  1.0000
  H   H5        1.0  0.05296  0.64591  0.33306  1.0000
  H   H6        1.0  0.00923  0.62403  0.33165  1.0000
  H   H7        1.0  0.03111  0.57699  0.33377  1.0000
  H   H8        1.0  0.03112  0.54211  0.33375  1.0000
  H   H9        1.0  0.11906  0.62251  0.33475  1.0000
  H   H10       1.0  0.11907  0.58457  0.33308  1.0000
  H   H11       1.0  0.09367  0.53735  0.18895  1.0000
  H   H12       1.0  0.12381  0.52804  0.18565  1.0000
  H   H13       1.0  0.05299  0.49506  0.33144  1.0000
  H   H14       1.0  0.00927  0.47319  0.33308  1.0000
  H   H15       1.0  0.94317  0.49658  0.33484  1.0000
  H   H16       1.0  0.96691  0.47352  0.19573  1.0000
  H   H17       1.0  0.93650  0.43418  0.19884  1.0000
  H   H18       1.0  0.89633  0.35588  0.24112  1.0000
  H   H19       1.0  0.92848  0.39415  0.24098  1.0000
  H   H20       1.0  0.89594  0.57047  0.22692  1.0000
  H   H21       1.0  0.86350  0.57592  0.22730  1.0000
  H   H22       1.0  0.93817  0.59107  0.18589  1.0000
  H   H23       1.0  0.96855  0.58210  0.18920  1.0000
  H   H24       1.0  0.16604  0.54802  0.22753  1.0000
  H   H25       1.0  0.19808  0.54193  0.22783  1.0000
  C   C51       1.0  0.52099  0.59839  0.33542  1.0000
  C   C52       1.0  0.50312  0.60343  0.33587  1.0000
  C   C53       1.0  0.48251  0.58282  0.33688  1.0000
  C   C54       1.0  0.50494  0.46297  0.25108  1.0000
  C   C55       1.0  0.49984  0.43989  0.24934  1.0000
  C   C56       1.0  0.50289  0.37594  0.27034  1.0000
  C   C57       1.0  0.50613  0.39838  0.27020  1.0000
  C   C58       1.0  0.62368  0.58095  0.25858  1.0000
  C   C59       1.0  0.64687  0.58636  0.26045  1.0000
  C   C60       1.0  0.69880  0.60988  0.28591  1.0000
  C   C61       1.0  0.72141  0.61352  0.28573  1.0000
  C   C62       1.0  0.72790  0.60102  0.34388  1.0000
  C   C63       1.0  0.55931  0.67307  0.24916  1.0000
  C   C64       1.0  0.55401  0.64992  0.25085  1.0000
  C   C65       1.0  0.55377  0.71499  0.27059  1.0000
  C   C66       1.0  0.55739  0.73757  0.27071  1.0000
  C   C67       1.0  0.43540  0.53221  0.25844  1.0000
  C   C68       1.0  0.41228  0.52700  0.26033  1.0000
  C   C69       1.0  0.33174  0.51335  0.34368  1.0000
  C   C70       1.0  0.33794  0.50080  0.28511  1.0000
  C   C71       1.0  0.36039  0.50405  0.28537  1.0000
  H   H26       1.0  0.32606  0.48902  0.24184  1.0000
  H   H27       1.0  0.36408  0.49450  0.24233  1.0000
  H   H28       1.0  0.40428  0.52616  0.20098  1.0000
  H   H29       1.0  0.44351  0.53476  0.19819  1.0000
  H   H30       1.0  0.46659  0.58140  0.33746  1.0000
  H   H31       1.0  0.55174  0.64138  0.19180  1.0000
  H   H32       1.0  0.56106  0.68084  0.18846  1.0000
  H   H33       1.0  0.59403  0.64277  0.33443  1.0000
  H   H34       1.0  0.61553  0.57855  0.19832  1.0000
  H   H35       1.0  0.65488  0.58749  0.20106  1.0000
  H   H36       1.0  0.73318  0.62556  0.24287  1.0000
  H   H37       1.0  0.69491  0.61943  0.24326  1.0000
  H   H38       1.0  0.51861  0.41049  0.22962  1.0000
  H   H39       1.0  0.51318  0.37260  0.22998  1.0000
  H   H40       1.0  0.49802  0.43218  0.18863  1.0000
  H   H41       1.0  0.50701  0.47154  0.19203  1.0000
  H   H42       1.0  0.54108  0.70302  0.23030  1.0000
  H   H43       1.0  0.54718  0.74116  0.23055  1.0000
  C   C72       1.0  0.62601  0.12687  0.25241  1.0000
  C   C73       1.0  0.64909  0.14485  0.25021  1.0000
  C   C74       1.0  0.71306  0.21183  0.26987  1.0000
  C   C75       1.0  0.69062  0.19264  0.27018  1.0000
  C   C76       1.0  0.50813  0.12769  0.26114  1.0000
  C   C77       1.0  0.50270  0.14545  0.26306  1.0000
  C   C78       1.0  0.47920  0.17383  0.28859  1.0000
  C   C79       1.0  0.47558  0.19281  0.28841  1.0000
  C   C80       1.0  0.41614  0.97129  0.24995  1.0000
  C   C81       1.0  0.43929  0.98912  0.25215  1.0000
  C   C82       1.0  0.37417  0.92379  0.27038  1.0000
  C   C83       1.0  0.35159  0.90484  0.27000  1.0000
  C   C84       1.0  0.55690  0.98816  0.26090  1.0000
  C   C85       1.0  0.56213  0.97025  0.26282  1.0000
  C   C86       1.0  0.58830  0.92205  0.28767  1.0000
  C   C87       1.0  0.58505  0.94126  0.28791  1.0000
  H   H44       1.0  0.60008  0.92202  0.24444  1.0000
  H   H45       1.0  0.59461  0.95457  0.24489  1.0000
  H   H46       1.0  0.56294  0.96317  0.20347  1.0000
  H   H47       1.0  0.55435  0.99381  0.20064  1.0000
  H   H48       1.0  0.44792  0.99555  0.19329  1.0000
  H   H49       1.0  0.40846  0.96542  0.18909  1.0000
  H   H50       1.0  0.51055  0.12205  0.20086  1.0000
  H   H51       1.0  0.50161  0.15246  0.20368  1.0000
  H   H52       1.0  0.46355  0.19262  0.24552  1.0000
  H   H53       1.0  0.46966  0.16047  0.24588  1.0000
  H   H54       1.0  0.67846  0.19305  0.22982  1.0000
  H   H55       1.0  0.71635  0.22548  0.22934  1.0000
  H   H56       1.0  0.65672  0.15078  0.18935  1.0000
  H   H57       1.0  0.61737  0.12041  0.19354  1.0000
  H   H58       1.0  0.38621  0.92315  0.23044  1.0000
  H   H59       1.0  0.34807  0.89112  0.22986  1.0000
  C   C88       1.0  0.30932  0.51096  0.34105  1.0000
  C   C89       1.0  0.29869  0.51081  0.25892  1.0000
  N   N5        1.0  0.27817  0.51030  0.25716  1.0000
  C   C90       1.0  0.26650  0.50951  0.33227  1.0000
  C   C91       1.0  0.24558  0.50977  0.32956  1.0000
  H   H60       1.0  0.30668  0.51207  0.19944  1.0000
  N   N6        1.0  0.23574  0.51084  0.25164  1.0000
  C   C92       1.0  0.21608  0.51199  0.24821  1.0000
  H   H61       1.0  0.20980  0.51279  0.18684  1.0000
  C   C93       1.0  0.57831  0.87284  0.26149  1.0000
  N   N7        1.0  0.57881  0.85283  0.25977  1.0000
  H   H62       1.0  0.57703  0.87965  0.20201  1.0000
  N   N8        1.0  0.57826  0.80986  0.25430  1.0000
  C   C94       1.0  0.57711  0.78906  0.25089  1.0000
  H   H63       1.0  0.57631  0.78207  0.18953  1.0000
  C   C95       1.0  0.20591  0.77976  0.34005  1.0000
  C   C96       1.0  0.21638  0.79045  0.25814  1.0000
  N   N9        1.0  0.23637  0.81099  0.25679  1.0000
  C   C97       1.0  0.24726  0.82261  0.33213  1.0000
  C   C98       1.0  0.26843  0.84354  0.32986  1.0000
  C   C99       1.0  0.31178  0.88440  0.32867  1.0000
  H   H64       1.0  0.20964  0.78251  0.19852  1.0000
  N   N10       1.0  0.27933  0.85343  0.25217  1.0000
  C   C100      1.0  0.30014  0.87310  0.24919  1.0000
  H   H65       1.0  0.30722  0.87942  0.18796  1.0000
  C   C101      1.0  0.75049  0.60385  0.34137  1.0000
  C   C102      1.0  0.76125  0.60451  0.25927  1.0000
  N   N11       1.0  0.78197  0.60545  0.25756  1.0000
  C   C103      1.0  0.79374  0.60622  0.33271  1.0000
  C   C104      1.0  0.81488  0.60643  0.33001  1.0000
  H   H66       1.0  0.75321  0.60327  0.19974  1.0000
  N   N12       1.0  0.82486  0.60584  0.25207  1.0000
  C   C105      1.0  0.84474  0.60513  0.24861  1.0000
  H   H67       1.0  0.85112  0.60467  0.18722  1.0000
  C   C106      1.0  0.48463  0.24172  0.26194  1.0000
  N   N13       1.0  0.48368  0.26150  0.26022  1.0000
  H   H68       1.0  0.48585  0.23499  0.20242  1.0000
  N   N14       1.0  0.48328  0.30400  0.25472  1.0000
  C   C107      1.0  0.48398  0.32460  0.25126  1.0000
  H   H69       1.0  0.48444  0.33152  0.18987  1.0000
  C   C108      1.0  0.85759  0.33862  0.34041  1.0000
  C   C109      1.0  0.84724  0.32781  0.25852  1.0000
  N   N15       1.0  0.82748  0.30707  0.25721  1.0000
  C   C110      1.0  0.81672  0.29535  0.33259  1.0000
  C   C111      1.0  0.79578  0.27419  0.33034  1.0000
  C   C112      1.0  0.75285  0.23284  0.32911  1.0000
  H   H70       1.0  0.85389  0.33580  0.19884  1.0000
  N   N16       1.0  0.78498  0.26416  0.25262  1.0000
  C   C113      1.0  0.76438  0.24426  0.24961  1.0000
  H   H71       1.0  0.75737  0.23784  0.18838  1.0000
  C   C114      1.0  0.98059  0.51756  0.33411  1.0000
  C   C115      1.0  0.94364  0.58937  0.40868  1.0000
  C   C116      1.0  0.96156  0.58416  0.41064  1.0000
  C   C117      1.0  0.91456  0.61217  0.38196  1.0000
  C   C118      1.0  0.89534  0.61541  0.38216  1.0000
  C   C119      1.0  0.87624  0.60242  0.32526  1.0000
  C   C120      1.0  0.94480  0.44272  0.42020  1.0000
  C   C121      1.0  0.96262  0.46589  0.41840  1.0000
  C   C122      1.0  0.87832  0.37819  0.40127  1.0000
  C   C123      1.0  0.89727  0.40077  0.40112  1.0000
  C   C124      1.0  0.10055  0.53458  0.41039  1.0000
  C   C125      1.0  0.11833  0.52917  0.40843  1.0000
  C   C126      1.0  0.16578  0.50217  0.38138  1.0000
  C   C127      1.0  0.14680  0.50579  0.38124  1.0000
  C   C128      1.0  0.09967  0.65314  0.41820  1.0000
  C   C129      1.0  0.11763  0.67624  0.42000  1.0000
  C   C130      1.0  0.16544  0.71778  0.40139  1.0000
  C   C131      1.0  0.18462  0.74022  0.40155  1.0000
  H   H72       1.0  0.19807  0.74369  0.44346  1.0000
  H   H73       1.0  0.16565  0.70578  0.44329  1.0000
  H   H74       1.0  0.12331  0.68406  0.48071  1.0000
  H   H75       1.0  0.09297  0.64469  0.47722  1.0000
  H   H76       1.0  0.09466  0.53663  0.47072  1.0000
  H   H77       1.0  0.12509  0.52772  0.46784  1.0000
  H   H78       1.0  0.94315  0.53452  0.33323  1.0000
  H   H79       1.0  0.96928  0.47432  0.47742  1.0000
  H   H80       1.0  0.93918  0.43485  0.48091  1.0000
  H   H81       1.0  0.89683  0.41265  0.44266  1.0000
  H   H82       1.0  0.86481  0.37450  0.44293  1.0000
  H   H83       1.0  0.96745  0.58196  0.47097  1.0000
  H   H84       1.0  0.93678  0.59052  0.46806  1.0000
  H   H85       1.0  0.89552  0.62753  0.42412  1.0000
  H   H86       1.0  0.92806  0.62205  0.42374  1.0000
  H   H87       1.0  0.13323  0.49593  0.42263  1.0000
  H   H88       1.0  0.16537  0.48980  0.42292  1.0000
  C   C132      1.0  0.46076  0.49952  0.33601  1.0000
  C   C133      1.0  0.47267  0.48762  0.33511  1.0000
  C   C134      1.0  0.49626  0.50367  0.33533  1.0000
  N   N17       1.0  0.49777  0.52463  0.33619  1.0000
  C   C135      1.0  0.47681  0.52311  0.33658  1.0000
  C   C136      1.0  0.47121  0.54098  0.33724  1.0000
  C   C137      1.0  0.48756  0.56494  0.33673  1.0000
  N   N18       1.0  0.51080  0.57514  0.33591  1.0000
  C   C138      1.0  0.54495  0.61474  0.33469  1.0000
  C   C139      1.0  0.56283  0.60914  0.33519  1.0000
  N   N19       1.0  0.56132  0.58819  0.33612  1.0000
  C   C140      1.0  0.58227  0.58970  0.33660  1.0000
  C   C141      1.0  0.59833  0.61330  0.33600  1.0000
  C   C142      1.0  0.58642  0.62520  0.33500  1.0000
  C   C143      1.0  0.58788  0.57183  0.33738  1.0000
  C   C144      1.0  0.57154  0.54787  0.33694  1.0000
  N   N20       1.0  0.54829  0.53767  0.33615  1.0000
  C   C145      1.0  0.53810  0.51443  0.33567  1.0000
  C   C146      1.0  0.55598  0.50939  0.33609  1.0000
  C   C147      1.0  0.57658  0.53000  0.33706  1.0000
  C   C148      1.0  0.51414  0.49808  0.33492  1.0000
  C   C149      1.0  0.50768  0.47433  0.33322  1.0000
  C   C150      1.0  0.49728  0.42750  0.32940  1.0000
  C   C151      1.0  0.49972  0.43899  0.41143  1.0000
  C   C152      1.0  0.50491  0.46211  0.41346  1.0000
  C   C153      1.0  0.49327  0.40445  0.32756  1.0000
  C   C154      1.0  0.47690  0.38714  0.38461  1.0000
  C   C155      1.0  0.47367  0.36469  0.38479  1.0000
  C   C156      1.0  0.48667  0.35868  0.32790  1.0000
  C   C157      1.0  0.61163  0.57831  0.33890  1.0000
  C   C158      1.0  0.65862  0.58919  0.34241  1.0000
  C   C159      1.0  0.64640  0.58673  0.42253  1.0000
  C   C160      1.0  0.62323  0.58138  0.42095  1.0000
  C   C161      1.0  0.68182  0.59359  0.34416  1.0000
  C   C162      1.0  0.71096  0.58487  0.40258  1.0000
  C   C163      1.0  0.68837  0.58122  0.40269  1.0000
  C   C164      1.0  0.55142  0.63849  0.33298  1.0000
  C   C165      1.0  0.55453  0.65070  0.41323  1.0000
  C   C166      1.0  0.55993  0.67388  0.41125  1.0000
  C   C167      1.0  0.56225  0.68545  0.32925  1.0000
  C   C168      1.0  0.56659  0.70863  0.32748  1.0000
  C   C169      1.0  0.57399  0.75470  0.32767  1.0000
  C   C170      1.0  0.58692  0.74838  0.38415  1.0000
  C   C171      1.0  0.58330  0.72578  0.38403  1.0000
  C   C172      1.0  0.44746  0.53451  0.33872  1.0000
  C   C173      1.0  0.43592  0.53129  0.42077  1.0000
  C   C174      1.0  0.40061  0.52406  0.34229  1.0000
  C   C175      1.0  0.41283  0.52615  0.42238  1.0000
  C   C176      1.0  0.37753  0.51999  0.34410  1.0000
  C   C177      1.0  0.37126  0.53240  0.40310  1.0000
  C   C178      1.0  0.34882  0.52914  0.40292  1.0000
  H   H89       1.0  0.34534  0.53909  0.44461  1.0000
  H   H90       1.0  0.38324  0.54458  0.44497  1.0000
  H   H91       1.0  0.40499  0.52395  0.48302  1.0000
  H   H92       1.0  0.44437  0.53301  0.47986  1.0000
  H   H93       1.0  0.44318  0.49190  0.33594  1.0000
  H   H94       1.0  0.46505  0.47004  0.33457  1.0000
  H   H95       1.0  0.51210  0.53896  0.33665  1.0000
  H   H96       1.0  0.54698  0.57385  0.33656  1.0000
  H   H97       1.0  0.50453  0.61935  0.33585  1.0000
  H   H98       1.0  0.55246  0.64267  0.47357  1.0000
  H   H99       1.0  0.56137  0.68201  0.47065  1.0000
  H   H100      1.0  0.61590  0.62092  0.33604  1.0000
  H   H101      1.0  0.55457  0.49347  0.33594  1.0000
  H   H102      1.0  0.59251  0.53142  0.33752  1.0000
  H   H103      1.0  0.61481  0.57947  0.48005  1.0000
  H   H104      1.0  0.65429  0.58885  0.48318  1.0000
  H   H105      1.0  0.67652  0.56883  0.44428  1.0000
  H   H106      1.0  0.71467  0.57497  0.44403  1.0000
  H   H107      1.0  0.50712  0.47010  0.47380  1.0000
  H   H108      1.0  0.49855  0.43087  0.47080  1.0000
  H   H109      1.0  0.46156  0.35268  0.42676  1.0000
  H   H110      1.0  0.46702  0.39070  0.42641  1.0000
  H   H111      1.0  0.59317  0.72201  0.42542  1.0000
  H   H112      1.0  0.59930  0.76027  0.42567  1.0000
  C   C179      1.0  0.58958  0.04609  0.33820  1.0000
  C   C180      1.0  0.60147  0.06989  0.33715  1.0000
  C   C181      1.0  0.58542  0.07743  0.33744  1.0000
  N   N21       1.0  0.56447  0.05798  0.33848  1.0000
  C   C182      1.0  0.56599  0.03854  0.33890  1.0000
  C   C183      1.0  0.54811  0.01506  0.33966  1.0000
  C   C184      1.0  0.52415  0.00745  0.33912  1.0000
  N   N22       1.0  0.51395  0.02049  0.33822  1.0000
  C   C185      1.0  0.49071  0.00744  0.33759  1.0000
  C   C186      1.0  0.48567  0.98453  0.33802  1.0000
  C   C187      1.0  0.50628  0.98453  0.33921  1.0000
  C   C188      1.0  0.47436  0.01505  0.33671  1.0000
  C   C189      1.0  0.47995  0.03852  0.33734  1.0000
  N   N23       1.0  0.50090  0.05796  0.33850  1.0000
  C   C190      1.0  0.49938  0.07740  0.33900  1.0000
  C   C191      1.0  0.47579  0.06986  0.33826  1.0000
  C   C192      1.0  0.46389  0.04605  0.33706  1.0000
  C   C193      1.0  0.51725  0.10088  0.33987  1.0000
  C   C194      1.0  0.54121  0.10849  0.33934  1.0000
  N   N24       1.0  0.55141  0.09545  0.33846  1.0000
  C   C195      1.0  0.57465  0.10850  0.33783  1.0000
  C   C196      1.0  0.57969  0.13142  0.33825  1.0000
  C   C197      1.0  0.55908  0.13142  0.33939  1.0000
  C   C198      1.0  0.59101  0.10090  0.33691  1.0000
  C   C199      1.0  0.61475  0.11819  0.33478  1.0000
  C   C200      1.0  0.66157  0.15462  0.33002  1.0000
  C   C201      1.0  0.65019  0.14552  0.41229  1.0000
  C   C202      1.0  0.62708  0.12759  0.41477  1.0000
  C   C203      1.0  0.68463  0.17366  0.32770  1.0000
  C   C204      1.0  0.70201  0.17456  0.38442  1.0000
  C   C205      1.0  0.72447  0.19377  0.38409  1.0000
  C   C206      1.0  0.73041  0.21282  0.32700  1.0000
  C   C207      1.0  0.51077  0.11815  0.34143  1.0000
  C   C208      1.0  0.49988  0.15424  0.34503  1.0000
  C   C209      1.0  0.50234  0.14435  0.42512  1.0000
  C   C210      1.0  0.50769  0.12653  0.42350  1.0000
  C   C211      1.0  0.49549  0.17304  0.34683  1.0000
  C   C212      1.0  0.48807  0.21170  0.34658  1.0000
  C   C213      1.0  0.50420  0.21080  0.40537  1.0000
  C   C214      1.0  0.50784  0.19185  0.40546  1.0000
  C   C215      1.0  0.45061  0.99777  0.33453  1.0000
  C   C216      1.0  0.43829  0.98848  0.41452  1.0000
  C   C217      1.0  0.41510  0.97070  0.41203  1.0000
  C   C218      1.0  0.40365  0.96165  0.32977  1.0000
  C   C219      1.0  0.38047  0.94284  0.32747  1.0000
  C   C220      1.0  0.33439  0.90418  0.32666  1.0000
  C   C221      1.0  0.34064  0.92330  0.38329  1.0000
  C   C222      1.0  0.36324  0.94227  0.38368  1.0000
  C   C223      1.0  0.55459  0.99778  0.34117  1.0000
  C   C224      1.0  0.55780  0.98934  0.42323  1.0000
  C   C225      1.0  0.56504  0.96138  0.34479  1.0000
  C   C226      1.0  0.56294  0.97138  0.42486  1.0000
  C   C227      1.0  0.56910  0.94236  0.34661  1.0000
  C   C228      1.0  0.55670  0.92360  0.40563  1.0000
  C   C229      1.0  0.55994  0.90441  0.40541  1.0000
  C   C230      1.0  0.57574  0.90322  0.34622  1.0000
  H   H113      1.0  0.55000  0.89092  0.44714  1.0000
  H   H114      1.0  0.54451  0.92334  0.44746  1.0000
  H   H115      1.0  0.56513  0.96565  0.48552  1.0000
  H   H116      1.0  0.55608  0.99598  0.48231  1.0000
  H   H117      1.0  0.59720  0.03613  0.33812  1.0000
  H   H118      1.0  0.61905  0.07986  0.33649  1.0000
  H   H119      1.0  0.55013  0.05798  0.33901  1.0000
  H   H120      1.0  0.51524  0.05797  0.33906  1.0000
  H   H121      1.0  0.50770  0.97002  0.33974  1.0000
  H   H122      1.0  0.46974  0.97002  0.33788  1.0000
  H   H123      1.0  0.44623  0.99430  0.47503  1.0000
  H   H124      1.0  0.40689  0.96388  0.47125  1.0000
  H   H125      1.0  0.44632  0.03609  0.33629  1.0000
  H   H126      1.0  0.46817  0.07981  0.33818  1.0000
  H   H127      1.0  0.59561  0.14593  0.33800  1.0000
  H   H128      1.0  0.55766  0.14592  0.33987  1.0000
  H   H129      1.0  0.50960  0.11993  0.48258  1.0000
  H   H130      1.0  0.50022  0.15002  0.48579  1.0000
  H   H131      1.0  0.52025  0.19234  0.44696  1.0000
  H   H132      1.0  0.51413  0.22436  0.44672  1.0000
  H   H133      1.0  0.61917  0.12176  0.47527  1.0000
  H   H134      1.0  0.65839  0.15242  0.47149  1.0000
  H   H135      1.0  0.73654  0.19363  0.42580  1.0000
  H   H136      1.0  0.69851  0.16109  0.42631  1.0000
  H   H137      1.0  0.36696  0.95581  0.42520  1.0000
  H   H138      1.0  0.32869  0.92368  0.42460  1.0000
  C   C231      1.0  0.27599  0.50916  0.41655  1.0000
  C   C232      1.0  0.29732  0.50985  0.42032  1.0000
  H   H139      1.0  0.30417  0.50977  0.48143  1.0000
  C   C233      1.0  0.20472  0.51226  0.32744  1.0000
  C   C234      1.0  0.21444  0.51072  0.40954  1.0000
  C   C235      1.0  0.23487  0.50959  0.41120  1.0000
  N   N25       1.0  0.24504  0.50903  0.48907  1.0000
  N   N26       1.0  0.26449  0.50882  0.49161  1.0000
  H   H140      1.0  0.20727  0.51143  0.46885  1.0000
  C   C236      1.0  0.57814  0.88320  0.34362  1.0000
  C   C237      1.0  0.57959  0.84183  0.33489  1.0000
  C   C238      1.0  0.57993  0.85154  0.41916  1.0000
  C   C239      1.0  0.57924  0.87218  0.42290  1.0000
  H   H141      1.0  0.57931  0.87901  0.48401  1.0000
  C   C240      1.0  0.57934  0.82066  0.33221  1.0000
  C   C241      1.0  0.57683  0.77731  0.33015  1.0000
  C   C242      1.0  0.57840  0.78846  0.41223  1.0000
  C   C243      1.0  0.57950  0.81001  0.41386  1.0000
  N   N27       1.0  0.58007  0.82062  0.49172  1.0000
  N   N28       1.0  0.58027  0.84027  0.49423  1.0000
  H   H142      1.0  0.57765  0.78048  0.47155  1.0000
  C   C244      1.0  0.23745  0.81306  0.41621  1.0000
  C   C245      1.0  0.21681  0.79172  0.41954  1.0000
  H   H143      1.0  0.20990  0.78482  0.48052  1.0000
  C   C246      1.0  0.30052  0.87463  0.41053  1.0000
  C   C247      1.0  0.27897  0.85419  0.41173  1.0000
  N   N29       1.0  0.26826  0.84396  0.48937  1.0000
  N   N30       1.0  0.24861  0.82451  0.49149  1.0000
  H   H144      1.0  0.30841  0.88174  0.47001  1.0000
  C   C248      1.0  0.78413  0.60609  0.41699  1.0000
  C   C249      1.0  0.76259  0.60494  0.42069  1.0000
  H   H145      1.0  0.75566  0.60467  0.48180  1.0000
  C   C250      1.0  0.85623  0.60484  0.32785  1.0000
  C   C251      1.0  0.84636  0.60589  0.40999  1.0000
  C   C252      1.0  0.82569  0.60656  0.41167  1.0000
  N   N31       1.0  0.81539  0.60664  0.48954  1.0000
  N   N32       1.0  0.79574  0.60642  0.49206  1.0000
  H   H146      1.0  0.85361  0.60514  0.46927  1.0000
  C   C253      1.0  0.48527  0.23148  0.34405  1.0000
  C   C254      1.0  0.48289  0.27237  0.33537  1.0000
  C   C255      1.0  0.48302  0.26277  0.41964  1.0000
  C   C256      1.0  0.48417  0.24237  0.42336  1.0000
  H   H147      1.0  0.48443  0.23561  0.48448  1.0000
  C   C257      1.0  0.48268  0.29331  0.33267  1.0000
  C   C258      1.0  0.48426  0.33624  0.33049  1.0000
  C   C259      1.0  0.48320  0.32519  0.41264  1.0000
  C   C260      1.0  0.48254  0.30386  0.41432  1.0000
  N   N33       1.0  0.48245  0.29335  0.49219  1.0000
  N   N34       1.0  0.48268  0.27391  0.49472  1.0000
  H   H148      1.0  0.48395  0.33310  0.47192  1.0000
  C   C261      1.0  0.82643  0.30502  0.41666  1.0000
  C   C262      1.0  0.84682  0.32657  0.41995  1.0000
  H   H149      1.0  0.85366  0.33354  0.48092  1.0000
  C   C263      1.0  0.76402  0.24275  0.41101  1.0000
  C   C264      1.0  0.78535  0.26344  0.41221  1.0000
  N   N35       1.0  0.79596  0.27379  0.48986  1.0000
  N   N36       1.0  0.81539  0.29346  0.49197  1.0000
  H   H150      1.0  0.75619  0.23556  0.47046  1.0000
