data_image0
_chemical_formula_structural       C4NOCHC4NOCHC4NOCHC4NOCHC2NOCHC2NOCHC2NOCHC2NOCHC2NOCHC2NOCHC2NOCHC2NOCHC4NOCHC4NOCHC4NOCHC4NOCHC4NOCHC4NOCHC4NOCHC4NOCHC2NOCHC2NOCHC2NOCHC2NOCHC2NOCHC2NOCHC2NOCHC2NOCHC2NOCHC2NOCHC6H3C6H3C6H3C6H3C6H3C6H3C6H3C6H3C6H3C6H3C6H3C6H3C6H3C6H3C6H3C6H3C6H3C6H3C6H3C6H3C2NOCHC2NOCHC2NOCHC2NOCHC4NOCHC4NOCHC4NOCHC4NOCHC4NOCHC4NOCHC4NOCHC4NOCHC2NOCHC2NOCHC2NOCHC2NOCHC2NOCHC2NOCHC2NOCHC2NOCHC4NOCHC4NOCHC4NOCHC4NOCHC4NOCHC4NOCHC4NOCHC4NOCHC4NOCHC4NOCH
_chemical_formula_sum              "C360 N60 O60 H120"
_cell_length_a       44.534
_cell_length_b       44.534
_cell_length_c       14.8601
_cell_angle_alpha    90
_cell_angle_beta     90
_cell_angle_gamma    90

_space_group_name_H-M_alt    "P 1"
_space_group_IT_number       1

loop_
  _space_group_symop_operation_xyz
  'x, y, z'

loop_
  _atom_site_type_symbol
  _atom_site_label
  _atom_site_symmetry_multiplicity
  _atom_site_fract_x
  _atom_site_fract_y
  _atom_site_fract_z
  _atom_site_occupancy
  C   C1        1.0  0.37561  0.05578  0.35161  1.0000
  C   C2        1.0  0.36364  0.03527  0.28827  1.0000
  C   C3        1.0  0.33317  0.02783  0.28853  1.0000
  C   C4        1.0  0.31287  0.03993  0.35202  1.0000
  N   N1        1.0  0.32849  0.00975  0.21853  1.0000
  O   O1        1.0  0.37835  0.02200  0.21834  1.0000
  C   C5        1.0  0.35540  0.00629  0.17927  1.0000
  H   H1        1.0  0.35829  0.99388  0.12213  1.0000
  C   C6        1.0  0.63401  0.95362  0.33630  1.0000
  C   C7        1.0  0.65388  0.94191  0.27087  1.0000
  C   C8        1.0  0.68425  0.94963  0.27073  1.0000
  C   C9        1.0  0.69680  0.96945  0.33491  1.0000
  N   N2        1.0  0.69692  0.93513  0.20213  1.0000
  O   O2        1.0  0.64712  0.92274  0.20229  1.0000
  C   C10       1.0  0.67472  0.91946  0.16318  1.0000
  H   H2        1.0  0.67814  0.90620  0.10806  1.0000
  C   C11       1.0  0.95360  0.37557  0.35227  1.0000
  C   C12       1.0  0.97402  0.36313  0.28946  1.0000
  C   C13       1.0  0.98147  0.33267  0.29163  1.0000
  C   C14       1.0  0.96956  0.31284  0.35674  1.0000
  N   N3        1.0  0.99951  0.32750  0.22184  1.0000
  O   O3        1.0  0.98720  0.37732  0.21844  1.0000
  C   C15       1.0  0.00282  0.35409  0.18061  1.0000
  H   H3        1.0  0.01537  0.35662  0.12358  1.0000
  C   C16       1.0  0.05588  0.63389  0.33842  1.0000
  C   C17       1.0  0.03524  0.64616  0.27602  1.0000
  C   C18       1.0  0.02778  0.67661  0.27775  1.0000
  C   C19       1.0  0.04000  0.69663  0.34186  1.0000
  N   N4        1.0  0.00942  0.68158  0.20860  1.0000
  O   O4        1.0  0.02169  0.63174  0.20605  1.0000
  C   C20       1.0  0.00585  0.65485  0.16836  1.0000
  H   H4        1.0  0.99317  0.65219  0.11166  1.0000
  C   C21       1.0  0.18452  0.56006  0.26690  1.0000
  C   C22       1.0  0.15409  0.56751  0.26766  1.0000
  N   N5        1.0  0.14953  0.58641  0.19955  1.0000
  O   O5        1.0  0.19938  0.57423  0.19890  1.0000
  C   C23       1.0  0.17641  0.59003  0.16030  1.0000
  H   H5        1.0  0.17949  0.60354  0.10556  1.0000
  C   C24       1.0  0.83237  0.48171  0.29037  1.0000
  C   C25       1.0  0.86274  0.47389  0.28949  1.0000
  N   N6        1.0  0.87503  0.48760  0.21886  1.0000
  O   O6        1.0  0.82527  0.50018  0.22044  1.0000
  C   C26       1.0  0.85274  0.50328  0.18037  1.0000
  H   H6        1.0  0.85577  0.51548  0.12289  1.0000
  C   C27       1.0  0.56005  0.82524  0.26565  1.0000
  C   C28       1.0  0.56760  0.85564  0.26820  1.0000
  N   N7        1.0  0.58655  0.86056  0.20040  1.0000
  O   O7        1.0  0.57424  0.81075  0.19697  1.0000
  C   C29       1.0  0.59011  0.83391  0.15970  1.0000
  H   H7        1.0  0.60366  0.83113  0.10489  1.0000
  C   C30       1.0  0.44917  0.18445  0.28172  1.0000
  C   C31       1.0  0.44172  0.15403  0.28332  1.0000
  N   N8        1.0  0.42280  0.14926  0.21538  1.0000
  O   O8        1.0  0.43497  0.19910  0.21334  1.0000
  C   C32       1.0  0.41915  0.17602  0.17544  1.0000
  H   H8        1.0  0.40563  0.17893  0.12065  1.0000
  C   C33       1.0  0.21786  0.10163  0.25769  1.0000
  C   C34       1.0  0.20661  0.13095  0.26173  1.0000
  N   N9        1.0  0.21783  0.14574  0.19147  1.0000
  O   O9        1.0  0.23673  0.09807  0.18622  1.0000
  C   C35       1.0  0.23503  0.12586  0.14742  1.0000
  H   H9        1.0  0.24712  0.13150  0.09151  1.0000
  C   C36       1.0  0.81689  0.91928  0.28767  1.0000
  C   C37       1.0  0.82830  0.88989  0.28528  1.0000
  N   N10       1.0  0.84299  0.88698  0.20775  1.0000
  O   O10       1.0  0.82389  0.93468  0.21133  1.0000
  C   C38       1.0  0.84086  0.91377  0.16688  1.0000
  H   H10       1.0  0.84916  0.91746  0.10379  1.0000
  C   C39       1.0  0.90819  0.21770  0.26362  1.0000
  C   C40       1.0  0.87885  0.20646  0.26646  1.0000
  N   N11       1.0  0.86444  0.21754  0.19528  1.0000
  O   O11       1.0  0.91217  0.23635  0.19181  1.0000
  C   C41       1.0  0.88453  0.23473  0.15205  1.0000
  H   H11       1.0  0.87931  0.24640  0.09499  1.0000
  C   C42       1.0  0.10173  0.79184  0.25115  1.0000
  C   C43       1.0  0.13105  0.80306  0.25569  1.0000
  N   N12       1.0  0.14591  0.79200  0.18532  1.0000
  O   O12       1.0  0.09821  0.77320  0.17912  1.0000
  C   C44       1.0  0.12611  0.77481  0.14095  1.0000
  H   H12       1.0  0.13168  0.76316  0.08417  1.0000
  C   C45       1.0  0.32157  0.64123  0.35137  1.0000
  C   C46       1.0  0.32851  0.61975  0.28407  1.0000
  C   C47       1.0  0.31649  0.59060  0.28621  1.0000
  C   C48       1.0  0.29785  0.58026  0.35684  1.0000
  N   N13       1.0  0.32378  0.57752  0.20869  1.0000
  O   O13       1.0  0.34359  0.62494  0.20588  1.0000
  C   C49       1.0  0.34024  0.59782  0.16371  1.0000
  H   H13       1.0  0.34807  0.59398  0.10016  1.0000
  C   C50       1.0  0.68774  0.36810  0.33532  1.0000
  C   C51       1.0  0.70602  0.37834  0.26373  1.0000
  C   C52       1.0  0.71743  0.40761  0.26201  1.0000
  C   C53       1.0  0.71143  0.42914  0.33007  1.0000
  N   N14       1.0  0.73518  0.40950  0.19005  1.0000
  O   O14       1.0  0.71615  0.36185  0.19267  1.0000
  C   C54       1.0  0.73388  0.38251  0.15016  1.0000
  H   H14       1.0  0.74567  0.37759  0.09310  1.0000
  C   C55       1.0  0.64115  0.68781  0.35044  1.0000
  C   C56       1.0  0.61969  0.68047  0.28344  1.0000
  C   C57       1.0  0.59057  0.69256  0.28470  1.0000
  C   C58       1.0  0.58010  0.71153  0.35439  1.0000
  N   N15       1.0  0.57746  0.68465  0.20779  1.0000
  O   O15       1.0  0.62488  0.66480  0.20630  1.0000
  C   C59       1.0  0.59780  0.66796  0.16376  1.0000
  H   H15       1.0  0.59381  0.65933  0.10123  1.0000
  C   C60       1.0  0.36810  0.32171  0.35692  1.0000
  C   C61       1.0  0.38965  0.32814  0.28937  1.0000
  C   C62       1.0  0.41881  0.31621  0.29270  1.0000
  C   C63       1.0  0.42915  0.29818  0.36476  1.0000
  N   N16       1.0  0.43207  0.32316  0.21516  1.0000
  O   O16       1.0  0.38460  0.34285  0.21047  1.0000
  C   C64       1.0  0.41180  0.33927  0.16892  1.0000
  H   H16       1.0  0.41582  0.34691  0.10525  1.0000
  C   C65       1.0  0.21540  0.90385  0.34417  1.0000
  C   C66       1.0  0.20195  0.92486  0.28466  1.0000
  C   C67       1.0  0.20876  0.95564  0.28785  1.0000
  C   C68       1.0  0.22896  0.96819  0.35112  1.0000
  N   N17       1.0  0.19436  0.96854  0.21952  1.0000
  O   O17       1.0  0.18321  0.91846  0.21477  1.0000
  C   C69       1.0  0.17913  0.94641  0.17870  1.0000
  H   H17       1.0  0.16654  0.94996  0.12225  1.0000
  C   C70       1.0  0.79397  0.10557  0.34216  1.0000
  C   C71       1.0  0.77446  0.09295  0.27710  1.0000
  C   C72       1.0  0.76828  0.06211  0.27466  1.0000
  C   C73       1.0  0.78071  0.04117  0.33639  1.0000
  N   N18       1.0  0.74945  0.05773  0.20622  1.0000
  O   O18       1.0  0.75984  0.10792  0.21016  1.0000
  C   C74       1.0  0.74476  0.08486  0.16972  1.0000
  H   H18       1.0  0.73111  0.08802  0.11532  1.0000
  C   C75       1.0  0.10563  0.21535  0.34980  1.0000
  C   C76       1.0  0.08455  0.20187  0.29057  1.0000
  C   C77       1.0  0.05378  0.20871  0.29396  1.0000
  C   C78       1.0  0.04129  0.22892  0.35732  1.0000
  N   N19       1.0  0.04077  0.19419  0.22605  1.0000
  O   O19       1.0  0.09086  0.18302  0.22087  1.0000
  C   C79       1.0  0.06287  0.17899  0.18498  1.0000
  H   H19       1.0  0.05921  0.16609  0.12922  1.0000
  C   C80       1.0  0.90385  0.79379  0.34113  1.0000
  C   C81       1.0  0.92443  0.80729  0.28040  1.0000
  C   C82       1.0  0.95526  0.80060  0.28196  1.0000
  C   C83       1.0  0.96827  0.78053  0.34476  1.0000
  N   N20       1.0  0.96772  0.81519  0.21328  1.0000
  O   O20       1.0  0.91755  0.82617  0.21129  1.0000
  C   C84       1.0  0.94528  0.83033  0.17371  1.0000
  H   H20       1.0  0.94847  0.84316  0.11755  1.0000
  C   C85       1.0  0.26807  0.44738  0.27145  1.0000
  C   C86       1.0  0.27443  0.41658  0.27561  1.0000
  N   N21       1.0  0.25925  0.40348  0.20915  1.0000
  O   O21       1.0  0.24878  0.45364  0.20269  1.0000
  C   C87       1.0  0.24429  0.42563  0.16758  1.0000
  H   H21       1.0  0.23075  0.42188  0.11329  1.0000
  C   C88       1.0  0.70869  0.55362  0.28817  1.0000
  C   C89       1.0  0.70248  0.58454  0.28550  1.0000
  N   N22       1.0  0.68434  0.58905  0.21557  1.0000
  O   O22       1.0  0.69485  0.53878  0.21958  1.0000
  C   C90       1.0  0.67973  0.56187  0.17915  1.0000
  H   H22       1.0  0.66715  0.55888  0.12239  1.0000
  C   C91       1.0  0.44728  0.74131  0.26776  1.0000
  C   C92       1.0  0.41649  0.73494  0.27183  1.0000
  N   N23       1.0  0.40341  0.75010  0.20525  1.0000
  O   O23       1.0  0.45357  0.76058  0.19896  1.0000
  C   C93       1.0  0.42558  0.76502  0.16368  1.0000
  H   H23       1.0  0.42185  0.77858  0.10942  1.0000
  C   C94       1.0  0.56161  0.26775  0.27918  1.0000
  C   C95       1.0  0.59242  0.27408  0.28155  1.0000
  N   N24       1.0  0.60509  0.25863  0.21484  1.0000
  O   O24       1.0  0.55490  0.24821  0.21145  1.0000
  C   C96       1.0  0.58267  0.24358  0.17491  1.0000
  H   H24       1.0  0.58608  0.22980  0.12096  1.0000
  C   C97       1.0  0.23813  0.24930  0.28200  1.0000
  C   C98       1.0  0.26034  0.27170  0.28366  1.0000
  N   N25       1.0  0.28049  0.26447  0.22108  1.0000
  O   O25       1.0  0.24424  0.22822  0.21805  1.0000
  C   C99       1.0  0.27074  0.23879  0.18418  1.0000
  H   H25       1.0  0.28187  0.22832  0.13295  1.0000
  C   C100      1.0  0.79799  0.73372  0.29444  1.0000
  C   C101      1.0  0.77550  0.71154  0.29501  1.0000
  N   N26       1.0  0.78251  0.69196  0.23063  1.0000
  O   O26       1.0  0.81892  0.72810  0.22973  1.0000
  C   C102      1.0  0.80828  0.70181  0.19452  1.0000
  H   H26       1.0  0.81841  0.69126  0.14159  1.0000
  C   C103      1.0  0.76016  0.23769  0.27632  1.0000
  C   C104      1.0  0.73772  0.25986  0.27685  1.0000
  N   N27       1.0  0.74502  0.27968  0.21336  1.0000
  O   O27       1.0  0.78141  0.24355  0.21266  1.0000
  C   C105      1.0  0.77074  0.26975  0.17709  1.0000
  H   H27       1.0  0.78138  0.28078  0.12598  1.0000
  C   C106      1.0  0.24926  0.77129  0.27748  1.0000
  C   C107      1.0  0.27163  0.74906  0.27928  1.0000
  N   N28       1.0  0.26441  0.72889  0.21672  1.0000
  O   O28       1.0  0.22818  0.76516  0.21353  1.0000
  C   C108      1.0  0.23879  0.73870  0.17956  1.0000
  H   H28       1.0  0.22822  0.72745  0.12874  1.0000
  C   C109      1.0  0.48165  0.00448  0.28309  1.0000
  C   C110      1.0  0.50389  0.98244  0.28177  1.0000
  N   N29       1.0  0.49802  0.96458  0.21203  1.0000
  O   O29       1.0  0.46170  0.00081  0.21439  1.0000
  C   C111      1.0  0.47302  0.97563  0.17413  1.0000
  H   H29       1.0  0.46360  0.96640  0.11791  1.0000
  C   C112      1.0  0.00467  0.48170  0.27538  1.0000
  C   C113      1.0  0.02675  0.50391  0.27386  1.0000
  N   N30       1.0  0.04443  0.49811  0.20369  1.0000
  O   O30       1.0  0.00819  0.46179  0.20651  1.0000
  C   C114      1.0  0.03326  0.47316  0.16576  1.0000
  H   H30       1.0  0.04238  0.46377  0.10933  1.0000
  C   C115      1.0  0.28162  0.03422  0.34778  1.0000
  C   C116      1.0  0.26139  0.05839  0.34108  1.0000
  C   C117      1.0  0.23006  0.05390  0.33488  1.0000
  C   C118      1.0  0.21905  0.02396  0.33965  1.0000
  C   C119      1.0  0.23883  0.99891  0.34736  1.0000
  C   C120      1.0  0.27011  0.00476  0.34898  1.0000
  H   H31       1.0  0.19637  0.02041  0.33722  1.0000
  H   H32       1.0  0.28500  0.98724  0.35205  1.0000
  H   H33       1.0  0.26982  0.07983  0.33933  1.0000
  C   C121      1.0  0.72807  0.97513  0.33832  1.0000
  C   C122      1.0  0.74833  0.95094  0.34387  1.0000
  C   C123      1.0  0.77966  0.95542  0.35005  1.0000
  C   C124      1.0  0.79068  0.98538  0.34641  1.0000
  C   C125      1.0  0.77088  0.01043  0.33970  1.0000
  C   C126      1.0  0.73960  0.00459  0.33811  1.0000
  H   H34       1.0  0.81336  0.98894  0.34888  1.0000
  H   H35       1.0  0.72471  0.02212  0.33579  1.0000
  H   H36       1.0  0.73991  0.92950  0.34506  1.0000
  C   C127      1.0  0.97524  0.28157  0.35416  1.0000
  C   C128      1.0  0.95106  0.26133  0.34820  1.0000
  C   C129      1.0  0.95554  0.23000  0.34222  1.0000
  C   C130      1.0  0.98549  0.21898  0.34673  1.0000
  C   C131      1.0  0.01055  0.23877  0.35398  1.0000
  C   C132      1.0  0.00470  0.27005  0.35525  1.0000
  H   H37       1.0  0.98905  0.19630  0.34427  1.0000
  H   H38       1.0  0.02223  0.28495  0.35768  1.0000
  H   H39       1.0  0.92962  0.26976  0.34620  1.0000
  C   C133      1.0  0.03427  0.72789  0.33890  1.0000
  C   C134      1.0  0.05843  0.74816  0.33284  1.0000
  C   C135      1.0  0.05394  0.77950  0.32746  1.0000
  C   C136      1.0  0.02400  0.79051  0.33255  1.0000
  C   C137      1.0  0.99897  0.77069  0.33975  1.0000
  C   C138      1.0  0.00481  0.73940  0.34046  1.0000
  H   H40       1.0  0.02043  0.81319  0.33089  1.0000
  H   H41       1.0  0.98730  0.72451  0.34330  1.0000
  H   H42       1.0  0.07987  0.73974  0.33082  1.0000
  C   C139      1.0  0.22800  0.53438  0.33524  1.0000
  C   C140      1.0  0.24824  0.55854  0.34172  1.0000
  C   C141      1.0  0.27955  0.55402  0.34808  1.0000
  C   C142      1.0  0.29056  0.52407  0.34394  1.0000
  C   C143      1.0  0.27077  0.49903  0.33646  1.0000
  C   C144      1.0  0.23949  0.50490  0.33445  1.0000
  H   H43       1.0  0.31324  0.52050  0.34662  1.0000
  H   H44       1.0  0.22460  0.48739  0.33147  1.0000
  H   H45       1.0  0.23984  0.58000  0.34342  1.0000
  C   C145      1.0  0.78125  0.47510  0.35173  1.0000
  C   C146      1.0  0.76102  0.45091  0.34581  1.0000
  C   C147      1.0  0.72970  0.45539  0.33893  1.0000
  C   C148      1.0  0.71866  0.48534  0.34235  1.0000
  C   C149      1.0  0.73844  0.51040  0.34949  1.0000
  C   C150      1.0  0.76971  0.50456  0.35174  1.0000
  H   H46       1.0  0.69599  0.48890  0.33933  1.0000
  H   H47       1.0  0.78459  0.52210  0.35418  1.0000
  H   H48       1.0  0.76945  0.42947  0.34460  1.0000
  C   C151      1.0  0.53426  0.78141  0.33175  1.0000
  C   C152      1.0  0.55842  0.76116  0.33814  1.0000
  C   C153      1.0  0.55390  0.72984  0.34471  1.0000
  C   C154      1.0  0.52395  0.71884  0.34054  1.0000
  C   C155      1.0  0.49892  0.73863  0.33284  1.0000
  C   C156      1.0  0.50479  0.76990  0.33086  1.0000
  H   H49       1.0  0.52037  0.69616  0.34348  1.0000
  H   H50       1.0  0.48727  0.78479  0.32806  1.0000
  H   H51       1.0  0.57987  0.76957  0.34005  1.0000
  C   C157      1.0  0.47498  0.22812  0.34827  1.0000
  C   C158      1.0  0.45084  0.24844  0.35355  1.0000
  C   C159      1.0  0.45538  0.27980  0.35765  1.0000
  C   C160      1.0  0.48534  0.29075  0.35254  1.0000
  C   C161      1.0  0.51035  0.27087  0.34626  1.0000
  C   C162      1.0  0.50446  0.23959  0.34645  1.0000
  H   H52       1.0  0.48894  0.31344  0.35342  1.0000
  H   H53       1.0  0.52197  0.22467  0.34406  1.0000
  H   H54       1.0  0.42939  0.24007  0.35572  1.0000
  C   C163      1.0  0.19050  0.22626  0.34102  1.0000
  C   C164      1.0  0.19931  0.19563  0.33723  1.0000
  C   C165      1.0  0.17830  0.17172  0.33815  1.0000
  C   C166      1.0  0.14744  0.17891  0.34309  1.0000
  C   C167      1.0  0.13725  0.20902  0.34626  1.0000
  C   C168      1.0  0.15918  0.23223  0.34595  1.0000
  H   H55       1.0  0.13207  0.16180  0.34395  1.0000
  H   H56       1.0  0.15207  0.25408  0.34559  1.0000
  H   H57       1.0  0.22171  0.19046  0.33646  1.0000
  C   C169      1.0  0.81900  0.78300  0.34853  1.0000
  C   C170      1.0  0.81017  0.81362  0.34985  1.0000
  C   C171      1.0  0.83119  0.83751  0.34614  1.0000
  C   C172      1.0  0.86203  0.83029  0.34036  1.0000
  C   C173      1.0  0.87222  0.80016  0.34046  1.0000
  C   C174      1.0  0.85030  0.77698  0.34427  1.0000
  H   H58       1.0  0.87745  0.84737  0.34103  1.0000
  H   H59       1.0  0.85738  0.75511  0.34483  1.0000
  H   H60       1.0  0.78777  0.81879  0.35124  1.0000
  C   C175      1.0  0.78315  0.19042  0.33787  1.0000
  C   C176      1.0  0.81376  0.19929  0.33755  1.0000
  C   C177      1.0  0.83766  0.17829  0.34126  1.0000
  C   C178      1.0  0.83044  0.14741  0.34574  1.0000
  C   C179      1.0  0.80033  0.13719  0.34442  1.0000
  C   C180      1.0  0.77713  0.15910  0.34091  1.0000
  H   H61       1.0  0.84754  0.13201  0.34497  1.0000
  H   H62       1.0  0.75527  0.15202  0.33955  1.0000
  H   H63       1.0  0.81888  0.22171  0.33708  1.0000
  C   C181      1.0  0.22625  0.81897  0.33618  1.0000
  C   C182      1.0  0.19563  0.81018  0.33222  1.0000
  C   C183      1.0  0.17173  0.83121  0.33287  1.0000
  C   C184      1.0  0.17894  0.86207  0.33765  1.0000
  C   C185      1.0  0.20905  0.87224  0.34091  1.0000
  C   C186      1.0  0.23225  0.85028  0.34089  1.0000
  H   H64       1.0  0.16183  0.87745  0.33826  1.0000
  H   H65       1.0  0.25411  0.85738  0.34066  1.0000
  H   H66       1.0  0.19042  0.78779  0.33161  1.0000
  C   C187      1.0  0.31892  0.72629  0.34071  1.0000
  C   C188      1.0  0.31003  0.69572  0.34538  1.0000
  C   C189      1.0  0.33109  0.67185  0.34610  1.0000
  C   C190      1.0  0.36198  0.67906  0.34274  1.0000
  C   C191      1.0  0.37218  0.70917  0.33991  1.0000
  C   C192      1.0  0.35024  0.73237  0.33868  1.0000
  H   H67       1.0  0.37736  0.66194  0.34267  1.0000
  H   H68       1.0  0.35724  0.75424  0.33575  1.0000
  H   H69       1.0  0.28762  0.69063  0.34829  1.0000
  C   C193      1.0  0.69038  0.28297  0.33823  1.0000
  C   C194      1.0  0.69921  0.31359  0.33705  1.0000
  C   C195      1.0  0.67820  0.33748  0.34069  1.0000
  C   C196      1.0  0.64735  0.33026  0.34605  1.0000
  C   C197      1.0  0.63714  0.30013  0.34590  1.0000
  C   C198      1.0  0.65907  0.27695  0.34225  1.0000
  H   H70       1.0  0.63194  0.34735  0.34547  1.0000
  H   H71       1.0  0.65200  0.25508  0.34171  1.0000
  H   H72       1.0  0.72162  0.31875  0.33595  1.0000
  C   C199      1.0  0.72629  0.69039  0.34949  1.0000
  C   C200      1.0  0.69567  0.69926  0.34971  1.0000
  C   C201      1.0  0.67178  0.67825  0.34615  1.0000
  C   C202      1.0  0.67901  0.64737  0.34196  1.0000
  C   C203      1.0  0.70913  0.63716  0.34329  1.0000
  C   C204      1.0  0.73232  0.65908  0.34670  1.0000
  H   H73       1.0  0.66192  0.63196  0.34264  1.0000
  H   H74       1.0  0.75419  0.65200  0.34813  1.0000
  H   H75       1.0  0.69055  0.72167  0.35006  1.0000
  C   C205      1.0  0.28308  0.31902  0.34495  1.0000
  C   C206      1.0  0.31365  0.31013  0.35003  1.0000
  C   C207      1.0  0.33751  0.33120  0.35083  1.0000
  C   C208      1.0  0.33031  0.36208  0.34709  1.0000
  C   C209      1.0  0.30021  0.37228  0.34389  1.0000
  C   C210      1.0  0.27701  0.35033  0.34261  1.0000
  H   H76       1.0  0.34743  0.37746  0.34709  1.0000
  H   H77       1.0  0.25514  0.35733  0.33948  1.0000
  H   H78       1.0  0.31874  0.28773  0.35330  1.0000
  C   C211      1.0  0.44533  0.10335  0.35003  1.0000
  C   C212      1.0  0.41478  0.09477  0.35045  1.0000
  C   C213      1.0  0.40627  0.06421  0.35058  1.0000
  C   C214      1.0  0.42894  0.04208  0.35003  1.0000
  C   C215      1.0  0.45960  0.05007  0.34980  1.0000
  C   C216      1.0  0.46753  0.08075  0.35017  1.0000
  H   H79       1.0  0.42304  0.01984  0.35219  1.0000
  H   H80       1.0  0.48974  0.08671  0.34707  1.0000
  H   H81       1.0  0.39849  0.11102  0.35042  1.0000
  C   C217      1.0  0.56418  0.90614  0.33676  1.0000
  C   C218      1.0  0.59473  0.91470  0.33587  1.0000
  C   C219      1.0  0.60332  0.94524  0.33840  1.0000
  C   C220      1.0  0.58069  0.96738  0.34211  1.0000
  C   C221      1.0  0.55001  0.95945  0.34297  1.0000
  C   C222      1.0  0.54206  0.92879  0.34040  1.0000
  H   H82       1.0  0.58660  0.98963  0.34092  1.0000
  H   H83       1.0  0.51981  0.92287  0.34073  1.0000
  H   H84       1.0  0.61100  0.89843  0.33567  1.0000
  C   C223      1.0  0.90602  0.44533  0.34989  1.0000
  C   C224      1.0  0.91463  0.41480  0.35154  1.0000
  C   C225      1.0  0.94518  0.40625  0.34931  1.0000
  C   C226      1.0  0.96729  0.42889  0.34509  1.0000
  C   C227      1.0  0.95930  0.45954  0.34358  1.0000
  C   C228      1.0  0.92864  0.46748  0.34595  1.0000
  H   H85       1.0  0.98955  0.42302  0.34639  1.0000
  H   H86       1.0  0.92271  0.48973  0.34523  1.0000
  H   H87       1.0  0.89837  0.39852  0.35194  1.0000
  C   C229      1.0  0.10325  0.56406  0.33348  1.0000
  C   C230      1.0  0.09476  0.59463  0.33458  1.0000
  C   C231      1.0  0.06422  0.60321  0.33607  1.0000
  C   C232      1.0  0.04202  0.58061  0.33628  1.0000
  C   C233      1.0  0.04992  0.54992  0.33555  1.0000
  C   C234      1.0  0.08058  0.54192  0.33415  1.0000
  H   H88       1.0  0.01980  0.58659  0.33760  1.0000
  H   H89       1.0  0.08649  0.51968  0.33381  1.0000
  H   H90       1.0  0.11105  0.61089  0.33452  1.0000
  C   C235      1.0  0.32497  0.05997  0.41636  1.0000
  C   C236      1.0  0.35536  0.06754  0.41580  1.0000
  N   N31       1.0  0.35981  0.08644  0.48398  1.0000
  O   O31       1.0  0.31001  0.07409  0.48429  1.0000
  C   C237      1.0  0.33289  0.08996  0.52305  1.0000
  H   H91       1.0  0.32973  0.10344  0.57782  1.0000
  C   C238      1.0  0.67685  0.98161  0.39935  1.0000
  C   C239      1.0  0.64648  0.97377  0.39976  1.0000
  N   N32       1.0  0.63406  0.98744  0.47027  1.0000
  O   O32       1.0  0.68382  0.00004  0.46949  1.0000
  C   C240      1.0  0.65628  0.00310  0.50919  1.0000
  H   H92       1.0  0.65314  0.01528  0.56665  1.0000
  C   C241      1.0  0.94958  0.32539  0.42050  1.0000
  C   C242      1.0  0.94198  0.35578  0.41800  1.0000
  N   N33       1.0  0.92321  0.36070  0.48622  1.0000
  O   O33       1.0  0.93558  0.31092  0.48957  1.0000
  C   C243      1.0  0.91978  0.33408  0.52712  1.0000
  H   H93       1.0  0.90638  0.33131  0.58226  1.0000
  C   C244      1.0  0.06020  0.68422  0.40528  1.0000
  C   C245      1.0  0.06778  0.65384  0.40326  1.0000
  N   N34       1.0  0.08680  0.64906  0.47092  1.0000
  O   O34       1.0  0.07445  0.69886  0.47361  1.0000
  C   C246      1.0  0.09039  0.67579  0.51111  1.0000
  H   H94       1.0  0.10399  0.67869  0.56575  1.0000
  C   C247      1.0  0.13392  0.55568  0.33199  1.0000
  C   C248      1.0  0.14603  0.53523  0.39527  1.0000
  C   C249      1.0  0.17652  0.52790  0.39480  1.0000
  C   C250      1.0  0.19674  0.54006  0.33118  1.0000
  N   N35       1.0  0.18132  0.50986  0.46481  1.0000
  O   O35       1.0  0.13143  0.52195  0.46538  1.0000
  C   C251      1.0  0.15446  0.50631  0.50428  1.0000
  H   H95       1.0  0.15167  0.49393  0.56153  1.0000
  C   C252      1.0  0.87533  0.45369  0.35260  1.0000
  C   C253      1.0  0.85556  0.44189  0.41818  1.0000
  C   C254      1.0  0.82518  0.44957  0.41877  1.0000
  C   C255      1.0  0.81253  0.46946  0.35494  1.0000
  N   N36       1.0  0.81261  0.43496  0.48731  1.0000
  O   O36       1.0  0.86242  0.42263  0.48644  1.0000
  C   C256      1.0  0.83488  0.41927  0.52582  1.0000
  H   H96       1.0  0.83154  0.40591  0.58079  1.0000
  C   C257      1.0  0.55579  0.87545  0.33360  1.0000
  C   C258      1.0  0.53525  0.86300  0.39600  1.0000
  C   C259      1.0  0.52784  0.83253  0.39379  1.0000
  C   C260      1.0  0.53994  0.81268  0.32905  1.0000
  N   N37       1.0  0.50966  0.82736  0.46324  1.0000
  O   O37       1.0  0.52191  0.87719  0.46675  1.0000
  C   C261      1.0  0.50621  0.85396  0.50431  1.0000
  H   H97       1.0  0.49355  0.85648  0.56112  1.0000
  C   C262      1.0  0.45363  0.13404  0.34802  1.0000
  C   C263      1.0  0.47417  0.14632  0.41074  1.0000
  C   C264      1.0  0.48150  0.17681  0.40941  1.0000
  C   C265      1.0  0.46926  0.19685  0.34544  1.0000
  N   N38       1.0  0.49982  0.18175  0.47869  1.0000
  O   O38       1.0  0.48773  0.13185  0.48059  1.0000
  C   C266      1.0  0.50346  0.15497  0.51865  1.0000
  H   H98       1.0  0.51615  0.15229  0.57533  1.0000
  C   C267      1.0  0.18788  0.14110  0.33231  1.0000
  C   C268      1.0  0.18044  0.11926  0.39810  1.0000
  C   C269      1.0  0.19253  0.09015  0.39556  1.0000
  C   C270      1.0  0.21178  0.08016  0.32591  1.0000
  N   N39       1.0  0.18463  0.07667  0.47193  1.0000
  O   O39       1.0  0.16472  0.12404  0.47539  1.0000
  C   C271      1.0  0.16774  0.09671  0.51654  1.0000
  H   H99       1.0  0.15941  0.09255  0.57932  1.0000
  C   C272      1.0  0.82165  0.86812  0.35194  1.0000
  C   C273      1.0  0.80352  0.87828  0.42400  1.0000
  C   C274      1.0  0.79211  0.90755  0.42623  1.0000
  C   C275      1.0  0.79796  0.92916  0.35828  1.0000
  N   N40       1.0  0.77451  0.90934  0.49854  1.0000
  O   O40       1.0  0.79354  0.86170  0.49506  1.0000
  C   C276      1.0  0.77590  0.88231  0.53811  1.0000
  H   H100      1.0  0.76422  0.87733  0.59534  1.0000
  C   C277      1.0  0.86830  0.18788  0.33690  1.0000
  C   C278      1.0  0.88979  0.18055  0.40383  1.0000
  C   C279      1.0  0.91890  0.19268  0.40251  1.0000
  C   C280      1.0  0.92931  0.21169  0.33286  1.0000
  N   N41       1.0  0.93206  0.18475  0.47935  1.0000
  O   O41       1.0  0.88465  0.16485  0.48094  1.0000
  C   C281      1.0  0.91174  0.16803  0.52340  1.0000
  H   H101      1.0  0.91577  0.15938  0.58589  1.0000
  C   C282      1.0  0.14114  0.82166  0.32669  1.0000
  C   C283      1.0  0.11925  0.82893  0.39249  1.0000
  C   C284      1.0  0.09013  0.81687  0.38946  1.0000
  C   C285      1.0  0.08021  0.79781  0.31931  1.0000
  N   N42       1.0  0.07650  0.82484  0.46551  1.0000
  O   O42       1.0  0.12389  0.84471  0.46975  1.0000
  C   C286      1.0  0.09650  0.84166  0.51051  1.0000
  H   H102      1.0  0.09218  0.85013  0.57305  1.0000
  C   C287      1.0  0.29219  0.60138  0.42629  1.0000
  C   C288      1.0  0.30337  0.63074  0.42272  1.0000
  N   N43       1.0  0.29264  0.64520  0.49426  1.0000
  O   O43       1.0  0.27382  0.59748  0.49873  1.0000
  C   C289      1.0  0.27579  0.62508  0.53860  1.0000
  H   H103      1.0  0.26409  0.63044  0.59547  1.0000
  C   C290      1.0  0.69237  0.41917  0.40025  1.0000
  C   C291      1.0  0.68097  0.38978  0.40213  1.0000
  N   N44       1.0  0.66613  0.38677  0.47938  1.0000
  O   O44       1.0  0.68523  0.43448  0.47663  1.0000
  C   C292      1.0  0.66819  0.41351  0.52058  1.0000
  H   H104      1.0  0.65976  0.41713  0.58357  1.0000
  C   C293      1.0  0.60121  0.71760  0.42359  1.0000
  C   C294      1.0  0.63057  0.70639  0.42084  1.0000
  N   N45       1.0  0.64495  0.71751  0.49201  1.0000
  O   O45       1.0  0.59720  0.73627  0.49532  1.0000
  C   C295      1.0  0.62484  0.73469  0.53515  1.0000
  H   H105      1.0  0.63002  0.74639  0.59217  1.0000
  C   C296      1.0  0.40788  0.29292  0.43415  1.0000
  C   C297      1.0  0.37850  0.30400  0.42947  1.0000
  N   N46       1.0  0.36395  0.29378  0.50151  1.0000
  O   O46       1.0  0.41173  0.27515  0.50797  1.0000
  C   C298      1.0  0.38400  0.27719  0.54699  1.0000
  H   H106      1.0  0.37869  0.26622  0.60521  1.0000
  C   C299      1.0  0.24165  0.94722  0.41239  1.0000
  C   C300      1.0  0.23518  0.91645  0.40842  1.0000
  N   N47       1.0  0.25063  0.90327  0.47422  1.0000
  O   O47       1.0  0.26124  0.95340  0.48047  1.0000
  C   C301      1.0  0.26582  0.92536  0.51527  1.0000
  H   H107      1.0  0.27959  0.92155  0.56902  1.0000
  C   C302      1.0  0.80080  0.05368  0.40013  1.0000
  C   C303      1.0  0.80705  0.08459  0.40241  1.0000
  N   N48       1.0  0.82534  0.08913  0.47198  1.0000
  O   O48       1.0  0.81475  0.03888  0.46857  1.0000
  C   C304      1.0  0.82999  0.06198  0.50856  1.0000
  H   H108      1.0  0.84268  0.05903  0.56511  1.0000
  C   C305      1.0  0.06232  0.24166  0.41830  1.0000
  C   C306      1.0  0.09310  0.23519  0.41404  1.0000
  N   N49       1.0  0.10634  0.25067  0.47964  1.0000
  O   O49       1.0  0.05622  0.26129  0.48632  1.0000
  C   C307      1.0  0.08429  0.26586  0.52087  1.0000
  H   H109      1.0  0.08816  0.27971  0.57441  1.0000
  C   C308      1.0  0.94775  0.76778  0.40721  1.0000
  C   C309      1.0  0.91694  0.77415  0.40494  1.0000
  N   N50       1.0  0.90429  0.75883  0.47193  1.0000
  O   O50       1.0  0.95447  0.74834  0.47521  1.0000
  C   C310      1.0  0.92670  0.74381  0.51194  1.0000
  H   H110      1.0  0.92331  0.73012  0.56612  1.0000
  C   C311      1.0  0.29391  0.40390  0.34058  1.0000
  C   C312      1.0  0.30717  0.42488  0.40061  1.0000
  C   C313      1.0  0.30048  0.45568  0.39717  1.0000
  C   C314      1.0  0.28061  0.46830  0.33310  1.0000
  N   N51       1.0  0.31465  0.46854  0.46600  1.0000
  O   O51       1.0  0.32562  0.41841  0.47115  1.0000
  C   C315      1.0  0.32962  0.44636  0.50740  1.0000
  H   H111      1.0  0.34201  0.44987  0.56425  1.0000
  C   C316      1.0  0.71548  0.60556  0.34581  1.0000
  C   C317      1.0  0.73483  0.59298  0.41134  1.0000
  C   C318      1.0  0.74094  0.56212  0.41419  1.0000
  C   C319      1.0  0.72860  0.54114  0.35245  1.0000
  N   N52       1.0  0.75963  0.55779  0.48302  1.0000
  O   O52       1.0  0.74934  0.60800  0.47840  1.0000
  C   C320      1.0  0.76430  0.58495  0.51934  1.0000
  H   H112      1.0  0.77784  0.58814  0.57395  1.0000
  C   C321      1.0  0.40380  0.71548  0.33679  1.0000
  C   C322      1.0  0.42474  0.70224  0.39694  1.0000
  C   C323      1.0  0.45554  0.70897  0.39367  1.0000
  C   C324      1.0  0.46818  0.72879  0.32951  1.0000
  N   N53       1.0  0.46839  0.69474  0.46241  1.0000
  O   O53       1.0  0.41826  0.68373  0.46733  1.0000
  C   C325      1.0  0.44618  0.67982  0.50385  1.0000
  H   H113      1.0  0.44972  0.66718  0.56019  1.0000
  C   C326      1.0  0.60551  0.29379  0.34517  1.0000
  C   C327      1.0  0.58490  0.30743  0.40554  1.0000
  C   C328      1.0  0.55406  0.30081  0.40385  1.0000
  C   C329      1.0  0.54107  0.28062  0.34135  1.0000
  N   N54       1.0  0.54156  0.31555  0.47219  1.0000
  O   O54       1.0  0.59175  0.32643  0.47439  1.0000
  C   C330      1.0  0.56400  0.33073  0.51167  1.0000
  H   H114      1.0  0.56078  0.34366  0.56760  1.0000
  C   C331      1.0  0.25943  0.29687  0.34208  1.0000
  C   C332      1.0  0.23367  0.29803  0.39823  1.0000
  C   C333      1.0  0.21154  0.27548  0.39707  1.0000
  C   C334      1.0  0.21267  0.25002  0.33960  1.0000
  N   N55       1.0  0.19177  0.28251  0.46091  1.0000
  O   O55       1.0  0.22783  0.31904  0.46252  1.0000
  C   C335      1.0  0.20150  0.30831  0.49723  1.0000
  H   H115      1.0  0.19073  0.31849  0.54967  1.0000
  C   C336      1.0  0.75004  0.71249  0.35234  1.0000
  C   C337      1.0  0.74925  0.73770  0.41080  1.0000
  C   C338      1.0  0.77169  0.75988  0.41017  1.0000
  C   C339      1.0  0.79688  0.75925  0.35162  1.0000
  N   N56       1.0  0.76438  0.77973  0.47356  1.0000
  O   O56       1.0  0.72800  0.74359  0.47443  1.0000
  C   C340      1.0  0.73867  0.76982  0.50989  1.0000
  H   H116      1.0  0.72802  0.78087  0.56093  1.0000
  C   C341      1.0  0.71251  0.25923  0.33532  1.0000
  C   C342      1.0  0.71138  0.23371  0.39251  1.0000
  C   C343      1.0  0.73392  0.21158  0.39225  1.0000
  C   C344      1.0  0.75938  0.21250  0.33488  1.0000
  N   N57       1.0  0.72689  0.19199  0.45658  1.0000
  O   O57       1.0  0.69042  0.22809  0.45715  1.0000
  C   C345      1.0  0.70113  0.20189  0.49271  1.0000
  H   H117      1.0  0.69084  0.19119  0.54509  1.0000
  C   C346      1.0  0.29678  0.74995  0.33781  1.0000
  C   C347      1.0  0.29793  0.77572  0.39393  1.0000
  C   C348      1.0  0.27541  0.79788  0.39260  1.0000
  C   C349      1.0  0.24999  0.79676  0.33501  1.0000
  N   N58       1.0  0.28250  0.81774  0.45614  1.0000
  O   O58       1.0  0.31898  0.78162  0.45804  1.0000
  C   C350      1.0  0.30829  0.80800  0.49254  1.0000
  H   H118      1.0  0.31854  0.81886  0.54469  1.0000
  C   C351      1.0  0.52760  0.98191  0.34501  1.0000
  C   C352      1.0  0.52799  0.00511  0.41003  1.0000
  C   C353      1.0  0.50578  0.02719  0.41124  1.0000
  C   C354      1.0  0.48202  0.02764  0.34817  1.0000
  N   N59       1.0  0.51168  0.04513  0.48075  1.0000
  O   O59       1.0  0.54797  0.00885  0.47862  1.0000
  C   C355      1.0  0.53669  0.03409  0.51866  1.0000
  H   H119      1.0  0.54614  0.04338  0.57475  1.0000
  C   C356      1.0  0.02744  0.52754  0.33735  1.0000
  C   C357      1.0  0.00451  0.52776  0.40322  1.0000
  C   C358      1.0  0.98247  0.50554  0.40480  1.0000
  C   C359      1.0  0.98172  0.48196  0.34114  1.0000
  N   N60       1.0  0.96483  0.51125  0.47515  1.0000
  O   O60       1.0  0.00108  0.54755  0.47244  1.0000
  C   C360      1.0  0.97607  0.53611  0.51337  1.0000
  H   H120      1.0  0.96692  0.54552  0.56971  1.0000
