data_image0
_chemical_formula_structural       CNCOCH3CNCOCH3NC2OCH3NC2OCH3NC2OCH3NC2OCH3CNCOCH3CNCOCH3CNCOCH3CNCOCH3NC2OCH3NC2OCH3NC2OCH3NC2OCH3CNCOCH3CNCOCH3CNCOCH3CNCOCH3C6H3C6H3C6H3C6H3C6H3C6H3C6H3C6H3C6H3C6H3C6H3C6H3NC2OCH3NC2OCH3CNCOCH3CNCOCH3CNCOCH3CNCOCH3NC2OCH3NC2OCH3NC2OCH3NC2OCH3CNCOCH3CNCOCH3CNCOCH3CNCOCH3NC2OCH3NC2OCH3NC2OCH3NC2OCH3
_chemical_formula_sum              "C180 N36 O36 H144"
_cell_length_a       34.2578
_cell_length_b       34.0998
_cell_length_c       14.8732
_cell_angle_alpha    90
_cell_angle_beta     90
_cell_angle_gamma    90.2692

_space_group_name_H-M_alt    "P 1"
_space_group_IT_number       1

loop_
  _space_group_symop_operation_xyz
  'x, y, z'

loop_
  _atom_site_type_symbol
  _atom_site_label
  _atom_site_symmetry_multiplicity
  _atom_site_fract_x
  _atom_site_fract_y
  _atom_site_fract_z
  _atom_site_occupancy
  C   C1        1.0  0.03059  0.47290  0.34040  1.0000
  N   N1        1.0  0.98462  0.51413  0.26559  1.0000
  C   C2        1.0  0.01334  0.48670  0.26006  1.0000
  O   O1        1.0  0.02341  0.47184  0.17792  1.0000
  C   C3        1.0  0.04903  0.49730  0.12803  1.0000
  H   H1        1.0  0.05583  0.48305  0.06435  1.0000
  H   H2        1.0  0.07641  0.50245  0.16393  1.0000
  H   H3        1.0  0.03514  0.52536  0.11328  1.0000
  C   C4        1.0  0.53164  0.02975  0.33935  1.0000
  N   N2        1.0  0.50301  0.96922  0.29043  1.0000
  C   C5        1.0  0.53280  0.99566  0.28487  1.0000
  O   O2        1.0  0.56233  0.98830  0.22547  1.0000
  C   C6        1.0  0.55459  0.00316  0.13677  1.0000
  H   H4        1.0  0.57949  0.99613  0.09416  1.0000
  H   H5        1.0  0.55112  0.03500  0.13717  1.0000
  H   H6        1.0  0.52862  0.98947  0.10758  1.0000
  N   N3        1.0  0.03882  0.31933  0.29669  1.0000
  C   C7        1.0  0.02773  0.28102  0.29141  1.0000
  C   C8        1.0  0.04725  0.25297  0.34539  1.0000
  O   O3        1.0  0.99902  0.27123  0.23150  1.0000
  C   C9        1.0  0.01367  0.26332  0.14273  1.0000
  H   H7        1.0  0.98896  0.25570  0.09986  1.0000
  H   H8        1.0  0.03386  0.23861  0.14280  1.0000
  H   H9        1.0  0.02812  0.28908  0.11404  1.0000
  N   N4        1.0  0.96390  0.68321  0.29767  1.0000
  C   C10       1.0  0.97512  0.72148  0.29228  1.0000
  C   C11       1.0  0.95529  0.74972  0.34514  1.0000
  O   O4        1.0  0.00429  0.73102  0.23333  1.0000
  C   C12       1.0  0.99031  0.73870  0.14388  1.0000
  H   H10       1.0  0.01535  0.74615  0.10188  1.0000
  H   H11       1.0  0.97017  0.76346  0.14278  1.0000
  H   H12       1.0  0.97602  0.71290  0.11504  1.0000
  N   N5        1.0  0.68452  0.03931  0.29392  1.0000
  C   C13       1.0  0.72244  0.02780  0.28869  1.0000
  C   C14       1.0  0.75071  0.04723  0.34249  1.0000
  O   O5        1.0  0.73162  0.99869  0.22921  1.0000
  C   C15       1.0  0.73960  0.01307  0.14014  1.0000
  H   H13       1.0  0.74673  0.98805  0.09765  1.0000
  H   H14       1.0  0.76451  0.03319  0.13969  1.0000
  H   H15       1.0  0.71415  0.02765  0.11139  1.0000
  N   N6        1.0  0.31836  0.96397  0.29864  1.0000
  C   C16       1.0  0.28048  0.97562  0.29389  1.0000
  C   C17       1.0  0.25205  0.95548  0.34590  1.0000
  O   O6        1.0  0.27156  0.00558  0.23647  1.0000
  C   C18       1.0  0.26382  0.99250  0.14625  1.0000
  H   H16       1.0  0.25687  0.01813  0.10555  1.0000
  H   H17       1.0  0.23885  0.97246  0.14390  1.0000
  H   H18       1.0  0.28931  0.97827  0.11681  1.0000
  C   C19       1.0  0.43415  0.83241  0.33170  1.0000
  N   N7        1.0  0.42642  0.76589  0.28333  1.0000
  C   C20       1.0  0.41498  0.80393  0.27779  1.0000
  O   O7        1.0  0.38512  0.81274  0.22036  1.0000
  C   C21       1.0  0.39834  0.82191  0.13102  1.0000
  H   H19       1.0  0.37284  0.82860  0.09005  1.0000
  H   H20       1.0  0.41340  0.79707  0.10049  1.0000
  H   H21       1.0  0.41756  0.84758  0.13072  1.0000
  C   C22       1.0  0.56868  0.17038  0.33607  1.0000
  N   N8        1.0  0.57609  0.23696  0.28785  1.0000
  C   C23       1.0  0.58765  0.19897  0.28205  1.0000
  O   O8        1.0  0.61733  0.19034  0.22397  1.0000
  C   C24       1.0  0.60381  0.18103  0.13495  1.0000
  H   H22       1.0  0.62919  0.17451  0.09344  1.0000
  H   H23       1.0  0.58844  0.20574  0.10468  1.0000
  H   H24       1.0  0.58478  0.15521  0.13512  1.0000
  C   C25       1.0  0.83245  0.56696  0.33223  1.0000
  N   N9        1.0  0.76637  0.57584  0.28422  1.0000
  C   C26       1.0  0.80458  0.58648  0.27796  1.0000
  O   O9        1.0  0.81412  0.61597  0.21959  1.0000
  C   C27       1.0  0.82283  0.60200  0.13065  1.0000
  H   H25       1.0  0.83013  0.62725  0.08885  1.0000
  H   H26       1.0  0.79768  0.58712  0.10067  1.0000
  H   H27       1.0  0.84786  0.58225  0.13089  1.0000
  C   C28       1.0  0.17001  0.43565  0.33391  1.0000
  N   N10       1.0  0.23605  0.42668  0.28572  1.0000
  C   C29       1.0  0.19786  0.41602  0.27976  1.0000
  O   O10       1.0  0.18831  0.38642  0.22168  1.0000
  C   C30       1.0  0.17917  0.40026  0.13286  1.0000
  H   H28       1.0  0.17192  0.37492  0.09128  1.0000
  H   H29       1.0  0.20409  0.41531  0.10235  1.0000
  H   H30       1.0  0.15398  0.41980  0.13349  1.0000
  N   N11       1.0  0.11784  0.05725  0.25720  1.0000
  C   C31       1.0  0.09541  0.08972  0.25007  1.0000
  C   C32       1.0  0.09399  0.11596  0.32373  1.0000
  O   O11       1.0  0.07125  0.09270  0.17724  1.0000
  C   C33       1.0  0.08855  0.11462  0.10485  1.0000
  H   H31       1.0  0.06770  0.11543  0.04952  1.0000
  H   H32       1.0  0.11523  0.10071  0.08062  1.0000
  H   H33       1.0  0.09493  0.14480  0.12496  1.0000
  N   N12       1.0  0.88507  0.94541  0.25422  1.0000
  C   C34       1.0  0.90755  0.91297  0.24749  1.0000
  C   C35       1.0  0.90873  0.88672  0.32115  1.0000
  O   O12       1.0  0.93196  0.91001  0.17509  1.0000
  C   C36       1.0  0.91490  0.88816  0.10231  1.0000
  H   H34       1.0  0.93595  0.88735  0.04737  1.0000
  H   H35       1.0  0.88833  0.90211  0.07762  1.0000
  H   H36       1.0  0.90842  0.85797  0.12222  1.0000
  N   N13       1.0  0.94667  0.11701  0.25586  1.0000
  C   C37       1.0  0.91415  0.09452  0.24832  1.0000
  C   C38       1.0  0.88774  0.09328  0.32147  1.0000
  O   O13       1.0  0.91109  0.07024  0.17547  1.0000
  C   C39       1.0  0.88951  0.08758  0.10292  1.0000
  H   H37       1.0  0.88863  0.06665  0.04755  1.0000
  H   H38       1.0  0.90359  0.11442  0.07884  1.0000
  H   H39       1.0  0.85949  0.09393  0.12278  1.0000
  N   N14       1.0  0.05627  0.88577  0.25641  1.0000
  C   C40       1.0  0.08882  0.90826  0.24950  1.0000
  C   C41       1.0  0.11509  0.90933  0.32294  1.0000
  O   O14       1.0  0.09204  0.93272  0.17700  1.0000
  C   C42       1.0  0.11363  0.91550  0.10431  1.0000
  H   H40       1.0  0.11466  0.93660  0.04928  1.0000
  H   H41       1.0  0.09948  0.88879  0.07973  1.0000
  H   H42       1.0  0.14361  0.90898  0.12427  1.0000
  C   C43       1.0  0.36243  0.54839  0.35611  1.0000
  N   N15       1.0  0.38640  0.60735  0.28873  1.0000
  C   C44       1.0  0.36195  0.57570  0.28448  1.0000
  O   O15       1.0  0.34028  0.56946  0.20852  1.0000
  C   C45       1.0  0.36226  0.55259  0.13586  1.0000
  H   H43       1.0  0.34262  0.54851  0.07890  1.0000
  H   H44       1.0  0.37406  0.52398  0.15423  1.0000
  H   H45       1.0  0.38604  0.57196  0.11472  1.0000
  C   C46       1.0  0.64010  0.45430  0.35747  1.0000
  N   N16       1.0  0.61594  0.39511  0.29143  1.0000
  C   C47       1.0  0.64044  0.42669  0.28642  1.0000
  O   O16       1.0  0.66207  0.43257  0.21024  1.0000
  C   C48       1.0  0.64008  0.44924  0.13737  1.0000
  H   H46       1.0  0.65966  0.45301  0.08021  1.0000
  H   H47       1.0  0.62841  0.47797  0.15520  1.0000
  H   H48       1.0  0.61620  0.42989  0.11678  1.0000
  C   C49       1.0  0.54978  0.64200  0.35472  1.0000
  N   N17       1.0  0.60818  0.61760  0.28750  1.0000
  C   C50       1.0  0.57664  0.64180  0.28244  1.0000
  O   O17       1.0  0.57001  0.66252  0.20520  1.0000
  C   C51       1.0  0.55315  0.63928  0.13427  1.0000
  H   H49       1.0  0.54875  0.65825  0.07617  1.0000
  H   H50       1.0  0.52483  0.62716  0.15390  1.0000
  H   H51       1.0  0.57254  0.61548  0.11430  1.0000
  C   C52       1.0  0.45259  0.36062  0.35835  1.0000
  N   N18       1.0  0.39441  0.38495  0.28999  1.0000
  C   C53       1.0  0.42595  0.36073  0.28562  1.0000
  O   O18       1.0  0.43281  0.33991  0.20864  1.0000
  C   C54       1.0  0.44979  0.36306  0.13773  1.0000
  H   H52       1.0  0.45441  0.34401  0.07987  1.0000
  H   H53       1.0  0.47802  0.37530  0.15764  1.0000
  H   H54       1.0  0.43038  0.38677  0.11723  1.0000
  C   C55       1.0  0.07830  0.37371  0.34684  1.0000
  C   C56       1.0  0.11797  0.38536  0.34271  1.0000
  C   C57       1.0  0.12956  0.42521  0.33803  1.0000
  C   C58       1.0  0.09995  0.45408  0.33999  1.0000
  C   C59       1.0  0.05991  0.44361  0.34171  1.0000
  C   C60       1.0  0.04954  0.40340  0.34399  1.0000
  H   H55       1.0  0.10757  0.48314  0.33718  1.0000
  H   H56       1.0  0.02061  0.39571  0.34619  1.0000
  H   H57       1.0  0.13902  0.36420  0.34300  1.0000
  C   C61       1.0  0.92400  0.62902  0.34700  1.0000
  C   C62       1.0  0.88437  0.61733  0.34149  1.0000
  C   C63       1.0  0.87288  0.57745  0.33642  1.0000
  C   C64       1.0  0.90252  0.54861  0.33893  1.0000
  C   C65       1.0  0.94250  0.55912  0.34290  1.0000
  C   C66       1.0  0.95279  0.59934  0.34578  1.0000
  H   H58       1.0  0.89495  0.51954  0.33611  1.0000
  H   H59       1.0  0.98168  0.60709  0.34917  1.0000
  H   H60       1.0  0.86330  0.63846  0.34112  1.0000
  C   C67       1.0  0.63094  0.07911  0.34450  1.0000
  C   C68       1.0  0.61925  0.11883  0.34197  1.0000
  C   C69       1.0  0.57951  0.12995  0.33914  1.0000
  C   C70       1.0  0.55093  0.09979  0.34114  1.0000
  C   C71       1.0  0.56120  0.05955  0.34017  1.0000
  C   C72       1.0  0.60142  0.04994  0.34151  1.0000
  H   H61       1.0  0.52204  0.10728  0.33865  1.0000
  H   H62       1.0  0.60940  0.02109  0.34473  1.0000
  H   H63       1.0  0.64023  0.14024  0.34233  1.0000
  C   C73       1.0  0.37184  0.92344  0.34657  1.0000
  C   C74       1.0  0.38356  0.88379  0.34119  1.0000
  C   C75       1.0  0.42328  0.87280  0.33599  1.0000
  C   C76       1.0  0.45183  0.90299  0.33852  1.0000
  C   C77       1.0  0.44160  0.94319  0.34356  1.0000
  C   C78       1.0  0.40134  0.95266  0.34566  1.0000
  H   H64       1.0  0.48073  0.89549  0.33622  1.0000
  H   H65       1.0  0.39323  0.98149  0.34693  1.0000
  H   H66       1.0  0.36261  0.86235  0.34066  1.0000
  C   C79       1.0  0.06357  0.14387  0.33203  1.0000
  C   C80       1.0  0.02455  0.13049  0.32869  1.0000
  C   C81       1.0  0.99276  0.15656  0.33333  1.0000
  C   C82       1.0  0.00052  0.19711  0.34147  1.0000
  C   C83       1.0  0.03936  0.21180  0.34352  1.0000
  C   C84       1.0  0.07060  0.18454  0.34124  1.0000
  H   H67       1.0  0.97751  0.21607  0.34471  1.0000
  H   H68       1.0  0.09886  0.19445  0.34113  1.0000
  H   H69       1.0  0.01914  0.10095  0.32373  1.0000
  C   C85       1.0  0.93912  0.85881  0.33004  1.0000
  C   C86       1.0  0.97816  0.87215  0.32725  1.0000
  C   C87       1.0  0.00992  0.84608  0.33283  1.0000
  C   C88       1.0  0.00209  0.80556  0.34141  1.0000
  C   C89       1.0  0.96324  0.79088  0.34291  1.0000
  C   C90       1.0  0.93204  0.81817  0.33966  1.0000
  H   H70       1.0  0.02508  0.78660  0.34544  1.0000
  H   H71       1.0  0.90377  0.80828  0.33921  1.0000
  H   H72       1.0  0.98360  0.90168  0.32209  1.0000
  C   C91       1.0  0.85952  0.06286  0.32946  1.0000
  C   C92       1.0  0.87228  0.02361  0.32634  1.0000
  C   C93       1.0  0.84588  0.99180  0.33076  1.0000
  C   C94       1.0  0.80561  0.99982  0.33867  1.0000
  C   C95       1.0  0.79155  0.03894  0.34070  1.0000
  C   C96       1.0  0.81915  0.07015  0.33847  1.0000
  H   H73       1.0  0.78640  0.97681  0.34191  1.0000
  H   H74       1.0  0.80972  0.09861  0.33832  1.0000
  H   H75       1.0  0.90162  0.01805  0.32171  1.0000
  C   C97       1.0  0.14324  0.93976  0.33172  1.0000
  C   C98       1.0  0.13043  0.97901  0.32905  1.0000
  C   C99       1.0  0.15678  0.01084  0.33430  1.0000
  C   C100      1.0  0.19703  0.00284  0.34271  1.0000
  C   C101      1.0  0.21118  0.96375  0.34410  1.0000
  C   C102      1.0  0.18361  0.93251  0.34089  1.0000
  H   H76       1.0  0.21617  0.02589  0.34668  1.0000
  H   H77       1.0  0.19306  0.90406  0.34036  1.0000
  H   H78       1.0  0.10110  0.98454  0.32407  1.0000
  C   C103      1.0  0.44066  0.64341  0.35073  1.0000
  C   C104      1.0  0.47977  0.63067  0.35374  1.0000
  C   C105      1.0  0.51140  0.65722  0.34853  1.0000
  C   C106      1.0  0.50333  0.69763  0.33998  1.0000
  C   C107      1.0  0.46438  0.71171  0.33810  1.0000
  C   C108      1.0  0.43335  0.68393  0.34104  1.0000
  H   H79       1.0  0.52621  0.71696  0.33628  1.0000
  H   H80       1.0  0.40502  0.69339  0.34147  1.0000
  H   H81       1.0  0.48536  0.60122  0.35893  1.0000
  C   C109      1.0  0.56170  0.35936  0.35450  1.0000
  C   C110      1.0  0.52257  0.37204  0.35749  1.0000
  C   C111      1.0  0.49100  0.34542  0.35273  1.0000
  C   C112      1.0  0.49912  0.30499  0.34477  1.0000
  C   C113      1.0  0.53810  0.29098  0.34293  1.0000
  C   C114      1.0  0.56907  0.31883  0.34534  1.0000
  H   H82       1.0  0.47628  0.28562  0.34132  1.0000
  H   H83       1.0  0.59743  0.30944  0.34564  1.0000
  H   H84       1.0  0.51693  0.40150  0.36217  1.0000
  C   C115      1.0  0.64396  0.56386  0.35175  1.0000
  C   C116      1.0  0.63040  0.52475  0.35528  1.0000
  C   C117      1.0  0.65612  0.49262  0.35094  1.0000
  C   C118      1.0  0.69654  0.50016  0.34265  1.0000
  C   C119      1.0  0.71145  0.53907  0.34030  1.0000
  C   C120      1.0  0.68449  0.57063  0.34243  1.0000
  H   H85       1.0  0.71525  0.47690  0.33952  1.0000
  H   H86       1.0  0.69455  0.59896  0.34238  1.0000
  H   H87       1.0  0.60096  0.51954  0.36019  1.0000
  C   C121      1.0  0.35846  0.43880  0.35316  1.0000
  C   C122      1.0  0.37206  0.47791  0.35579  1.0000
  C   C123      1.0  0.34637  0.51004  0.35058  1.0000
  C   C124      1.0  0.30595  0.50251  0.34251  1.0000
  C   C125      1.0  0.29100  0.46360  0.34112  1.0000
  C   C126      1.0  0.31792  0.43202  0.34406  1.0000
  H   H88       1.0  0.28725  0.52577  0.33879  1.0000
  H   H89       1.0  0.30785  0.40370  0.34461  1.0000
  H   H90       1.0  0.40151  0.48311  0.36063  1.0000
  N   N19       1.0  0.01780  0.48859  0.41910  1.0000
  C   C127      1.0  0.98987  0.51685  0.42448  1.0000
  C   C128      1.0  0.97195  0.52993  0.34428  1.0000
  O   O19       1.0  0.97761  0.52966  0.50689  1.0000
  C   C129      1.0  0.00503  0.55541  0.55045  1.0000
  H   H91       1.0  0.99246  0.56455  0.61440  1.0000
  H   H92       1.0  0.01064  0.58165  0.51024  1.0000
  H   H93       1.0  0.03256  0.54054  0.56432  1.0000
  N   N20       1.0  0.49988  0.03359  0.39361  1.0000
  C   C130      1.0  0.47013  0.00711  0.39926  1.0000
  C   C131      1.0  0.47119  0.97304  0.34459  1.0000
  O   O20       1.0  0.44085  0.01444  0.45933  1.0000
  C   C132      1.0  0.44877  0.99923  0.54762  1.0000
  H   H94       1.0  0.42406  0.00626  0.59077  1.0000
  H   H95       1.0  0.47492  0.01266  0.57661  1.0000
  H   H96       1.0  0.45205  0.96737  0.54659  1.0000
  C   C133      1.0  0.06785  0.33312  0.35074  1.0000
  N   N21       1.0  0.07627  0.26678  0.39935  1.0000
  C   C134      1.0  0.08708  0.30510  0.40533  1.0000
  O   O21       1.0  0.11638  0.31461  0.46392  1.0000
  C   C135      1.0  0.10237  0.32348  0.55272  1.0000
  H   H97       1.0  0.12747  0.33076  0.59469  1.0000
  H   H98       1.0  0.08743  0.29829  0.58269  1.0000
  H   H99       1.0  0.08281  0.34870  0.55223  1.0000
  C   C136      1.0  0.93447  0.66961  0.35079  1.0000
  N   N22       1.0  0.92585  0.73608  0.39817  1.0000
  C   C137      1.0  0.91492  0.69781  0.40426  1.0000
  O   O22       1.0  0.88519  0.68849  0.46188  1.0000
  C   C138      1.0  0.89860  0.67946  0.55108  1.0000
  H   H100      1.0  0.87320  0.67238  0.59224  1.0000
  H   H101      1.0  0.91358  0.70450  0.58156  1.0000
  H   H102      1.0  0.91794  0.65407  0.55115  1.0000
  C   C139      1.0  0.67132  0.06876  0.34752  1.0000
  N   N23       1.0  0.73749  0.07667  0.39603  1.0000
  C   C140      1.0  0.69956  0.08794  0.40184  1.0000
  O   O23       1.0  0.69061  0.11749  0.46034  1.0000
  C   C141      1.0  0.68162  0.10354  0.54924  1.0000
  H   H103      1.0  0.67480  0.12883  0.59112  1.0000
  H   H104      1.0  0.70648  0.08840  0.57918  1.0000
  H   H105      1.0  0.65621  0.08404  0.54893  1.0000
  C   C142      1.0  0.33145  0.93375  0.35007  1.0000
  N   N24       1.0  0.26518  0.92527  0.39730  1.0000
  C   C143      1.0  0.30308  0.91385  0.40266  1.0000
  O   O24       1.0  0.31185  0.88343  0.45890  1.0000
  C   C144      1.0  0.32096  0.89602  0.54878  1.0000
  H   H106      1.0  0.32760  0.87009  0.58871  1.0000
  H   H107      1.0  0.29622  0.91091  0.57989  1.0000
  H   H108      1.0  0.34651  0.91532  0.54990  1.0000
  N   N25       1.0  0.46378  0.81929  0.38455  1.0000
  C   C145      1.0  0.47551  0.78127  0.38936  1.0000
  C   C146      1.0  0.45606  0.75274  0.33609  1.0000
  O   O25       1.0  0.50475  0.77221  0.44828  1.0000
  C   C147      1.0  0.49081  0.76405  0.53760  1.0000
  H   H109      1.0  0.51590  0.75703  0.57960  1.0000
  H   H110      1.0  0.47095  0.73888  0.53836  1.0000
  H   H111      1.0  0.47622  0.78949  0.56668  1.0000
  N   N26       1.0  0.53907  0.18336  0.38918  1.0000
  C   C148      1.0  0.52725  0.22136  0.39429  1.0000
  C   C149      1.0  0.54654  0.24998  0.34097  1.0000
  O   O26       1.0  0.49800  0.23030  0.45328  1.0000
  C   C150      1.0  0.51195  0.23849  0.54257  1.0000
  H   H112      1.0  0.48685  0.24541  0.58463  1.0000
  H   H113      1.0  0.53172  0.26373  0.54333  1.0000
  H   H114      1.0  0.52664  0.21309  0.57160  1.0000
  N   N27       1.0  0.81862  0.53784  0.38626  1.0000
  C   C151      1.0  0.78042  0.52690  0.39173  1.0000
  C   C152      1.0  0.75250  0.54672  0.33813  1.0000
  O   O27       1.0  0.77060  0.49808  0.45166  1.0000
  C   C153      1.0  0.76297  0.51281  0.54054  1.0000
  H   H115      1.0  0.75531  0.48800  0.58341  1.0000
  H   H116      1.0  0.73850  0.53325  0.54076  1.0000
  H   H117      1.0  0.78875  0.52714  0.56904  1.0000
  N   N28       1.0  0.18385  0.46498  0.38733  1.0000
  C   C154      1.0  0.22205  0.47596  0.39247  1.0000
  C   C155      1.0  0.24994  0.45597  0.33913  1.0000
  O   O28       1.0  0.23190  0.50503  0.45173  1.0000
  C   C156      1.0  0.23955  0.49068  0.54092  1.0000
  H   H118      1.0  0.24725  0.51567  0.58320  1.0000
  H   H119      1.0  0.26401  0.47023  0.54155  1.0000
  H   H120      1.0  0.21378  0.47649  0.56978  1.0000
  C   C157      1.0  0.14149  0.04933  0.32821  1.0000
  N   N29       1.0  0.11727  0.10801  0.39559  1.0000
  C   C158      1.0  0.14148  0.07640  0.40034  1.0000
  O   O29       1.0  0.16245  0.06993  0.47717  1.0000
  C   C159      1.0  0.13968  0.05297  0.54868  1.0000
  H   H121      1.0  0.15881  0.04870  0.60641  1.0000
  H   H122      1.0  0.12766  0.02445  0.52948  1.0000
  H   H123      1.0  0.11598  0.07237  0.56906  1.0000
  C   C160      1.0  0.86116  0.95330  0.32479  1.0000
  N   N30       1.0  0.88520  0.89465  0.39258  1.0000
  C   C161      1.0  0.86096  0.92623  0.39692  1.0000
  O   O30       1.0  0.83976  0.93270  0.47342  1.0000
  C   C162      1.0  0.86233  0.94962  0.54532  1.0000
  H   H124      1.0  0.84302  0.95390  0.60273  1.0000
  H   H125      1.0  0.87443  0.97814  0.52634  1.0000
  H   H126      1.0  0.88594  0.93019  0.56606  1.0000
  C   C163      1.0  0.95449  0.14081  0.32694  1.0000
  N   N31       1.0  0.89556  0.11678  0.39330  1.0000
  C   C164      1.0  0.92726  0.14106  0.39849  1.0000
  O   O31       1.0  0.93360  0.16227  0.47522  1.0000
  C   C165      1.0  0.95013  0.13956  0.54716  1.0000
  H   H127      1.0  0.95431  0.15887  0.60483  1.0000
  H   H128      1.0  0.97853  0.12758  0.52852  1.0000
  H   H129      1.0  0.93064  0.11570  0.56737  1.0000
  C   C166      1.0  0.04823  0.86180  0.32709  1.0000
  N   N32       1.0  0.10702  0.88571  0.39442  1.0000
  C   C167      1.0  0.07530  0.86145  0.39898  1.0000
  O   O32       1.0  0.06876  0.84012  0.47547  1.0000
  C   C168      1.0  0.05211  0.86275  0.54742  1.0000
  H   H130      1.0  0.04776  0.84334  0.60486  1.0000
  H   H131      1.0  0.02379  0.87483  0.52853  1.0000
  H   H132      1.0  0.07161  0.88653  0.56810  1.0000
  N   N33       1.0  0.38665  0.55614  0.42631  1.0000
  C   C169      1.0  0.40938  0.58862  0.43289  1.0000
  C   C170      1.0  0.41038  0.61511  0.35963  1.0000
  O   O33       1.0  0.43396  0.59161  0.50504  1.0000
  C   C171      1.0  0.41713  0.61324  0.57820  1.0000
  H   H133      1.0  0.43829  0.61408  0.63291  1.0000
  H   H134      1.0  0.39055  0.59909  0.60307  1.0000
  H   H135      1.0  0.41071  0.64342  0.55864  1.0000
  N   N34       1.0  0.61586  0.44690  0.42784  1.0000
  C   C172      1.0  0.59305  0.41452  0.43521  1.0000
  C   C173      1.0  0.59197  0.38773  0.36253  1.0000
  O   O34       1.0  0.56851  0.41189  0.50750  1.0000
  C   C174      1.0  0.58527  0.39036  0.58092  1.0000
  H   H136      1.0  0.56416  0.38984  0.63577  1.0000
  H   H137      1.0  0.61198  0.40438  0.60538  1.0000
  H   H138      1.0  0.59144  0.36007  0.56181  1.0000
  N   N35       1.0  0.55779  0.61854  0.42618  1.0000
  C   C175      1.0  0.59021  0.59617  0.43358  1.0000
  C   C176      1.0  0.61629  0.59455  0.35983  1.0000
  O   O35       1.0  0.59330  0.57212  0.50678  1.0000
  C   C177      1.0  0.61511  0.58978  0.57882  1.0000
  H   H139      1.0  0.61602  0.56899  0.63448  1.0000
  H   H140      1.0  0.60121  0.61661  0.60268  1.0000
  H   H141      1.0  0.64512  0.59621  0.55851  1.0000
  N   N36       1.0  0.44440  0.38424  0.42942  1.0000
  C   C178      1.0  0.41197  0.40664  0.43612  1.0000
  C   C179      1.0  0.38609  0.40811  0.36199  1.0000
  O   O36       1.0  0.40869  0.43085  0.50898  1.0000
  C   C180      1.0  0.38676  0.41333  0.58100  1.0000
  H   H142      1.0  0.38567  0.43424  0.63636  1.0000
  H   H143      1.0  0.40069  0.38659  0.60540  1.0000
  H   H144      1.0  0.35681  0.40675  0.56042  1.0000
