data_image0
_chemical_formula_structural       C3NC3NC5NC5NC20H18N4C3NC3NC5NC5NC20H18N4C3NC3NC5NC5NC20H18N4C3H2CHC3H2CHC3H2CHC3H2CHC3H2CHC3H2CHC8H8C8H8C8H8C3NC2NH2CHC3NC2NH2CHC3NC2NH2CHC3NC2NH2CHC3NC2NH2CHC3NC2NH2CH
_chemical_formula_sum              "C192 N36 H114"
_cell_length_a       50.7441
_cell_length_b       50.744
_cell_length_c       14.8746
_cell_angle_alpha    90.0972
_cell_angle_beta     89.9028
_cell_angle_gamma    120

_space_group_name_H-M_alt    "P 1"
_space_group_IT_number       1

loop_
  _space_group_symop_operation_xyz
  'x, y, z'

loop_
  _atom_site_type_symbol
  _atom_site_label
  _atom_site_symmetry_multiplicity
  _atom_site_fract_x
  _atom_site_fract_y
  _atom_site_fract_z
  _atom_site_occupancy
  C   C1        1.0  0.05011  0.65186  0.32262  1.0000
  C   C2        1.0  0.01864  0.63614  0.32221  1.0000
  C   C3        1.0  0.00861  0.60500  0.32077  1.0000
  N   N1        1.0  0.03434  0.60307  0.32029  1.0000
  C   C4        1.0  0.06010  0.63071  0.32145  1.0000
  C   C5        1.0  0.09111  0.63805  0.32136  1.0000
  C   C6        1.0  0.10092  0.61624  0.32064  1.0000
  N   N2        1.0  0.08369  0.58552  0.32040  1.0000
  C   C7        1.0  0.10085  0.57196  0.32006  1.0000
  C   C8        1.0  0.13109  0.59558  0.31993  1.0000
  C   C9        1.0  0.13113  0.62278  0.32051  1.0000
  C   C10       1.0  0.09097  0.54032  0.32025  1.0000
  C   C11       1.0  0.05995  0.51669  0.32083  1.0000
  N   N3        1.0  0.03422  0.51862  0.32028  1.0000
  C   C12       1.0  0.00847  0.49098  0.32149  1.0000
  C   C13       1.0  0.01845  0.46983  0.32276  1.0000
  C   C14       1.0  0.04992  0.48555  0.32236  1.0000
  C   C15       1.0  0.97745  0.48363  0.32136  1.0000
  C   C16       1.0  0.96765  0.50545  0.32061  1.0000
  N   N4        1.0  0.98487  0.53616  0.32033  1.0000
  C   C17       1.0  0.96771  0.54973  0.32002  1.0000
  C   C18       1.0  0.93747  0.52610  0.31996  1.0000
  C   C19       1.0  0.93743  0.49891  0.32056  1.0000
  C   C20       1.0  0.97759  0.58136  0.32022  1.0000
  C   C21       1.0  0.95441  0.58955  0.32113  1.0000
  C   C22       1.0  0.90211  0.59694  0.32236  1.0000
  C   C23       1.0  0.91616  0.59648  0.24073  1.0000
  C   C24       1.0  0.94184  0.59268  0.23989  1.0000
  C   C25       1.0  0.95423  0.45229  0.32317  1.0000
  C   C26       1.0  0.90178  0.39282  0.32826  1.0000
  C   C27       1.0  0.91415  0.40751  0.24528  1.0000
  C   C28       1.0  0.93999  0.43687  0.24279  1.0000
  C   C29       1.0  0.11414  0.53212  0.32125  1.0000
  C   C30       1.0  0.12660  0.52867  0.24003  1.0000
  C   C31       1.0  0.15220  0.52474  0.24089  1.0000
  C   C32       1.0  0.16622  0.52438  0.32250  1.0000
  C   C33       1.0  0.11434  0.66940  0.32313  1.0000
  C   C34       1.0  0.12864  0.68476  0.24275  1.0000
  C   C35       1.0  0.16691  0.72878  0.32826  1.0000
  C   C36       1.0  0.15454  0.71409  0.24527  1.0000
  H   H1        1.0  0.16494  0.72405  0.18601  1.0000
  H   H2        1.0  0.12103  0.67418  0.18194  1.0000
  H   H3        1.0  0.06331  0.67504  0.32361  1.0000
  H   H4        1.0  0.00547  0.64616  0.32296  1.0000
  H   H5        1.0  0.03432  0.58412  0.31900  1.0000
  H   H6        1.0  0.03424  0.53757  0.31883  1.0000
  H   H7        1.0  0.15035  0.64373  0.32082  1.0000
  H   H8        1.0  0.15027  0.59378  0.31978  1.0000
  H   H9        1.0  0.11777  0.53008  0.17958  1.0000
  H   H10       1.0  0.16116  0.52308  0.18084  1.0000
  H   H11       1.0  0.06308  0.47552  0.32320  1.0000
  H   H12       1.0  0.00525  0.44665  0.32381  1.0000
  H   H13       1.0  0.91829  0.52790  0.31994  1.0000
  H   H14       1.0  0.91822  0.47795  0.32098  1.0000
  H   H15       1.0  0.94763  0.44742  0.18198  1.0000
  H   H16       1.0  0.90385  0.39747  0.18601  1.0000
  H   H17       1.0  0.95068  0.59118  0.17944  1.0000
  H   H18       1.0  0.90711  0.59789  0.18067  1.0000
  N   N5        1.0  0.87627  0.36600  0.33676  1.0000
  N   N6        1.0  0.19147  0.52232  0.31702  1.0000
  N   N7        1.0  0.19255  0.75550  0.33679  1.0000
  N   N8        1.0  0.87673  0.59875  0.31689  1.0000
  C   C37       1.0  0.44272  0.48457  0.32184  1.0000
  C   C38       1.0  0.45844  0.46881  0.32137  1.0000
  C   C39       1.0  0.48958  0.48993  0.31991  1.0000
  N   N9        1.0  0.49151  0.51759  0.31942  1.0000
  C   C40       1.0  0.46386  0.51570  0.32066  1.0000
  C   C41       1.0  0.45651  0.53936  0.32059  1.0000
  C   C42       1.0  0.47833  0.57098  0.31982  1.0000
  N   N10       1.0  0.50904  0.58448  0.31953  1.0000
  C   C43       1.0  0.52260  0.61520  0.31917  1.0000
  C   C44       1.0  0.49897  0.62182  0.31907  1.0000
  C   C45       1.0  0.47178  0.59466  0.31972  1.0000
  C   C46       1.0  0.55424  0.63697  0.31936  1.0000
  C   C47       1.0  0.57787  0.62958  0.31992  1.0000
  N   N11       1.0  0.57594  0.60192  0.31938  1.0000
  C   C48       1.0  0.60359  0.60382  0.32062  1.0000
  C   C49       1.0  0.62473  0.63495  0.32187  1.0000
  C   C50       1.0  0.60901  0.65070  0.32144  1.0000
  C   C51       1.0  0.61094  0.58015  0.32051  1.0000
  C   C52       1.0  0.58913  0.54853  0.31975  1.0000
  N   N12       1.0  0.55842  0.53503  0.31947  1.0000
  C   C53       1.0  0.54486  0.50431  0.31915  1.0000
  C   C54       1.0  0.56849  0.49770  0.31911  1.0000
  C   C55       1.0  0.59568  0.52486  0.31970  1.0000
  C   C56       1.0  0.51322  0.48255  0.31930  1.0000
  C   C57       1.0  0.50504  0.45119  0.32024  1.0000
  C   C58       1.0  0.49761  0.39149  0.32149  1.0000
  C   C59       1.0  0.49808  0.40591  0.23986  1.0000
  C   C60       1.0  0.50186  0.43539  0.23900  1.0000
  C   C61       1.0  0.64229  0.58829  0.32240  1.0000
  C   C62       1.0  0.70177  0.59534  0.32780  1.0000
  C   C63       1.0  0.68711  0.59290  0.24476  1.0000
  C   C64       1.0  0.65775  0.58937  0.24210  1.0000
  C   C65       1.0  0.56243  0.66833  0.32034  1.0000
  C   C66       1.0  0.56587  0.68415  0.23911  1.0000
  C   C67       1.0  0.56980  0.71369  0.23997  1.0000
  C   C68       1.0  0.57015  0.72815  0.32157  1.0000
  C   C69       1.0  0.42517  0.53125  0.32248  1.0000
  C   C70       1.0  0.40977  0.53009  0.24216  1.0000
  C   C71       1.0  0.36580  0.52447  0.32786  1.0000
  C   C72       1.0  0.38047  0.52673  0.24482  1.0000
  H   H19       1.0  0.37047  0.52707  0.18560  1.0000
  H   H20       1.0  0.42034  0.53304  0.18131  1.0000
  H   H21       1.0  0.41953  0.47457  0.32287  1.0000
  H   H22       1.0  0.44842  0.44563  0.32215  1.0000
  H   H23       1.0  0.51045  0.53652  0.31810  1.0000
  H   H24       1.0  0.55700  0.58299  0.31798  1.0000
  H   H25       1.0  0.45083  0.59292  0.32008  1.0000
  H   H26       1.0  0.50077  0.64280  0.31897  1.0000
  H   H27       1.0  0.56445  0.67385  0.17867  1.0000
  H   H28       1.0  0.57143  0.72424  0.17991  1.0000
  H   H29       1.0  0.61903  0.67389  0.32229  1.0000
  H   H30       1.0  0.64792  0.64494  0.32293  1.0000
  H   H31       1.0  0.56669  0.47672  0.31900  1.0000
  H   H32       1.0  0.61663  0.52661  0.32008  1.0000
  H   H33       1.0  0.64721  0.58637  0.18125  1.0000
  H   H34       1.0  0.69716  0.59256  0.18554  1.0000
  H   H35       1.0  0.50337  0.44568  0.17855  1.0000
  H   H36       1.0  0.49661  0.39537  0.17980  1.0000
  N   N13       1.0  0.72857  0.59663  0.33647  1.0000
  N   N14       1.0  0.57219  0.75545  0.31610  1.0000
  N   N15       1.0  0.33907  0.52336  0.33651  1.0000
  N   N16       1.0  0.49577  0.36428  0.31603  1.0000
  C   C73       1.0  0.60999  0.04447  0.32148  1.0000
  C   C74       1.0  0.62575  0.07594  0.32110  1.0000
  C   C75       1.0  0.60464  0.08597  0.31961  1.0000
  N   N17       1.0  0.57697  0.06024  0.31903  1.0000
  C   C76       1.0  0.57886  0.03449  0.32022  1.0000
  C   C77       1.0  0.55519  0.00347  0.32005  1.0000
  C   C78       1.0  0.52357  0.99367  0.31933  1.0000
  N   N18       1.0  0.51007  0.01089  0.31913  1.0000
  C   C79       1.0  0.47935  0.99373  0.31883  1.0000
  C   C80       1.0  0.47274  0.96349  0.31870  1.0000
  C   C81       1.0  0.49989  0.96345  0.31924  1.0000
  C   C82       1.0  0.45759  0.00361  0.31910  1.0000
  C   C83       1.0  0.46499  0.03463  0.31963  1.0000
  N   N19       1.0  0.49265  0.06036  0.31903  1.0000
  C   C84       1.0  0.49076  0.08611  0.32023  1.0000
  C   C85       1.0  0.45963  0.07613  0.32151  1.0000
  C   C86       1.0  0.44387  0.04466  0.32116  1.0000
  C   C87       1.0  0.51443  0.11712  0.32008  1.0000
  C   C88       1.0  0.54605  0.12693  0.31937  1.0000
  N   N20       1.0  0.55954  0.10971  0.31913  1.0000
  C   C89       1.0  0.59027  0.12687  0.31885  1.0000
  C   C90       1.0  0.59688  0.15711  0.31876  1.0000
  C   C91       1.0  0.56972  0.15715  0.31929  1.0000
  C   C92       1.0  0.61203  0.11699  0.31907  1.0000
  C   C93       1.0  0.64339  0.14017  0.32010  1.0000
  C   C94       1.0  0.70308  0.19246  0.32166  1.0000
  C   C95       1.0  0.68871  0.17844  0.23996  1.0000
  C   C96       1.0  0.65924  0.15274  0.23894  1.0000
  C   C97       1.0  0.50630  0.14035  0.32190  1.0000
  C   C98       1.0  0.49924  0.19276  0.32715  1.0000
  C   C99       1.0  0.50168  0.18044  0.24414  1.0000
  C   C100      1.0  0.50519  0.15460  0.24155  1.0000
  C   C101      1.0  0.42623  0.98044  0.32021  1.0000
  C   C102      1.0  0.41035  0.96794  0.23908  1.0000
  C   C103      1.0  0.38081  0.94235  0.24011  1.0000
  C   C104      1.0  0.36640  0.92834  0.32178  1.0000
  C   C105      1.0  0.56330  0.98024  0.32188  1.0000
  C   C106      1.0  0.56442  0.96591  0.24154  1.0000
  C   C107      1.0  0.57008  0.92765  0.32715  1.0000
  C   C108      1.0  0.56781  0.93999  0.24413  1.0000
  H   H37       1.0  0.56748  0.92961  0.18489  1.0000
  H   H38       1.0  0.56151  0.97351  0.18070  1.0000
  H   H39       1.0  0.61998  0.03127  0.32251  1.0000
  H   H40       1.0  0.64894  0.08911  0.32196  1.0000
  H   H41       1.0  0.55805  0.06026  0.31763  1.0000
  H   H42       1.0  0.51157  0.06034  0.31762  1.0000
  H   H43       1.0  0.50163  0.94424  0.31956  1.0000
  H   H44       1.0  0.45175  0.94431  0.31860  1.0000
  H   H45       1.0  0.42060  0.97677  0.17858  1.0000
  H   H46       1.0  0.37021  0.93337  0.18011  1.0000
  H   H47       1.0  0.42068  0.03150  0.32205  1.0000
  H   H48       1.0  0.44964  0.08933  0.32258  1.0000
  H   H49       1.0  0.61786  0.17629  0.31865  1.0000
  H   H50       1.0  0.56798  0.17636  0.31962  1.0000
  H   H51       1.0  0.50824  0.14702  0.18072  1.0000
  H   H52       1.0  0.50205  0.19079  0.18491  1.0000
  H   H53       1.0  0.64899  0.14391  0.17845  1.0000
  H   H54       1.0  0.69929  0.18747  0.17996  1.0000
  N   N21       1.0  0.49792  0.21828  0.33575  1.0000
  N   N22       1.0  0.33909  0.90309  0.31647  1.0000
  N   N23       1.0  0.57118  0.90204  0.33575  1.0000
  N   N24       1.0  0.73030  0.21782  0.31635  1.0000
  C   C109      1.0  0.29147  0.52004  0.30904  1.0000
  C   C110      1.0  0.27388  0.52412  0.24247  1.0000
  C   C111      1.0  0.24729  0.52495  0.26413  1.0000
  H   H55       1.0  0.23589  0.52841  0.21299  1.0000
  H   H56       1.0  0.28046  0.52688  0.17637  1.0000
  C   C112      1.0  0.31774  0.51954  0.28204  1.0000
  H   H57       1.0  0.32029  0.51653  0.21724  1.0000
  C   C113      1.0  0.57451  0.85773  0.30822  1.0000
  C   C114      1.0  0.57044  0.83601  0.24163  1.0000
  C   C115      1.0  0.56962  0.80862  0.26327  1.0000
  H   H58       1.0  0.56618  0.79372  0.21211  1.0000
  H   H59       1.0  0.56768  0.83977  0.17554  1.0000
  C   C116      1.0  0.57499  0.88447  0.28125  1.0000
  H   H60       1.0  0.57799  0.88997  0.21644  1.0000
  C   C117      1.0  0.23682  0.80311  0.30906  1.0000
  C   C118      1.0  0.25851  0.82066  0.24237  1.0000
  C   C119      1.0  0.28593  0.84724  0.26387  1.0000
  H   H61       1.0  0.30082  0.85860  0.21264  1.0000
  H   H62       1.0  0.25471  0.81405  0.17631  1.0000
  C   C120      1.0  0.21004  0.77684  0.28224  1.0000
  H   H63       1.0  0.20446  0.77430  0.21750  1.0000
  C   C121      1.0  0.77635  0.60028  0.30901  1.0000
  C   C122      1.0  0.79414  0.59640  0.24243  1.0000
  C   C123      1.0  0.82085  0.59586  0.26411  1.0000
  H   H64       1.0  0.83241  0.59255  0.21293  1.0000
  H   H65       1.0  0.78762  0.59358  0.17633  1.0000
  C   C124      1.0  0.74998  0.60052  0.28200  1.0000
  H   H66       1.0  0.74742  0.60344  0.21717  1.0000
  C   C125      1.0  0.49428  0.26238  0.30820  1.0000
  C   C126      1.0  0.49818  0.28398  0.24161  1.0000
  C   C127      1.0  0.49872  0.31126  0.26325  1.0000
  H   H67       1.0  0.50207  0.32608  0.21207  1.0000
  H   H68       1.0  0.50102  0.28022  0.17551  1.0000
  C   C128      1.0  0.49405  0.23574  0.28123  1.0000
  H   H69       1.0  0.49118  0.23022  0.21640  1.0000
  C   C129      1.0  0.83219  0.31822  0.30901  1.0000
  C   C130      1.0  0.81062  0.30048  0.24232  1.0000
  C   C131      1.0  0.78332  0.27377  0.26384  1.0000
  H   H70       1.0  0.76853  0.26226  0.21259  1.0000
  H   H71       1.0  0.81441  0.30704  0.17625  1.0000
  C   C132      1.0  0.85884  0.34462  0.28217  1.0000
  H   H72       1.0  0.86441  0.34721  0.21737  1.0000
  C   C133      1.0  0.94085  0.59061  0.40308  1.0000
  C   C134      1.0  0.91514  0.59433  0.40368  1.0000
  C   C135      1.0  0.94220  0.43750  0.40602  1.0000
  C   C136      1.0  0.91635  0.40816  0.40831  1.0000
  C   C137      1.0  0.15331  0.52731  0.40380  1.0000
  C   C138      1.0  0.12770  0.53121  0.40320  1.0000
  C   C139      1.0  0.12636  0.68421  0.40599  1.0000
  C   C140      1.0  0.15228  0.71350  0.40831  1.0000
  H   H73       1.0  0.16098  0.72327  0.46945  1.0000
  H   H74       1.0  0.11707  0.67326  0.46534  1.0000
  H   H75       1.0  0.11963  0.53441  0.46292  1.0000
  H   H76       1.0  0.16281  0.52741  0.46437  1.0000
  H   H77       1.0  0.95148  0.44846  0.46536  1.0000
  H   H78       1.0  0.90769  0.39837  0.46945  1.0000
  H   H79       1.0  0.90559  0.59424  0.46426  1.0000
  H   H80       1.0  0.94894  0.58755  0.46284  1.0000
  C   C141      1.0  0.50397  0.43665  0.40221  1.0000
  C   C142      1.0  0.50026  0.40722  0.40280  1.0000
  C   C143      1.0  0.65705  0.59115  0.40532  1.0000
  C   C144      1.0  0.68638  0.59464  0.40777  1.0000
  C   C145      1.0  0.56723  0.71239  0.40288  1.0000
  C   C146      1.0  0.56336  0.68290  0.40228  1.0000
  C   C147      1.0  0.41039  0.52854  0.40540  1.0000
  C   C148      1.0  0.38110  0.52515  0.40784  1.0000
  H   H81       1.0  0.37135  0.52413  0.46903  1.0000
  H   H82       1.0  0.42135  0.53023  0.46469  1.0000
  H   H83       1.0  0.56014  0.67168  0.46202  1.0000
  H   H84       1.0  0.56711  0.72184  0.46343  1.0000
  H   H85       1.0  0.64604  0.58948  0.46461  1.0000
  H   H86       1.0  0.69613  0.59580  0.46896  1.0000
  H   H87       1.0  0.50030  0.39780  0.46339  1.0000
  H   H88       1.0  0.50705  0.44788  0.46195  1.0000
  C   C149      1.0  0.65787  0.15371  0.40214  1.0000
  C   C150      1.0  0.68731  0.17941  0.40290  1.0000
  C   C151      1.0  0.50344  0.15234  0.40478  1.0000
  C   C152      1.0  0.49990  0.17816  0.40716  1.0000
  C   C153      1.0  0.38221  0.94130  0.40300  1.0000
  C   C154      1.0  0.41172  0.96690  0.40222  1.0000
  C   C155      1.0  0.56603  0.96825  0.40478  1.0000
  C   C156      1.0  0.56937  0.94232  0.40716  1.0000
  H   H89       1.0  0.57044  0.93367  0.46833  1.0000
  H   H90       1.0  0.56433  0.97757  0.46409  1.0000
  H   H91       1.0  0.42297  0.97498  0.46190  1.0000
  H   H92       1.0  0.37281  0.93180  0.46362  1.0000
  H   H93       1.0  0.50505  0.14304  0.46410  1.0000
  H   H94       1.0  0.49872  0.18681  0.46832  1.0000
  H   H95       1.0  0.69668  0.18892  0.46353  1.0000
  H   H96       1.0  0.64662  0.14560  0.46183  1.0000
  C   C157      1.0  0.23669  0.52163  0.35379  1.0000
  C   C158      1.0  0.25400  0.51734  0.42134  1.0000
  C   C159      1.0  0.28099  0.51652  0.39937  1.0000
  N   N25       1.0  0.29618  0.51222  0.46809  1.0000
  C   C160      1.0  0.28733  0.50880  0.55528  1.0000
  C   C161      1.0  0.26085  0.50963  0.57684  1.0000
  N   N26       1.0  0.24538  0.51379  0.50944  1.0000
  H   H97       1.0  0.29972  0.50569  0.60381  1.0000
  H   H98       1.0  0.25328  0.50713  0.64162  1.0000
  C   C162      1.0  0.21084  0.52366  0.37548  1.0000
  H   H99       1.0  0.20759  0.52698  0.43933  1.0000
  C   C163      1.0  0.57295  0.80142  0.35292  1.0000
  C   C164      1.0  0.57723  0.82308  0.42048  1.0000
  C   C165      1.0  0.57803  0.85086  0.39854  1.0000
  N   N27       1.0  0.58232  0.87041  0.46729  1.0000
  C   C166      1.0  0.58574  0.86506  0.55447  1.0000
  C   C167      1.0  0.58493  0.83779  0.57600  1.0000
  N   N28       1.0  0.58077  0.81809  0.50859  1.0000
  H   H100      1.0  0.58884  0.88060  0.60301  1.0000
  H   H101      1.0  0.58743  0.83277  0.64078  1.0000
  C   C168      1.0  0.57096  0.77358  0.37459  1.0000
  H   H102      1.0  0.56775  0.76712  0.43847  1.0000
  C   C169      1.0  0.29320  0.85786  0.35349  1.0000
  C   C170      1.0  0.27156  0.84060  0.42115  1.0000
  C   C171      1.0  0.24375  0.81361  0.39935  1.0000
  N   N29       1.0  0.22422  0.79847  0.46819  1.0000
  C   C172      1.0  0.22964  0.80735  0.55534  1.0000
  C   C173      1.0  0.25695  0.83382  0.57674  1.0000
  N   N30       1.0  0.27661  0.84925  0.50922  1.0000
  H   H103      1.0  0.21411  0.79499  0.60396  1.0000
  H   H104      1.0  0.26200  0.84142  0.64149  1.0000
  C   C174      1.0  0.32108  0.88370  0.37501  1.0000
  H   H105      1.0  0.32767  0.88691  0.43878  1.0000
  C   C175      1.0  0.83140  0.59930  0.35378  1.0000
  C   C176      1.0  0.81389  0.60339  0.42133  1.0000
  C   C177      1.0  0.78676  0.60391  0.39936  1.0000
  N   N31       1.0  0.77138  0.60804  0.46810  1.0000
  C   C178      1.0  0.78017  0.61155  0.55531  1.0000
  C   C179      1.0  0.80677  0.61102  0.57687  1.0000
  N   N32       1.0  0.82243  0.60702  0.50946  1.0000
  H   H106      1.0  0.76762  0.61452  0.60384  1.0000
  H   H107      1.0  0.81430  0.61359  0.64167  1.0000
  C   C180      1.0  0.85744  0.59764  0.37545  1.0000
  H   H108      1.0  0.86090  0.59478  0.43943  1.0000
  C   C181      1.0  0.49528  0.31846  0.35291  1.0000
  C   C182      1.0  0.49116  0.29692  0.42048  1.0000
  C   C183      1.0  0.49064  0.26925  0.39854  1.0000
  N   N33       1.0  0.48648  0.24981  0.46729  1.0000
  C   C184      1.0  0.48297  0.25518  0.55449  1.0000
  C   C185      1.0  0.48351  0.28234  0.57602  1.0000
  N   N34       1.0  0.48752  0.30193  0.50859  1.0000
  H   H109      1.0  0.47999  0.23972  0.60304  1.0000
  H   H110      1.0  0.48093  0.28736  0.64080  1.0000
  C   C186      1.0  0.49699  0.34621  0.37456  1.0000
  H   H111      1.0  0.50001  0.35266  0.43849  1.0000
  C   C187      1.0  0.77608  0.26317  0.35345  1.0000
  C   C188      1.0  0.79759  0.28063  0.42111  1.0000
  C   C189      1.0  0.82528  0.30776  0.39931  1.0000
  N   N35       1.0  0.84469  0.32309  0.46815  1.0000
  C   C190      1.0  0.83928  0.31426  0.55531  1.0000
  C   C191      1.0  0.81210  0.28765  0.57670  1.0000
  N   N36       1.0  0.79255  0.27204  0.50919  1.0000
  H   H112      1.0  0.85473  0.32676  0.60392  1.0000
  H   H113      1.0  0.80706  0.28009  0.64146  1.0000
  C   C192      1.0  0.74832  0.23716  0.37497  1.0000
  H   H114      1.0  0.74181  0.23379  0.43885  1.0000
