data_image0
_chemical_formula_structural       CNC2HNHCH2CNC2HNHCH2CNC2HNHCH2NC18H12NHNHNHNC18H12NHNHNHC4HC5HO2CH2C4HC5HO2CH2C4HC5HO2CH2
_chemical_formula_sum              "C78 N14 H54 O6"
_cell_length_a       39.7238
_cell_length_b       39.7249
_cell_length_c       14.9282
_cell_angle_alpha    90
_cell_angle_beta     90
_cell_angle_gamma    119.999

_space_group_name_H-M_alt    "P 1"
_space_group_IT_number       1

loop_
  _space_group_symop_operation_xyz
  'x, y, z'

loop_
  _atom_site_type_symbol
  _atom_site_label
  _atom_site_symmetry_multiplicity
  _atom_site_fract_x
  _atom_site_fract_y
  _atom_site_fract_z
  _atom_site_occupancy
  C   C1        1.0  0.47673  0.55709  0.29847  1.0000
  N   N1        1.0  0.49692  0.53795  0.29222  1.0000
  C   C2        1.0  0.55719  0.47881  0.25030  1.0000
  C   C3        1.0  0.55528  0.45058  0.31084  1.0000
  H   H1        1.0  0.48044  0.57633  0.24895  1.0000
  N   N2        1.0  0.53759  0.49793  0.26729  1.0000
  H   H2        1.0  0.57264  0.48472  0.19205  1.0000
  C   C4        1.0  0.57414  0.42708  0.29098  1.0000
  H   H3        1.0  0.58653  0.43332  0.22346  1.0000
  H   H4        1.0  0.55161  0.39638  0.29249  1.0000
  C   C5        1.0  0.44871  0.92029  0.29975  1.0000
  N   N3        1.0  0.46790  0.95962  0.29367  1.0000
  C   C6        1.0  0.52772  0.07905  0.25201  1.0000
  C   C7        1.0  0.55518  0.10532  0.31392  1.0000
  H   H5        1.0  0.43017  0.90482  0.24910  1.0000
  N   N4        1.0  0.50830  0.04032  0.26897  1.0000
  H   H6        1.0  0.52261  0.08861  0.19280  1.0000
  C   C8        1.0  0.57913  0.14766  0.29412  1.0000
  H   H7        1.0  0.57383  0.15378  0.22569  1.0000
  H   H8        1.0  0.60975  0.15567  0.29814  1.0000
  C   C9        1.0  0.08556  0.52989  0.30694  1.0000
  N   N5        1.0  0.04622  0.50992  0.30148  1.0000
  C   C10       1.0  0.92680  0.45065  0.26132  1.0000
  C   C11       1.0  0.90073  0.45239  0.32295  1.0000
  H   H9        1.0  0.10080  0.52628  0.25658  1.0000
  N   N6        1.0  0.96555  0.46991  0.27784  1.0000
  H   H10       1.0  0.91707  0.43557  0.20264  1.0000
  C   C12       1.0  0.85837  0.43396  0.30335  1.0000
  H   H11       1.0  0.85226  0.42255  0.23493  1.0000
  H   H12       1.0  0.85030  0.45652  0.30735  1.0000
  N   N7        1.0  0.33715  0.66883  0.34481  1.0000
  C   C13       1.0  0.35903  0.64948  0.33824  1.0000
  C   C14       1.0  0.29589  0.64694  0.33972  1.0000
  C   C15       1.0  0.35645  0.71008  0.33871  1.0000
  C   C16       1.0  0.37973  0.72961  0.26372  1.0000
  C   C17       1.0  0.39777  0.77030  0.25645  1.0000
  C   C18       1.0  0.39254  0.79270  0.32304  1.0000
  C   C19       1.0  0.36861  0.77282  0.39718  1.0000
  C   C20       1.0  0.35136  0.73218  0.40576  1.0000
  C   C21       1.0  0.35499  0.62610  0.26324  1.0000
  C   C22       1.0  0.37752  0.60795  0.25554  1.0000
  C   C23       1.0  0.40526  0.61310  0.32176  1.0000
  C   C24       1.0  0.40959  0.63712  0.39593  1.0000
  C   C25       1.0  0.38638  0.65455  0.40489  1.0000
  C   C26       1.0  0.27405  0.61992  0.40734  1.0000
  C   C27       1.0  0.23333  0.59678  0.40002  1.0000
  C   C28       1.0  0.21315  0.60089  0.32660  1.0000
  C   C29       1.0  0.23530  0.62831  0.25942  1.0000
  C   C30       1.0  0.27604  0.65074  0.26546  1.0000
  H   H13       1.0  0.37411  0.59149  0.19996  1.0000
  H   H14       1.0  0.33580  0.62245  0.21338  1.0000
  H   H15       1.0  0.39028  0.67192  0.45900  1.0000
  H   H16       1.0  0.43010  0.64244  0.44371  1.0000
  H   H17       1.0  0.38338  0.71421  0.21352  1.0000
  H   H18       1.0  0.41413  0.78347  0.20084  1.0000
  H   H19       1.0  0.28788  0.61620  0.46095  1.0000
  H   H20       1.0  0.21846  0.57649  0.44843  1.0000
  H   H21       1.0  0.22188  0.63157  0.20437  1.0000
  H   H22       1.0  0.29124  0.66972  0.21498  1.0000
  H   H23       1.0  0.33404  0.71857  0.45986  1.0000
  H   H24       1.0  0.36319  0.78784  0.44519  1.0000
  N   N8        1.0  0.43035  0.59718  0.31163  1.0000
  H   H25       1.0  0.42632  0.58466  0.24947  1.0000
  N   N9        1.0  0.40832  0.83371  0.31320  1.0000
  H   H26       1.0  0.42120  0.84237  0.25145  1.0000
  N   N10       1.0  0.17205  0.57588  0.31800  1.0000
  H   H27       1.0  0.16315  0.57996  0.25639  1.0000
  N   N11       1.0  0.67034  0.33556  0.34881  1.0000
  C   C31       1.0  0.65335  0.35962  0.34921  1.0000
  C   C32       1.0  0.71138  0.35260  0.35221  1.0000
  C   C33       1.0  0.64626  0.29451  0.34952  1.0000
  C   C34       1.0  0.64481  0.27262  0.42544  1.0000
  C   C35       1.0  0.62030  0.23197  0.42670  1.0000
  C   C36       1.0  0.59669  0.21236  0.35228  1.0000
  C   C37       1.0  0.59808  0.23432  0.27634  1.0000
  C   C38       1.0  0.62279  0.27494  0.27480  1.0000
  C   C39       1.0  0.65824  0.38389  0.27543  1.0000
  C   C40       1.0  0.64224  0.40852  0.27671  1.0000
  C   C41       1.0  0.62058  0.40902  0.35139  1.0000
  C   C42       1.0  0.61559  0.38462  0.42487  1.0000
  C   C43       1.0  0.63183  0.36019  0.42390  1.0000
  C   C44       1.0  0.73242  0.37344  0.42865  1.0000
  C   C45       1.0  0.77311  0.39005  0.43216  1.0000
  C   C46       1.0  0.79360  0.38612  0.35951  1.0000
  C   C47       1.0  0.77246  0.36504  0.28318  1.0000
  C   C48       1.0  0.73182  0.34869  0.27936  1.0000
  H   H28       1.0  0.64678  0.42641  0.22330  1.0000
  H   H29       1.0  0.67393  0.38406  0.22093  1.0000
  H   H30       1.0  0.62822  0.34305  0.47829  1.0000
  H   H31       1.0  0.60041  0.38484  0.48000  1.0000
  H   H32       1.0  0.66136  0.28629  0.48050  1.0000
  H   H33       1.0  0.61943  0.21671  0.48270  1.0000
  H   H34       1.0  0.71811  0.37638  0.48235  1.0000
  H   H35       1.0  0.78775  0.40480  0.48843  1.0000
  H   H36       1.0  0.78659  0.36127  0.23029  1.0000
  H   H37       1.0  0.71709  0.33354  0.22356  1.0000
  H   H38       1.0  0.62324  0.29030  0.21940  1.0000
  H   H39       1.0  0.58076  0.22084  0.22220  1.0000
  N   N12       1.0  0.60501  0.43422  0.35710  1.0000
  H   H40       1.0  0.62737  0.46243  0.35193  1.0000
  N   N13       1.0  0.57134  0.17160  0.35820  1.0000
  H   H41       1.0  0.54322  0.16581  0.35085  1.0000
  N   N14       1.0  0.83440  0.40221  0.36741  1.0000
  H   H42       1.0  0.84072  0.38019  0.36126  1.0000
  C   C49       1.0  0.45077  0.54968  0.37042  1.0000
  C   C50       1.0  0.49459  0.51161  0.35365  1.0000
  C   C51       1.0  0.47014  0.50365  0.42948  1.0000
  C   C52       1.0  0.44833  0.52285  0.43616  1.0000
  H   H43       1.0  0.42992  0.51697  0.48932  1.0000
  C   C53       1.0  0.51551  0.49177  0.34170  1.0000
  C   C54       1.0  0.53309  0.44398  0.38967  1.0000
  C   C55       1.0  0.51270  0.46413  0.40617  1.0000
  C   C56       1.0  0.48923  0.45720  0.48294  1.0000
  C   C57       1.0  0.46800  0.47665  0.49429  1.0000
  H   H44       1.0  0.53096  0.42337  0.43409  1.0000
  O   O1        1.0  0.48607  0.43127  0.54609  1.0000
  O   O2        1.0  0.44533  0.46868  0.56797  1.0000
  C   C58       1.0  0.42563  0.56765  0.37978  1.0000
  H   H45       1.0  0.43171  0.58144  0.44571  1.0000
  H   H46       1.0  0.39531  0.54412  0.37944  1.0000
  C   C59       1.0  0.45527  0.90168  0.37293  1.0000
  C   C60       1.0  0.49343  0.98359  0.35644  1.0000
  C   C61       1.0  0.50043  0.96704  0.43356  1.0000
  C   C62       1.0  0.48123  0.92601  0.44004  1.0000
  H   H47       1.0  0.48649  0.91345  0.49411  1.0000
  C   C63       1.0  0.51343  0.02435  0.34462  1.0000
  C   C64       1.0  0.56066  0.08969  0.39405  1.0000
  C   C65       1.0  0.54023  0.04914  0.41050  1.0000
  C   C66       1.0  0.54611  0.03254  0.48856  1.0000
  C   C67       1.0  0.52654  0.99185  0.49978  1.0000
  H   H48       1.0  0.58072  0.10812  0.43947  1.0000
  O   O3        1.0  0.57120  0.05525  0.55310  1.0000
  O   O4        1.0  0.53354  0.97709  0.57474  1.0000
  C   C68       1.0  0.43735  0.85856  0.38219  1.0000
  H   H49       1.0  0.42309  0.85076  0.44759  1.0000
  H   H50       1.0  0.46096  0.85189  0.38312  1.0000
  C   C69       1.0  0.10450  0.55555  0.37916  1.0000
  C   C70       1.0  0.02254  0.51214  0.36401  1.0000
  C   C71       1.0  0.03940  0.53621  0.44023  1.0000
  C   C72       1.0  0.08046  0.55785  0.44607  1.0000
  H   H51       1.0  0.09326  0.57603  0.49946  1.0000
  C   C73       1.0  0.98175  0.49149  0.35275  1.0000
  C   C74       1.0  0.91661  0.47403  0.40235  1.0000
  C   C75       1.0  0.95720  0.49411  0.41832  1.0000
  C   C76       1.0  0.97410  0.51716  0.49552  1.0000
  C   C77       1.0  0.01483  0.53817  0.50616  1.0000
  H   H52       1.0  0.89832  0.47602  0.44758  1.0000
  O   O5        1.0  0.95164  0.52016  0.55973  1.0000
  O   O6        1.0  0.02988  0.56047  0.58024  1.0000
  C   C78       1.0  0.14768  0.58055  0.38748  1.0000
  H   H53       1.0  0.15569  0.57426  0.45281  1.0000
  H   H54       1.0  0.15457  0.61091  0.38791  1.0000
