data_image0
_chemical_formula_structural       C2NC2NC2NC2NC2NC2NC2NC2NC2NC2NC2NC2N2CHNCHNCHNCHNCHNCHNCHNCHNCHNCHNCHNCHC2NC2NC2NC2NC2NC2NC2NC2NC2NC2NC2NC2N2CHNCHNCHNCHNCHNCHNCHNCHNCHNCHNCHNCHC2NC2NC2NC2NC2NC2NC2NC2NC2NC2NC2NC2N2CHNCHNCHNCHNCHNCHC2NC2NC2NC2NC2NC2NC2NC2NC2NC2NC2NC2NCNCNCNCNCNCNCNCNCNCNCNCNCNCNCNCNCNCNCNCNCNCNCNCNCNCNCNCNCNCNCNCNCNCNCNCNCNCNCNCNCNCNCNCNCNCNCNCNCNCNCNCNCNCNCNCNCNCNCNCNCNCNCNCNCNCNCNCNCNCNCNCNCNCNCNCNCNCNCNCNCNCNCNCNCNCNCNCNCNCNCNCNCNCNCNCNCNCNCNCNCNCNCNCNCNCNCNCN2CHNCHNCHNCHNCHNCHC2NC2NC2NC2NC2NC2NC2NC2NC2NC2NC2NC2NC2NC2NC2NC2NC2NC2NC2NC2NC2NC2NC2NC2N2CHNCHNCHNCHNCHNCHC2NC2NC2NC2NC2NC2NC2NC2NC2NC2NC2NC2NC2NC2NC2NC2NC2NC2NC2NC2NC2NC2NC2NC2N2CHNCHNCHNCHNCHNCHC2NC2NC2NC2NC2NC2NC2NC2NC2NC2NC2NC2N2CHNCHNCHNCHNCHNCH
_chemical_formula_sum              "C378 N270 H54"
_cell_length_a       66.4533
_cell_length_b       66.4534
_cell_length_c       14.8703
_cell_angle_alpha    90
_cell_angle_beta     90
_cell_angle_gamma    120

_space_group_name_H-M_alt    "P 1"
_space_group_IT_number       1

loop_
  _space_group_symop_operation_xyz
  'x, y, z'

loop_
  _atom_site_type_symbol
  _atom_site_label
  _atom_site_symmetry_multiplicity
  _atom_site_fract_x
  _atom_site_fract_y
  _atom_site_fract_z
  _atom_site_occupancy
  C   C1        1.0  0.13042  0.32140  0.39007  1.0000
  C   C2        1.0  0.13186  0.36457  0.39217  1.0000
  N   N1        1.0  0.11990  0.34818  0.32756  1.0000
  C   C3        1.0  0.11744  0.32635  0.32662  1.0000
  C   C4        1.0  0.10792  0.31356  0.25605  1.0000
  N   N2        1.0  0.09952  0.30223  0.19365  1.0000
  C   C5        1.0  0.68930  0.81109  0.39144  1.0000
  C   C6        1.0  0.64618  0.76935  0.39332  1.0000
  N   N3        1.0  0.66261  0.77380  0.32888  1.0000
  C   C7        1.0  0.68446  0.79315  0.32817  1.0000
  C   C8        1.0  0.69730  0.79644  0.25778  1.0000
  N   N4        1.0  0.70868  0.79936  0.19554  1.0000
  C   C9        1.0  0.19974  0.88047  0.38659  1.0000
  C   C10       1.0  0.24150  0.87914  0.39015  1.0000
  N   N5        1.0  0.23708  0.89095  0.32488  1.0000
  C   C11       1.0  0.21770  0.89340  0.32324  1.0000
  C   C12       1.0  0.21443  0.90272  0.25207  1.0000
  N   N6        1.0  0.21152  0.91095  0.18912  1.0000
  C   C13       1.0  0.88274  0.68727  0.39237  1.0000
  C   C14       1.0  0.88120  0.64407  0.39432  1.0000
  N   N7        1.0  0.89326  0.66048  0.32991  1.0000
  C   C15       1.0  0.89574  0.68231  0.32904  1.0000
  C   C16       1.0  0.90542  0.69524  0.25891  1.0000
  N   N8        1.0  0.91398  0.70668  0.19694  1.0000
  C   C17       1.0  0.32361  0.19762  0.39380  1.0000
  C   C18       1.0  0.36682  0.23935  0.39537  1.0000
  N   N9        1.0  0.35036  0.23493  0.33109  1.0000
  C   C19       1.0  0.32855  0.21555  0.33036  1.0000
  C   C20       1.0  0.31556  0.21229  0.26041  1.0000
  N   N10       1.0  0.30407  0.20939  0.19857  1.0000
  C   C21       1.0  0.81346  0.12809  0.37950  1.0000
  C   C22       1.0  0.77176  0.12949  0.38435  1.0000
  N   N11       1.0  0.77621  0.11803  0.31772  1.0000
  C   C23       1.0  0.79560  0.11562  0.31521  1.0000
  C   C24       1.0  0.79901  0.10666  0.24321  1.0000
  N   N12       1.0  0.80205  0.09878  0.17948  1.0000
  N   N13       1.0  0.32699  0.11599  0.38019  1.0000
  C   C25       1.0  0.34691  0.11460  0.37950  1.0000
  H   H1        1.0  0.34933  0.10562  0.32893  1.0000
  N   N14       1.0  0.79761  0.68389  0.37810  1.0000
  C   C26       1.0  0.77628  0.66399  0.37750  1.0000
  H   H2        1.0  0.76488  0.66156  0.32691  1.0000
  N   N15       1.0  0.89505  0.21322  0.37118  1.0000
  C   C27       1.0  0.89645  0.23453  0.37264  1.0000
  H   H3        1.0  0.90542  0.24620  0.32285  1.0000
  N   N16       1.0  0.68614  0.89281  0.37947  1.0000
  C   C28       1.0  0.66632  0.89437  0.37923  1.0000
  H   H4        1.0  0.66382  0.90318  0.32825  1.0000
  N   N17       1.0  0.21533  0.32474  0.37806  1.0000
  C   C29       1.0  0.23670  0.34459  0.37791  1.0000
  H   H5        1.0  0.24800  0.34714  0.32686  1.0000
  N   N18       1.0  0.11809  0.79541  0.37552  1.0000
  C   C30       1.0  0.11661  0.77405  0.37596  1.0000
  H   H6        1.0  0.10788  0.76267  0.32509  1.0000
  N   N19       1.0  0.21675  0.44549  0.35454  1.0000
  C   C31       1.0  0.23809  0.44694  0.35625  1.0000
  H   H7        1.0  0.24854  0.45339  0.30106  1.0000
  N   N20       1.0  0.56540  0.77367  0.35396  1.0000
  C   C32       1.0  0.56396  0.79357  0.35591  1.0000
  H   H8        1.0  0.55758  0.79764  0.30069  1.0000
  N   N21       1.0  0.23752  0.79403  0.35453  1.0000
  C   C33       1.0  0.21763  0.77271  0.35655  1.0000
  H   H9        1.0  0.21363  0.76202  0.30206  1.0000
  N   N22       1.0  0.79603  0.56310  0.35397  1.0000
  C   C34       1.0  0.77470  0.56166  0.35561  1.0000
  H   H10       1.0  0.76415  0.55516  0.30067  1.0000
  N   N23       1.0  0.44773  0.23527  0.35510  1.0000
  C   C35       1.0  0.44916  0.21537  0.35659  1.0000
  H   H11       1.0  0.45562  0.21132  0.30155  1.0000
  N   N24       1.0  0.77574  0.21467  0.35572  1.0000
  C   C36       1.0  0.79553  0.23607  0.35845  1.0000
  H   H12       1.0  0.79951  0.24681  0.30416  1.0000
  C   C37       1.0  0.13118  0.43518  0.29412  1.0000
  C   C38       1.0  0.10749  0.46073  0.28681  1.0000
  N   N25       1.0  0.09680  0.43757  0.26881  1.0000
  C   C39       1.0  0.10731  0.42451  0.26949  1.0000
  C   C40       1.0  0.09394  0.40260  0.25107  1.0000
  N   N26       1.0  0.08202  0.38328  0.23465  1.0000
  C   C41       1.0  0.57554  0.69830  0.29422  1.0000
  C   C42       1.0  0.54995  0.64906  0.28620  1.0000
  N   N27       1.0  0.57311  0.66153  0.26832  1.0000
  C   C43       1.0  0.58619  0.68510  0.26938  1.0000
  C   C44       1.0  0.60809  0.69362  0.25076  1.0000
  N   N28       1.0  0.62740  0.70102  0.23416  1.0000
  C   C45       1.0  0.31281  0.87960  0.29428  1.0000
  C   C46       1.0  0.36204  0.90328  0.28691  1.0000
  N   N29       1.0  0.34957  0.91393  0.26835  1.0000
  C   C47       1.0  0.32600  0.90342  0.26907  1.0000
  C   C48       1.0  0.31747  0.91676  0.24978  1.0000
  N   N30       1.0  0.31007  0.92864  0.23260  1.0000
  C   C49       1.0  0.88175  0.57352  0.29552  1.0000
  C   C50       1.0  0.90544  0.54797  0.28761  1.0000
  N   N31       1.0  0.91614  0.57115  0.26995  1.0000
  C   C51       1.0  0.90563  0.58421  0.27101  1.0000
  C   C52       1.0  0.91900  0.60612  0.25263  1.0000
  N   N32       1.0  0.93091  0.62545  0.23627  1.0000
  C   C53       1.0  0.43732  0.31051  0.29607  1.0000
  C   C54       1.0  0.46286  0.35974  0.28726  1.0000
  N   N33       1.0  0.43966  0.34723  0.27004  1.0000
  C   C55       1.0  0.42660  0.32366  0.27149  1.0000
  C   C56       1.0  0.40466  0.31511  0.25353  1.0000
  N   N34       1.0  0.38531  0.30769  0.23752  1.0000
  C   C57       1.0  0.70047  0.12947  0.29172  1.0000
  C   C58       1.0  0.65120  0.10579  0.28599  1.0000
  N   N35       1.0  0.66364  0.09519  0.26581  1.0000
  C   C59       1.0  0.68722  0.10571  0.26567  1.0000
  C   C60       1.0  0.69570  0.09243  0.24486  1.0000
  N   N36       1.0  0.70307  0.08060  0.22628  1.0000
  N   N37       1.0  0.45786  0.13736  0.33160  1.0000
  C   C61       1.0  0.47121  0.12724  0.32308  1.0000
  H   H13       1.0  0.48886  0.13737  0.32701  1.0000
  N   N38       1.0  0.68798  0.55302  0.33023  1.0000
  C   C62       1.0  0.66452  0.53968  0.32150  1.0000
  H   H14       1.0  0.65699  0.52203  0.32553  1.0000
  N   N39       1.0  0.87348  0.32276  0.33253  1.0000
  C   C63       1.0  0.88357  0.34623  0.32429  1.0000
  H   H15       1.0  0.87345  0.35374  0.32917  1.0000
  N   N40       1.0  0.55539  0.87163  0.33107  1.0000
  C   C64       1.0  0.54206  0.88177  0.32253  1.0000
  H   H16       1.0  0.52441  0.87165  0.32658  1.0000
  N   N41       1.0  0.32476  0.45566  0.33074  1.0000
  C   C65       1.0  0.34823  0.46903  0.32217  1.0000
  H   H17       1.0  0.35572  0.48668  0.32621  1.0000
  N   N42       1.0  0.13958  0.68595  0.33167  1.0000
  C   C66       1.0  0.12945  0.66247  0.32335  1.0000
  H   H18       1.0  0.13957  0.65495  0.32777  1.0000
  N   N43       1.0  0.09807  0.21140  0.29103  1.0000
  C   C67       1.0  0.10743  0.23485  0.29619  1.0000
  H   H19       1.0  0.09669  0.24167  0.29176  1.0000
  N   N44       1.0  0.79936  0.88861  0.29233  1.0000
  C   C68       1.0  0.77591  0.87455  0.29773  1.0000
  H   H20       1.0  0.76906  0.85699  0.29327  1.0000
  N   N45       1.0  0.12216  0.91281  0.28769  1.0000
  C   C69       1.0  0.13622  0.90342  0.29260  1.0000
  H   H21       1.0  0.15378  0.91413  0.28799  1.0000
  N   N46       1.0  0.91509  0.79716  0.29244  1.0000
  C   C70       1.0  0.90572  0.77371  0.29781  1.0000
  H   H22       1.0  0.91646  0.76688  0.29385  1.0000
  N   N47       1.0  0.21374  0.12000  0.29328  1.0000
  C   C71       1.0  0.23718  0.13410  0.29890  1.0000
  H   H23       1.0  0.24397  0.15167  0.29535  1.0000
  N   N48       1.0  0.89117  0.09587  0.28254  1.0000
  C   C72       1.0  0.87715  0.10533  0.28609  1.0000
  H   H24       1.0  0.85960  0.09466  0.28043  1.0000
  C   C73       1.0  0.09822  0.52934  0.32482  1.0000
  C   C74       1.0  0.09862  0.57187  0.33452  1.0000
  N   N49       1.0  0.10573  0.56540  0.25952  1.0000
  C   C75       1.0  0.10693  0.54553  0.25281  1.0000
  C   C76       1.0  0.11265  0.54089  0.17515  1.0000
  N   N50       1.0  0.11767  0.53673  0.10662  1.0000
  C   C77       1.0  0.48133  0.57114  0.32327  1.0000
  C   C78       1.0  0.43881  0.52894  0.33322  1.0000
  N   N51       1.0  0.44537  0.54241  0.25788  1.0000
  C   C79       1.0  0.46521  0.56349  0.25096  1.0000
  C   C80       1.0  0.46992  0.57371  0.17300  1.0000
  N   N52       1.0  0.47414  0.58276  0.10420  1.0000
  C   C81       1.0  0.44007  0.91282  0.32450  1.0000
  C   C82       1.0  0.48225  0.91249  0.33447  1.0000
  N   N53       1.0  0.46882  0.90564  0.25901  1.0000
  C   C83       1.0  0.44774  0.90440  0.25205  1.0000
  C   C84       1.0  0.43757  0.89895  0.17398  1.0000
  N   N54       1.0  0.42856  0.89419  0.10509  1.0000
  C   C85       1.0  0.91485  0.47941  0.32518  1.0000
  C   C86       1.0  0.91434  0.43686  0.33529  1.0000
  N   N55       1.0  0.90743  0.44339  0.25991  1.0000
  C   C87       1.0  0.90626  0.46327  0.25297  1.0000
  C   C88       1.0  0.90077  0.46796  0.17493  1.0000
  N   N56       1.0  0.89595  0.47217  0.10607  1.0000
  C   C89       1.0  0.53144  0.43776  0.32334  1.0000
  C   C90       1.0  0.57397  0.47986  0.33275  1.0000
  N   N57       1.0  0.56737  0.46637  0.25749  1.0000
  C   C91       1.0  0.54752  0.44529  0.25089  1.0000
  C   C92       1.0  0.54274  0.43510  0.17285  1.0000
  N   N58       1.0  0.53846  0.42608  0.10399  1.0000
  C   C93       1.0  0.57323  0.09621  0.32582  1.0000
  C   C94       1.0  0.53107  0.09661  0.33531  1.0000
  N   N59       1.0  0.54471  0.10370  0.26042  1.0000
  C   C95       1.0  0.56582  0.10500  0.25382  1.0000
  C   C96       1.0  0.57609  0.11061  0.17596  1.0000
  N   N60       1.0  0.58518  0.11552  0.10725  1.0000
  N   N61       1.0  0.99428  0.42026  0.30082  1.0000
  C   C97       1.0  0.01787  0.43042  0.29655  1.0000
  H   H25       1.0  0.02517  0.42077  0.27688  1.0000
  N   N62       1.0  0.59045  0.57637  0.29870  1.0000
  C   C98       1.0  0.58027  0.58979  0.29463  1.0000
  H   H26       1.0  0.58989  0.60673  0.27495  1.0000
  N   N63       1.0  0.43460  0.01652  0.30035  1.0000
  C   C99       1.0  0.42120  0.99292  0.29617  1.0000
  H   H27       1.0  0.40422  0.98559  0.27690  1.0000
  N   N64       1.0  0.01868  0.58850  0.30051  1.0000
  C   C100      1.0  0.99509  0.57834  0.29638  1.0000
  H   H28       1.0  0.98778  0.58800  0.27695  1.0000
  N   N65       1.0  0.42232  0.43242  0.29949  1.0000
  C   C101      1.0  0.43249  0.41900  0.29542  1.0000
  H   H29       1.0  0.42281  0.40200  0.27647  1.0000
  N   N66       1.0  0.57872  0.99253  0.30063  1.0000
  C   C102      1.0  0.59212  0.01613  0.29650  1.0000
  H   H30       1.0  0.60906  0.02347  0.27669  1.0000
  C   C103      1.0  0.12939  0.09729  0.29244  1.0000
  C   C104      1.0  0.10865  0.12560  0.29282  1.0000
  N   N67       1.0  0.09588  0.10200  0.29096  1.0000
  C   C105      1.0  0.10481  0.08753  0.29065  1.0000
  C   C106      1.0  0.08954  0.06547  0.28869  1.0000
  N   N68       1.0  0.07591  0.04604  0.28691  1.0000
  C   C107      1.0  0.91364  0.03395  0.29019  1.0000
  C   C108      1.0  0.88526  0.98490  0.29194  1.0000
  N   N69       1.0  0.90887  0.99570  0.29081  1.0000
  C   C109      1.0  0.92337  0.01910  0.28992  1.0000
  C   C110      1.0  0.94542  0.02585  0.28886  1.0000
  N   N70       1.0  0.96485  0.03163  0.28792  1.0000
  C   C111      1.0  0.97679  0.88159  0.29116  1.0000
  C   C112      1.0  0.02585  0.90238  0.29071  1.0000
  N   N71       1.0  0.01500  0.91513  0.28930  1.0000
  C   C113      1.0  0.99160  0.90617  0.28937  1.0000
  C   C114      1.0  0.98478  0.92142  0.28777  1.0000
  N   N72       1.0  0.97895  0.93503  0.28630  1.0000
  C   C115      1.0  0.88378  0.91125  0.29252  1.0000
  C   C116      1.0  0.90456  0.88297  0.29291  1.0000
  N   N73       1.0  0.91731  0.90657  0.29086  1.0000
  C   C117      1.0  0.90836  0.92102  0.29053  1.0000
  C   C118      1.0  0.92362  0.94308  0.28833  1.0000
  N   N74       1.0  0.93724  0.96252  0.28634  1.0000
  C   C119      1.0  0.09955  0.97458  0.29029  1.0000
  C   C120      1.0  0.12792  0.02364  0.29180  1.0000
  N   N75       1.0  0.10432  0.01282  0.28979  1.0000
  C   C121      1.0  0.08982  0.98943  0.28895  1.0000
  C   C122      1.0  0.06777  0.98266  0.28690  1.0000
  N   N76       1.0  0.04834  0.97688  0.28505  1.0000
  C   C123      1.0  0.03642  0.12696  0.29130  1.0000
  C   C124      1.0  0.98736  0.10615  0.29052  1.0000
  N   N77       1.0  0.99822  0.09340  0.29014  1.0000
  C   C125      1.0  0.02162  0.10236  0.29044  1.0000
  C   C126      1.0  0.02845  0.08712  0.28994  1.0000
  N   N78       1.0  0.03429  0.07351  0.28946  1.0000
  C   C127      1.0  0.17629  0.42550  0.39399  1.0000
  N   N79       1.0  0.16613  0.43564  0.34676  1.0000
  C   C128      1.0  0.14336  0.42326  0.31894  1.0000
  N   N80       1.0  0.13148  0.39966  0.33264  1.0000
  C   C129      1.0  0.14080  0.38866  0.37906  1.0000
  N   N81       1.0  0.16283  0.40242  0.40806  1.0000
  C   C130      1.0  0.58533  0.75318  0.39357  1.0000
  N   N82       1.0  0.57515  0.73285  0.34648  1.0000
  C   C131      1.0  0.58750  0.72240  0.31905  1.0000
  N   N83       1.0  0.61108  0.73402  0.33316  1.0000
  C   C132      1.0  0.62208  0.75435  0.37956  1.0000
  N   N84       1.0  0.60838  0.76271  0.40819  1.0000
  C   C133      1.0  0.25780  0.83456  0.39304  1.0000
  N   N85       1.0  0.27823  0.84470  0.34660  1.0000
  C   C134      1.0  0.28867  0.86745  0.31860  1.0000
  N   N86       1.0  0.27696  0.87936  0.33160  1.0000
  C   C135      1.0  0.25656  0.87007  0.37745  1.0000
  N   N87       1.0  0.24819  0.84804  0.40666  1.0000
  C   C136      1.0  0.83649  0.58321  0.39397  1.0000
  N   N88       1.0  0.84672  0.57305  0.34732  1.0000
  C   C137      1.0  0.86955  0.58541  0.32027  1.0000
  N   N89       1.0  0.88147  0.60899  0.33449  1.0000
  C   C138      1.0  0.87207  0.61997  0.38052  1.0000
  N   N90       1.0  0.84997  0.60625  0.40881  1.0000
  C   C139      1.0  0.42775  0.25572  0.39549  1.0000
  N   N91       1.0  0.43783  0.27602  0.34823  1.0000
  C   C140      1.0  0.42542  0.28642  0.32096  1.0000
  N   N92       1.0  0.40185  0.27474  0.33530  1.0000
  C   C141      1.0  0.39091  0.25442  0.38179  1.0000
  N   N93       1.0  0.40469  0.24612  0.41019  1.0000
  C   C142      1.0  0.75545  0.17403  0.39226  1.0000
  N   N94       1.0  0.73508  0.16414  0.34546  1.0000
  C   C143      1.0  0.72461  0.14152  0.31591  1.0000
  N   N95       1.0  0.73630  0.12953  0.32739  1.0000
  C   C144      1.0  0.75667  0.13859  0.37332  1.0000
  N   N96       1.0  0.76504  0.16048  0.40416  1.0000
  C   C145      1.0  0.42648  0.17395  0.41090  1.0000
  N   N97       1.0  0.43560  0.16219  0.36802  1.0000
  C   C146      1.0  0.42277  0.13864  0.35328  1.0000
  N   N98       1.0  0.39957  0.12749  0.37447  1.0000
  C   C147      1.0  0.38966  0.13844  0.41732  1.0000
  N   N99       1.0  0.40391  0.16122  0.43551  1.0000
  C   C148      1.0  0.75599  0.58438  0.40974  1.0000
  N   N100      1.0  0.73509  0.57525  0.36697  1.0000
  C   C149      1.0  0.72438  0.58809  0.35208  1.0000
  N   N101      1.0  0.73648  0.61131  0.37295  1.0000
  C   C150      1.0  0.75739  0.62125  0.41550  1.0000
  N   N102      1.0  0.76587  0.60698  0.43399  1.0000
  C   C151      1.0  0.83711  0.25464  0.41123  1.0000
  N   N103      1.0  0.84874  0.27560  0.36881  1.0000
  C   C152      1.0  0.87225  0.28637  0.35298  1.0000
  N   N104      1.0  0.88345  0.27425  0.37215  1.0000
  C   C153      1.0  0.87264  0.25326  0.41419  1.0000
  N   N105      1.0  0.84991  0.24471  0.43356  1.0000
  C   C154      1.0  0.58666  0.83495  0.41079  1.0000
  N   N106      1.0  0.57760  0.84673  0.36766  1.0000
  C   C155      1.0  0.59044  0.87028  0.35301  1.0000
  N   N107      1.0  0.61364  0.88141  0.37418  1.0000
  C   C156      1.0  0.62355  0.87043  0.41687  1.0000
  N   N108      1.0  0.60926  0.84765  0.43510  1.0000
  C   C157      1.0  0.25676  0.42415  0.41012  1.0000
  N   N109      1.0  0.27764  0.43332  0.36725  1.0000
  C   C158      1.0  0.28840  0.42053  0.35241  1.0000
  N   N110      1.0  0.27637  0.39731  0.37334  1.0000
  C   C159      1.0  0.25547  0.38733  0.41599  1.0000
  N   N111      1.0  0.24692  0.40156  0.43435  1.0000
  C   C160      1.0  0.17616  0.75408  0.41014  1.0000
  N   N112      1.0  0.16444  0.73312  0.36775  1.0000
  C   C161      1.0  0.14090  0.72237  0.35264  1.0000
  N   N113      1.0  0.12973  0.73446  0.37278  1.0000
  C   C162      1.0  0.14065  0.75542  0.41493  1.0000
  N   N114      1.0  0.16340  0.76396  0.43372  1.0000
  C   C163      1.0  0.13854  0.30533  0.38440  1.0000
  N   N115      1.0  0.12983  0.28440  0.34217  1.0000
  C   C164      1.0  0.14236  0.27308  0.33630  1.0000
  N   N116      1.0  0.16495  0.28424  0.36668  1.0000
  C   C165      1.0  0.17436  0.30499  0.41046  1.0000
  N   N117      1.0  0.16033  0.31412  0.41666  1.0000
  C   C166      1.0  0.70543  0.83527  0.38600  1.0000
  N   N118      1.0  0.72638  0.84748  0.34390  1.0000
  C   C167      1.0  0.73773  0.87134  0.33812  1.0000
  N   N119      1.0  0.72659  0.88279  0.36836  1.0000
  C   C168      1.0  0.70579  0.87145  0.41180  1.0000
  N   N120      1.0  0.69663  0.84828  0.41809  1.0000
  C   C169      1.0  0.17553  0.87220  0.38022  1.0000
  N   N121      1.0  0.16331  0.88096  0.33832  1.0000
  C   C170      1.0  0.13945  0.86845  0.33264  1.0000
  N   N122      1.0  0.12800  0.84588  0.36319  1.0000
  C   C171      1.0  0.13936  0.83646  0.40677  1.0000
  N   N123      1.0  0.16253  0.85044  0.41284  1.0000
  C   C172      1.0  0.87445  0.70319  0.38588  1.0000
  N   N124      1.0  0.88327  0.72420  0.34417  1.0000
  C   C173      1.0  0.87074  0.73552  0.33789  1.0000
  N   N125      1.0  0.84809  0.72432  0.36757  1.0000
  C   C174      1.0  0.83857  0.70347  0.41069  1.0000
  N   N126      1.0  0.85260  0.69435  0.41756  1.0000
  C   C175      1.0  0.30757  0.17342  0.38798  1.0000
  N   N127      1.0  0.28665  0.16121  0.34563  1.0000
  C   C176      1.0  0.27537  0.13737  0.33935  1.0000
  N   N128      1.0  0.28654  0.12593  0.36937  1.0000
  C   C177      1.0  0.30731  0.13727  0.41309  1.0000
  N   N129      1.0  0.31640  0.16042  0.41984  1.0000
  C   C178      1.0  0.83767  0.13635  0.37342  1.0000
  N   N130      1.0  0.84996  0.12769  0.33126  1.0000
  C   C179      1.0  0.87382  0.14024  0.32611  1.0000
  N   N131      1.0  0.88521  0.16275  0.35736  1.0000
  C   C180      1.0  0.87378  0.17207  0.40113  1.0000
  N   N132      1.0  0.85061  0.15805  0.40654  1.0000
  C   C181      1.0  0.09009  0.50522  0.31592  1.0000
  N   N133      1.0  0.10359  0.49538  0.30258  1.0000
  C   C182      1.0  0.09394  0.47182  0.29346  1.0000
  N   N134      1.0  0.07028  0.45837  0.29763  1.0000
  C   C183      1.0  0.05629  0.46759  0.31079  1.0000
  N   N135      1.0  0.06676  0.49100  0.32005  1.0000
  C   C184      1.0  0.50544  0.58713  0.31449  1.0000
  N   N136      1.0  0.51528  0.61049  0.30152  1.0000
  C   C185      1.0  0.53883  0.62440  0.29248  1.0000
  N   N137      1.0  0.55229  0.61420  0.29641  1.0000
  C   C186      1.0  0.54307  0.59097  0.30924  1.0000
  N   N138      1.0  0.51967  0.57802  0.31839  1.0000
  C   C187      1.0  0.42398  0.92081  0.31558  1.0000
  N   N139      1.0  0.40064  0.90724  0.30251  1.0000
  C   C188      1.0  0.38669  0.91685  0.29336  1.0000
  N   N140      1.0  0.39684  0.94050  0.29734  1.0000
  C   C189      1.0  0.42006  0.95455  0.31029  1.0000
  N   N141      1.0  0.43305  0.94414  0.31952  1.0000
  C   C190      1.0  0.92291  0.50351  0.31616  1.0000
  N   N142      1.0  0.90937  0.51332  0.30309  1.0000
  C   C191      1.0  0.91901  0.53688  0.29394  1.0000
  N   N143      1.0  0.94266  0.55035  0.29788  1.0000
  C   C192      1.0  0.95668  0.54115  0.31079  1.0000
  N   N144      1.0  0.94624  0.51775  0.32006  1.0000
  C   C193      1.0  0.50735  0.42170  0.31460  1.0000
  N   N145      1.0  0.49752  0.39833  0.30196  1.0000
  C   C194      1.0  0.47396  0.38440  0.29317  1.0000
  N   N146      1.0  0.46049  0.39458  0.29701  1.0000
  C   C195      1.0  0.46970  0.41782  0.30951  1.0000
  N   N147      1.0  0.49311  0.43079  0.31845  1.0000
  C   C196      1.0  0.58932  0.08822  0.31677  1.0000
  N   N148      1.0  0.61263  0.10179  0.30287  1.0000
  C   C197      1.0  0.62657  0.09219  0.29327  1.0000
  N   N149      1.0  0.61646  0.06855  0.29755  1.0000
  C   C198      1.0  0.59328  0.05450  0.31133  1.0000
  N   N150      1.0  0.58029  0.06490  0.32100  1.0000
  C   C199      1.0  0.50693  0.08794  0.32638  1.0000
  N   N151      1.0  0.49603  0.10065  0.32083  1.0000
  C   C200      1.0  0.47230  0.09006  0.31537  1.0000
  N   N152      1.0  0.45978  0.06628  0.31628  1.0000
  C   C201      1.0  0.47004  0.05299  0.32212  1.0000
  N   N153      1.0  0.49352  0.06454  0.32684  1.0000
  C   C202      1.0  0.58949  0.50402  0.32419  1.0000
  N   N154      1.0  0.61309  0.51490  0.31890  1.0000
  C   C203      1.0  0.62626  0.53864  0.31387  1.0000
  N   N155      1.0  0.61503  0.55118  0.31496  1.0000
  C   C204      1.0  0.59148  0.54094  0.32063  1.0000
  N   N156      1.0  0.57952  0.51745  0.32490  1.0000
  C   C205      1.0  0.92295  0.42131  0.32699  1.0000
  N   N157      1.0  0.91020  0.39770  0.32149  1.0000
  C   C206      1.0  0.92076  0.38453  0.31629  1.0000
  N   N158      1.0  0.94453  0.39575  0.31725  1.0000
  C   C207      1.0  0.95786  0.41929  0.32301  1.0000
  N   N159      1.0  0.94635  0.43126  0.32749  1.0000
  C   C208      1.0  0.50640  0.92113  0.32614  1.0000
  N   N160      1.0  0.51728  0.90841  0.32045  1.0000
  C   C209      1.0  0.54102  0.91899  0.31539  1.0000
  N   N161      1.0  0.55356  0.94276  0.31677  1.0000
  C   C210      1.0  0.54331  0.95606  0.32274  1.0000
  N   N162      1.0  0.51983  0.94453  0.32705  1.0000
  C   C211      1.0  0.42330  0.50480  0.32468  1.0000
  N   N163      1.0  0.39968  0.49390  0.31944  1.0000
  C   C212      1.0  0.38653  0.47016  0.31434  1.0000
  N   N164      1.0  0.39778  0.45764  0.31531  1.0000
  C   C213      1.0  0.42134  0.46790  0.32087  1.0000
  N   N165      1.0  0.43328  0.49138  0.32523  1.0000
  C   C214      1.0  0.09002  0.58742  0.32615  1.0000
  N   N166      1.0  0.10278  0.61103  0.32067  1.0000
  C   C215      1.0  0.09223  0.62421  0.31550  1.0000
  N   N167      1.0  0.06846  0.61301  0.31656  1.0000
  C   C216      1.0  0.05512  0.58946  0.32233  1.0000
  N   N168      1.0  0.06662  0.57748  0.32675  1.0000
  C   C217      1.0  0.09711  0.13878  0.29305  1.0000
  N   N169      1.0  0.10871  0.16241  0.29524  1.0000
  C   C218      1.0  0.09770  0.17508  0.29572  1.0000
  N   N170      1.0  0.07396  0.16295  0.29409  1.0000
  C   C219      1.0  0.06132  0.13924  0.29207  1.0000
  N   N171      1.0  0.07352  0.12781  0.29167  1.0000
  C   C220      1.0  0.87205  0.96019  0.29289  1.0000
  N   N172      1.0  0.84842  0.94818  0.29541  1.0000
  C   C221      1.0  0.83573  0.92451  0.29661  1.0000
  N   N173      1.0  0.84782  0.91286  0.29531  1.0000
  C   C222      1.0  0.87152  0.92390  0.29293  1.0000
  N   N174      1.0  0.88298  0.94753  0.29188  1.0000
  C   C223      1.0  0.05057  0.91391  0.29076  1.0000
  N   N175      1.0  0.06259  0.90229  0.29252  1.0000
  C   C224      1.0  0.08626  0.91326  0.29300  1.0000
  N   N176      1.0  0.09790  0.93700  0.29190  1.0000
  C   C225      1.0  0.08687  0.94968  0.29030  1.0000
  N   N177      1.0  0.06323  0.93751  0.28987  1.0000
  C   C226      1.0  0.91610  0.86980  0.29320  1.0000
  N   N178      1.0  0.90450  0.84617  0.29575  1.0000
  C   C227      1.0  0.91550  0.83349  0.29638  1.0000
  N   N179      1.0  0.93924  0.84561  0.29451  1.0000
  C   C228      1.0  0.95189  0.86932  0.29209  1.0000
  N   N180      1.0  0.93969  0.88076  0.29160  1.0000
  C   C229      1.0  0.14112  0.04835  0.29273  1.0000
  N   N181      1.0  0.16476  0.06036  0.29539  1.0000
  C   C230      1.0  0.17744  0.08404  0.29664  1.0000
  N   N182      1.0  0.16533  0.09567  0.29531  1.0000
  C   C231      1.0  0.14163  0.08463  0.29284  1.0000
  N   N183      1.0  0.13018  0.06100  0.29169  1.0000
  C   C232      1.0  0.96264  0.09461  0.29021  1.0000
  N   N184      1.0  0.95064  0.10624  0.29091  1.0000
  C   C233      1.0  0.92698  0.09529  0.29088  1.0000
  N   N185      1.0  0.91531  0.07154  0.29029  1.0000
  C   C234      1.0  0.92634  0.05886  0.28977  1.0000
  N   N186      1.0  0.94997  0.07101  0.28982  1.0000
  N   N187      1.0  0.14032  0.33719  0.45750  1.0000
  C   C235      1.0  0.14043  0.35734  0.46466  1.0000
  H   H31       1.0  0.14962  0.36815  0.51630  1.0000
  N   N188      1.0  0.67349  0.80519  0.45874  1.0000
  C   C236      1.0  0.65338  0.78509  0.46603  1.0000
  H   H32       1.0  0.64247  0.78357  0.51710  1.0000
  N   N189      1.0  0.20558  0.87066  0.45452  1.0000
  C   C237      1.0  0.22568  0.87071  0.46263  1.0000
  H   H33       1.0  0.22717  0.86142  0.51418  1.0000
  N   N190      1.0  0.87267  0.67140  0.45941  1.0000
  C   C238      1.0  0.87258  0.65126  0.46682  1.0000
  H   H34       1.0  0.86310  0.64033  0.51770  1.0000
  N   N191      1.0  0.33953  0.20348  0.46072  1.0000
  C   C239      1.0  0.35969  0.22353  0.46780  1.0000
  H   H35       1.0  0.37058  0.22500  0.51885  1.0000
  N   N192      1.0  0.80756  0.13752  0.44858  1.0000
  C   C240      1.0  0.78747  0.13750  0.45715  1.0000
  H   H36       1.0  0.78594  0.14646  0.50984  1.0000
  C   C241      1.0  0.32306  0.12969  0.43801  1.0000
  C   C242      1.0  0.36586  0.13046  0.43306  1.0000
  N   N193      1.0  0.36107  0.14258  0.49452  1.0000
  C   C243      1.0  0.34060  0.14191  0.50384  1.0000
  C   C244      1.0  0.33983  0.15486  0.56809  1.0000
  N   N194      1.0  0.33926  0.16637  0.62449  1.0000
  C   C245      1.0  0.81523  0.68782  0.43593  1.0000
  C   C246      1.0  0.77318  0.64506  0.43118  1.0000
  N   N195      1.0  0.79009  0.64984  0.49263  1.0000
  C   C247      1.0  0.80990  0.67031  0.50189  1.0000
  C   C248      1.0  0.82363  0.67104  0.56600  1.0000
  N   N196      1.0  0.83573  0.67158  0.62228  1.0000
  C   C249      1.0  0.88137  0.19528  0.42783  1.0000
  C   C250      1.0  0.88062  0.23736  0.42748  1.0000
  N   N197      1.0  0.86847  0.22010  0.48764  1.0000
  C   C251      1.0  0.86913  0.20025  0.49481  1.0000
  C   C252      1.0  0.85603  0.18614  0.55788  1.0000
  N   N198      1.0  0.84438  0.17371  0.61322  1.0000
  C   C253      1.0  0.69011  0.87909  0.43703  1.0000
  C   C254      1.0  0.64735  0.87843  0.43256  1.0000
  N   N199      1.0  0.65212  0.86623  0.49372  1.0000
  C   C255      1.0  0.67260  0.86690  0.50299  1.0000
  C   C256      1.0  0.67326  0.85377  0.56673  1.0000
  N   N200      1.0  0.67375  0.84211  0.62269  1.0000
  C   C257      1.0  0.19767  0.32074  0.43580  1.0000
  C   C258      1.0  0.23971  0.36351  0.43153  1.0000
  N   N201      1.0  0.22274  0.35867  0.49277  1.0000
  C   C259      1.0  0.20295  0.33818  0.50195  1.0000
  C   C260      1.0  0.18912  0.33746  0.56565  1.0000
  N   N202      1.0  0.17694  0.33692  0.62156  1.0000
  C   C261      1.0  0.13170  0.81319  0.43290  1.0000
  C   C262      1.0  0.13260  0.77123  0.42975  1.0000
  N   N203      1.0  0.14467  0.78825  0.49082  1.0000
  C   C263      1.0  0.14392  0.80803  0.49926  1.0000
  C   C264      1.0  0.15686  0.82192  0.56313  1.0000
  N   N204      1.0  0.16836  0.83417  0.61917  1.0000
  C   C265      1.0  0.19989  0.43450  0.41849  1.0000
  C   C266      1.0  0.24177  0.43337  0.42037  1.0000
  N   N205      1.0  0.22564  0.42388  0.48670  1.0000
  C   C267      1.0  0.20601  0.42503  0.49232  1.0000
  C   C268      1.0  0.19306  0.41515  0.56256  1.0000
  N   N206      1.0  0.18181  0.40659  0.62496  1.0000
  C   C269      1.0  0.57632  0.76777  0.41807  1.0000
  C   C270      1.0  0.57742  0.81073  0.42050  1.0000
  N   N207      1.0  0.58684  0.80403  0.48688  1.0000
  C   C271      1.0  0.58571  0.78325  0.49224  1.0000
  C   C272      1.0  0.59550  0.78009  0.56260  1.0000
  N   N208      1.0  0.60396  0.77732  0.62511  1.0000
  C   C273      1.0  0.24327  0.81097  0.41798  1.0000
  C   C274      1.0  0.20036  0.76902  0.42062  1.0000
  N   N209      1.0  0.20693  0.78529  0.48643  1.0000
  C   C275      1.0  0.22767  0.80498  0.49174  1.0000
  C   C276      1.0  0.23067  0.81804  0.56160  1.0000
  N   N210      1.0  0.23331  0.82938  0.62367  1.0000
  C   C277      1.0  0.81284  0.57408  0.41806  1.0000
  C   C278      1.0  0.77084  0.57502  0.42019  1.0000
  N   N211      1.0  0.78698  0.58453  0.48649  1.0000
  C   C279      1.0  0.80667  0.58346  0.49207  1.0000
  C   C280      1.0  0.81955  0.59332  0.56250  1.0000
  N   N212      1.0  0.83073  0.60184  0.62510  1.0000
  C   C281      1.0  0.43681  0.24113  0.41934  1.0000
  C   C282      1.0  0.43583  0.19817  0.42124  1.0000
  N   N213      1.0  0.42638  0.20482  0.48768  1.0000
  C   C283      1.0  0.42749  0.22558  0.49340  1.0000
  C   C284      1.0  0.41763  0.22859  0.56385  1.0000
  N   N214      1.0  0.40911  0.23125  0.62646  1.0000
  C   C285      1.0  0.77010  0.19752  0.41814  1.0000
  C   C286      1.0  0.81292  0.23956  0.42164  1.0000
  N   N215      1.0  0.80645  0.22306  0.48648  1.0000
  C   C287      1.0  0.78575  0.20332  0.49156  1.0000
  C   C288      1.0  0.78297  0.19000  0.56026  1.0000
  N   N216      1.0  0.78055  0.17844  0.62139  1.0000
  N   N217      1.0  0.14185  0.45848  0.31104  1.0000
  C   C289      1.0  0.13149  0.47167  0.30580  1.0000
  H   H37       1.0  0.14078  0.48883  0.32293  1.0000
  N   N218      1.0  0.55223  0.68567  0.31096  1.0000
  C   C290      1.0  0.53902  0.66212  0.30545  1.0000
  H   H38       1.0  0.52185  0.65425  0.32246  1.0000
  N   N219      1.0  0.32542  0.86894  0.31170  1.0000
  C   C291      1.0  0.34898  0.87931  0.30660  1.0000
  H   H39       1.0  0.35685  0.87003  0.32395  1.0000
  N   N220      1.0  0.87107  0.55020  0.31219  1.0000
  C   C292      1.0  0.88145  0.53703  0.30680  1.0000
  H   H40       1.0  0.87213  0.51984  0.32354  1.0000
  N   N221      1.0  0.46066  0.32316  0.31207  1.0000
  C   C293      1.0  0.47383  0.34670  0.30636  1.0000
  H   H41       1.0  0.49106  0.35460  0.32244  1.0000
  N   N222      1.0  0.68787  0.14005  0.31089  1.0000
  C   C294      1.0  0.66430  0.12969  0.30665  1.0000
  H   H42       1.0  0.65646  0.13892  0.32509  1.0000
  C   C295      1.0  0.43414  0.12582  0.32996  1.0000
  C   C296      1.0  0.46031  0.10284  0.31507  1.0000
  N   N223      1.0  0.43667  0.09125  0.31280  1.0000
  C   C297      1.0  0.42321  0.10130  0.31847  1.0000
  C   C298      1.0  0.40091  0.08702  0.31685  1.0000
  N   N224      1.0  0.38124  0.07429  0.31565  1.0000
  C   C299      1.0  0.70019  0.57674  0.32879  1.0000
  C   C300      1.0  0.65103  0.55061  0.31369  1.0000
  N   N225      1.0  0.66311  0.57425  0.31166  1.0000
  C   C301      1.0  0.68661  0.58769  0.31743  1.0000
  C   C302      1.0  0.69464  0.60999  0.31606  1.0000
  N   N226      1.0  0.70158  0.62966  0.31508  1.0000
  C   C303      1.0  0.88502  0.31057  0.32988  1.0000
  C   C304      1.0  0.90796  0.35975  0.31589  1.0000
  N   N227      1.0  0.91955  0.34771  0.31278  1.0000
  C   C305      1.0  0.90953  0.32421  0.31804  1.0000
  C   C306      1.0  0.92383  0.31622  0.31572  1.0000
  N   N228      1.0  0.93659  0.30932  0.31391  1.0000
  C   C307      1.0  0.57912  0.88314  0.32956  1.0000
  C   C308      1.0  0.55299  0.90618  0.31500  1.0000
  N   N229      1.0  0.57663  0.91775  0.31293  1.0000
  C   C309      1.0  0.59006  0.90768  0.31855  1.0000
  C   C310      1.0  0.61236  0.92194  0.31706  1.0000
  N   N230      1.0  0.63204  0.93466  0.31599  1.0000
  C   C311      1.0  0.31260  0.43193  0.32908  1.0000
  C   C312      1.0  0.36176  0.45816  0.31426  1.0000
  N   N231      1.0  0.34973  0.43452  0.31203  1.0000
  C   C313      1.0  0.32623  0.42103  0.31776  1.0000
  C   C314      1.0  0.31824  0.39874  0.31607  1.0000
  N   N232      1.0  0.31132  0.37908  0.31482  1.0000
  C   C315      1.0  0.12807  0.69816  0.32948  1.0000
  C   C316      1.0  0.10505  0.64899  0.31517  1.0000
  N   N233      1.0  0.09349  0.66106  0.31256  1.0000
  C   C317      1.0  0.10354  0.68456  0.31806  1.0000
  C   C318      1.0  0.08928  0.69259  0.31599  1.0000
  N   N234      1.0  0.07655  0.69953  0.31439  1.0000
  C   C319      1.0  0.11027  0.19998  0.29956  1.0000
  C   C320      1.0  0.13146  0.24905  0.31320  1.0000
  N   N235      1.0  0.14363  0.23769  0.32221  1.0000
  C   C321      1.0  0.13457  0.21434  0.31464  1.0000
  C   C322      1.0  0.14916  0.20702  0.32829  1.0000
  N   N236      1.0  0.16229  0.20090  0.34106  1.0000
  C   C323      1.0  0.81083  0.91222  0.30081  1.0000
  C   C324      1.0  0.76176  0.88443  0.31492  1.0000
  N   N237      1.0  0.77318  0.90796  0.32397  1.0000
  C   C325      1.0  0.79653  0.92221  0.31614  1.0000
  C   C326      1.0  0.80391  0.94412  0.33009  1.0000
  N   N238      1.0  0.81011  0.96338  0.34315  1.0000
  C   C327      1.0  0.09855  0.90066  0.29648  1.0000
  C   C328      1.0  0.12635  0.87939  0.30975  1.0000
  N   N239      1.0  0.10283  0.86726  0.31892  1.0000
  C   C329      1.0  0.08857  0.87635  0.31144  1.0000
  C   C330      1.0  0.06668  0.86180  0.32564  1.0000
  N   N240      1.0  0.04743  0.84871  0.33892  1.0000
  C   C331      1.0  0.90291  0.80860  0.30054  1.0000
  C   C332      1.0  0.88168  0.75954  0.31482  1.0000
  N   N241      1.0  0.86953  0.77093  0.32342  1.0000
  C   C333      1.0  0.87860  0.79427  0.31547  1.0000
  C   C334      1.0  0.86402  0.80161  0.32900  1.0000
  N   N242      1.0  0.85089  0.80774  0.34167  1.0000
  C   C335      1.0  0.20233  0.09637  0.30094  1.0000
  C   C336      1.0  0.25137  0.12425  0.31575  1.0000
  N   N243      1.0  0.24002  0.10070  0.32392  1.0000
  C   C337      1.0  0.21669  0.08641  0.31565  1.0000
  C   C338      1.0  0.20936  0.06448  0.32875  1.0000
  N   N244      1.0  0.20322  0.04520  0.34101  1.0000
  C   C339      1.0  0.91473  0.10794  0.29316  1.0000
  C   C340      1.0  0.88699  0.12932  0.30396  1.0000
  N   N245      1.0  0.91046  0.14136  0.31504  1.0000
  C   C341      1.0  0.92470  0.13222  0.30886  1.0000
  C   C342      1.0  0.94652  0.14667  0.32487  1.0000
  N   N246      1.0  0.96569  0.15966  0.33982  1.0000
  N   N247      1.0  0.09038  0.53558  0.39823  1.0000
  C   C343      1.0  0.09119  0.55625  0.40780  1.0000
  H   H43       1.0  0.08346  0.55870  0.46290  1.0000
  N   N248      1.0  0.47504  0.55716  0.39699  1.0000
  C   C344      1.0  0.45438  0.53727  0.40661  1.0000
  H   H44       1.0  0.45191  0.52717  0.46195  1.0000
  N   N249      1.0  0.45396  0.92037  0.39847  1.0000
  C   C345      1.0  0.47387  0.91964  0.40795  1.0000
  H   H45       1.0  0.48390  0.92707  0.46364  1.0000
  N   N250      1.0  0.92246  0.47311  0.39908  1.0000
  C   C346      1.0  0.92164  0.45243  0.40866  1.0000
  H   H46       1.0  0.92913  0.44984  0.46421  1.0000
  N   N251      1.0  0.53782  0.45172  0.39711  1.0000
  C   C347      1.0  0.55849  0.47161  0.40639  1.0000
  H   H47       1.0  0.56112  0.48170  0.46189  1.0000
  N   N252      1.0  0.55916  0.08843  0.39925  1.0000
  C   C348      1.0  0.53931  0.08927  0.40871  1.0000
  H   H48       1.0  0.52908  0.08150  0.46364  1.0000
  C   C349      1.0  0.98269  0.43158  0.32465  1.0000
  C   C350      1.0  0.03169  0.45433  0.31614  1.0000
  N   N253      1.0  0.02012  0.46544  0.34120  1.0000
  C   C351      1.0  0.99675  0.45553  0.34709  1.0000
  C   C352      1.0  0.98939  0.46927  0.37520  1.0000
  N   N254      1.0  0.98269  0.48119  0.40030  1.0000
  C   C353      1.0  0.57917  0.55346  0.32252  1.0000
  C   C354      1.0  0.55636  0.57966  0.31437  1.0000
  N   N255      1.0  0.54528  0.55697  0.33946  1.0000
  C   C355      1.0  0.55523  0.54355  0.34521  1.0000
  C   C356      1.0  0.54153  0.52245  0.37336  1.0000
  N   N256      1.0  0.52965  0.50382  0.39851  1.0000
  C   C357      1.0  0.45754  0.02816  0.32376  1.0000
  C   C358      1.0  0.43136  0.97915  0.31547  1.0000
  N   N257      1.0  0.45407  0.99077  0.34010  1.0000
  C   C359      1.0  0.46749  0.01414  0.34588  1.0000
  C   C360      1.0  0.48864  0.02152  0.37338  1.0000
  N   N258      1.0  0.50733  0.02826  0.39791  1.0000
  C   C361      1.0  0.03029  0.57718  0.32411  1.0000
  C   C362      1.0  0.98128  0.55443  0.31593  1.0000
  N   N259      1.0  0.99287  0.54331  0.34076  1.0000
  C   C363      1.0  0.01624  0.55323  0.34650  1.0000
  C   C364      1.0  0.02359  0.53946  0.37430  1.0000
  N   N260      1.0  0.03030  0.52751  0.39910  1.0000
  C   C365      1.0  0.43366  0.45539  0.32257  1.0000
  C   C366      1.0  0.45643  0.42915  0.31456  1.0000
  N   N261      1.0  0.46756  0.45189  0.33888  1.0000
  C   C367      1.0  0.45764  0.46533  0.34452  1.0000
  C   C368      1.0  0.47143  0.48651  0.37177  1.0000
  N   N262      1.0  0.48338  0.50520  0.39609  1.0000
  C   C369      1.0  0.55583  0.98089  0.32473  1.0000
  C   C370      1.0  0.58200  0.02990  0.31661  1.0000
  N   N263      1.0  0.55934  0.01827  0.34200  1.0000
  C   C371      1.0  0.54593  0.99490  0.34774  1.0000
  C   C372      1.0  0.52485  0.98749  0.37619  1.0000
  N   N264      1.0  0.50624  0.98074  0.40157  1.0000
  N   N265      1.0  0.14212  0.12097  0.29426  1.0000
  C   C373      1.0  0.13301  0.13531  0.29445  1.0000
  H   H49       1.0  0.14397  0.15284  0.29572  1.0000
  N   N266      1.0  0.88996  0.02303  0.29129  1.0000
  C   C374      1.0  0.87559  0.99959  0.29214  1.0000
  H   H50       1.0  0.85806  0.99305  0.29272  1.0000
  N   N267      1.0  0.98777  0.86888  0.29250  1.0000
  C   C375      1.0  0.01121  0.87801  0.29227  1.0000
  H   H51       1.0  0.01779  0.86705  0.29323  1.0000
  N   N268      1.0  0.87107  0.88757  0.29451  1.0000
  C   C376      1.0  0.88019  0.87325  0.29472  1.0000
  H   H52       1.0  0.86923  0.85572  0.29613  1.0000
  N   N269      1.0  0.12323  0.98551  0.29221  1.0000
  C   C377      1.0  0.13759  0.00895  0.29293  1.0000
  H   H53       1.0  0.15512  0.01550  0.29427  1.0000
  N   N270      1.0  0.02543  0.13966  0.29166  1.0000
  C   C378      1.0  0.00199  0.13052  0.29125  1.0000
  H   H54       1.0  0.99540  0.14147  0.29137  1.0000
