data_image0
_chemical_formula_structural       CNC2NC4NC18H14C2NC16H12C3NC2NC5NC4NC18H14CNC16H12C11H11CNCNC4NC16H13C5NH3C4NH3C3NH3C3NH3C3NH3C3NH3C5NH3C3NH3C5NH3C5NH3C5NH3C3NH3C7NC12H12C2NC3NC3NC18H14C12H12C3NC3NC3NC18H14C3NC3NC2NC5NC20H15C8NC14H13NC5H3CNC5H3C2NC5H3C2NC5H3C2NC5H3C2NC5H3NC5H3C2NC5H3NC5H3NC5H3NC5H3C2NC5H3
_chemical_formula_sum              "C384 N48 H228"
_cell_length_a       68.6101
_cell_length_b       68.6101
_cell_length_c       14.9839
_cell_angle_alpha    90.0014
_cell_angle_beta     89.9712
_cell_angle_gamma    120

_space_group_name_H-M_alt    "P 1"
_space_group_IT_number       1

loop_
  _space_group_symop_operation_xyz
  'x, y, z'

loop_
  _atom_site_type_symbol
  _atom_site_label
  _atom_site_symmetry_multiplicity
  _atom_site_fract_x
  _atom_site_fract_y
  _atom_site_fract_z
  _atom_site_occupancy
  C   C1        1.0  0.27461  0.51245  0.33436  1.0000
  N   N1        1.0  0.26718  0.47747  0.33436  1.0000
  C   C2        1.0  0.28996  0.49013  0.33336  1.0000
  C   C3        1.0  0.30648  0.48335  0.33235  1.0000
  N   N2        1.0  0.28107  0.44175  0.33317  1.0000
  C   C4        1.0  0.28266  0.42289  0.33354  1.0000
  C   C5        1.0  0.30567  0.43020  0.33452  1.0000
  C   C6        1.0  0.31728  0.45340  0.33286  1.0000
  C   C7        1.0  0.26489  0.40013  0.33342  1.0000
  N   N3        1.0  0.23142  0.40593  0.33441  1.0000
  C   C8        1.0  0.20864  0.39327  0.33485  1.0000
  C   C9        1.0  0.22400  0.37095  0.33351  1.0000
  C   C10       1.0  0.21598  0.46059  0.33572  1.0000
  C   C11       1.0  0.23373  0.48332  0.33640  1.0000
  C   C12       1.0  0.22780  0.50053  0.33851  1.0000
  C   C13       1.0  0.21914  0.50556  0.26194  1.0000
  C   C14       1.0  0.21448  0.52334  0.26296  1.0000
  C   C15       1.0  0.21879  0.53707  0.33953  1.0000
  C   C16       1.0  0.15864  0.37007  0.25919  1.0000
  C   C17       1.0  0.13550  0.35411  0.25882  1.0000
  C   C18       1.0  0.27101  0.38305  0.33267  1.0000
  C   C19       1.0  0.28613  0.35092  0.33472  1.0000
  C   C20       1.0  0.28843  0.36389  0.25752  1.0000
  C   C21       1.0  0.28077  0.37945  0.25599  1.0000
  C   C22       1.0  0.32963  0.50057  0.33031  1.0000
  C   C23       1.0  0.33902  0.51362  0.25266  1.0000
  C   C24       1.0  0.36128  0.53172  0.25271  1.0000
  C   C25       1.0  0.37517  0.53712  0.32941  1.0000
  H   H1        1.0  0.36690  0.54143  0.19649  1.0000
  H   H2        1.0  0.32941  0.51059  0.19652  1.0000
  H   H3        1.0  0.27343  0.52671  0.33392  1.0000
  H   H4        1.0  0.25911  0.46132  0.33437  1.0000
  H   H5        1.0  0.23950  0.42208  0.33442  1.0000
  H   H6        1.0  0.33442  0.46313  0.33256  1.0000
  H   H7        1.0  0.31315  0.42053  0.33582  1.0000
  H   H8        1.0  0.28316  0.38879  0.19951  1.0000
  H   H9        1.0  0.29651  0.36283  0.20200  1.0000
  H   H10       1.0  0.22523  0.35672  0.33254  1.0000
  H   H11       1.0  0.16787  0.37232  0.20252  1.0000
  H   H12       1.0  0.12882  0.34496  0.20187  1.0000
  H   H13       1.0  0.20798  0.52619  0.20630  1.0000
  H   H14       1.0  0.21635  0.49641  0.20463  1.0000
  C   C26       1.0  0.54473  0.76245  0.33472  1.0000
  C   C27       1.0  0.56705  0.80011  0.33378  1.0000
  N   N4        1.0  0.61543  0.83960  0.33368  1.0000
  C   C28       1.0  0.63429  0.86005  0.33403  1.0000
  C   C29       1.0  0.62698  0.87576  0.33504  1.0000
  C   C30       1.0  0.60378  0.86416  0.33344  1.0000
  C   C31       1.0  0.65705  0.86504  0.33385  1.0000
  C   C32       1.0  0.66392  0.81565  0.33523  1.0000
  C   C33       1.0  0.68623  0.85333  0.33384  1.0000
  C   C34       1.0  0.59659  0.75567  0.33616  1.0000
  C   C35       1.0  0.55165  0.71387  0.26237  1.0000
  C   C36       1.0  0.53387  0.69143  0.26338  1.0000
  C   C37       1.0  0.68713  0.78885  0.25958  1.0000
  C   C38       1.0  0.70309  0.78168  0.25922  1.0000
  C   C39       1.0  0.67413  0.88825  0.33308  1.0000
  C   C40       1.0  0.69332  0.92481  0.25782  1.0000
  C   C41       1.0  0.67775  0.90159  0.25635  1.0000
  C   C42       1.0  0.54358  0.82568  0.25312  1.0000
  C   C43       1.0  0.52550  0.82987  0.25311  1.0000
  H   H15       1.0  0.51582  0.82579  0.19684  1.0000
  H   H16       1.0  0.54665  0.81913  0.19696  1.0000
  H   H17       1.0  0.53047  0.74700  0.33430  1.0000
  H   H18       1.0  0.59406  0.87158  0.33308  1.0000
  H   H19       1.0  0.63665  0.89290  0.33629  1.0000
  H   H20       1.0  0.66840  0.89463  0.19991  1.0000
  H   H21       1.0  0.69437  0.93396  0.20232  1.0000
  H   H22       1.0  0.70047  0.86880  0.33300  1.0000
  H   H23       1.0  0.68488  0.79582  0.20290  1.0000
  H   H24       1.0  0.71225  0.78414  0.20224  1.0000
  H   H25       1.0  0.53103  0.68208  0.20673  1.0000
  H   H26       1.0  0.56081  0.72022  0.20505  1.0000
  C   C44       1.0  0.27465  0.76248  0.33393  1.0000
  C   C45       1.0  0.29473  0.78257  0.33395  1.0000
  C   C46       1.0  0.28997  0.80014  0.33505  1.0000
  N   N5        1.0  0.26719  0.79001  0.33402  1.0000
  C   C47       1.0  0.25706  0.76722  0.33296  1.0000
  C   C48       1.0  0.23376  0.75070  0.33200  1.0000
  N   N6        1.0  0.21758  0.77611  0.33277  1.0000
  C   C49       1.0  0.19713  0.77453  0.33310  1.0000
  C   C50       1.0  0.18142  0.75151  0.33414  1.0000
  C   C51       1.0  0.19301  0.73991  0.33256  1.0000
  C   C52       1.0  0.19214  0.79230  0.33292  1.0000
  C   C53       1.0  0.20861  0.81562  0.33342  1.0000
  N   N7        1.0  0.23140  0.82576  0.33387  1.0000
  C   C54       1.0  0.24153  0.84855  0.33432  1.0000
  C   C55       1.0  0.22395  0.85329  0.33469  1.0000
  C   C56       1.0  0.20386  0.83319  0.33292  1.0000
  C   C57       1.0  0.26484  0.86503  0.33491  1.0000
  N   N8        1.0  0.28105  0.83961  0.33514  1.0000
  C   C58       1.0  0.30151  0.84121  0.33544  1.0000
  C   C59       1.0  0.30648  0.82344  0.33613  1.0000
  C   C60       1.0  0.32963  0.82938  0.33836  1.0000
  C   C61       1.0  0.34335  0.83807  0.26187  1.0000
  C   C62       1.0  0.36579  0.84273  0.26300  1.0000
  C   C63       1.0  0.37518  0.83838  0.33961  1.0000
  C   C64       1.0  0.27096  0.88823  0.33579  1.0000
  C   C65       1.0  0.26838  0.89858  0.25877  1.0000
  C   C66       1.0  0.27554  0.92172  0.25847  1.0000
  C   C67       1.0  0.28607  0.93547  0.33404  1.0000
  C   C68       1.0  0.16894  0.78618  0.33220  1.0000
  C   C69       1.0  0.12170  0.77107  0.33426  1.0000
  C   C70       1.0  0.13238  0.76879  0.25703  1.0000
  C   C71       1.0  0.15560  0.77643  0.25552  1.0000
  C   C72       1.0  0.22784  0.72756  0.32997  1.0000
  C   C73       1.0  0.23151  0.71818  0.25230  1.0000
  C   C74       1.0  0.22736  0.69592  0.25241  1.0000
  C   C75       1.0  0.21884  0.68202  0.32909  1.0000
  H   H27       1.0  0.23144  0.69031  0.19615  1.0000
  H   H28       1.0  0.23810  0.72780  0.19619  1.0000
  H   H29       1.0  0.31017  0.78375  0.33358  1.0000
  H   H30       1.0  0.25911  0.79808  0.33413  1.0000
  H   H31       1.0  0.23948  0.81769  0.33392  1.0000
  H   H32       1.0  0.18560  0.72277  0.33222  1.0000
  H   H33       1.0  0.16428  0.74404  0.33539  1.0000
  H   H34       1.0  0.16255  0.77405  0.19905  1.0000
  H   H35       1.0  0.12323  0.76069  0.20158  1.0000
  H   H36       1.0  0.18839  0.83196  0.33202  1.0000
  H   H37       1.0  0.26143  0.88937  0.20205  1.0000
  H   H38       1.0  0.27311  0.92842  0.20150  1.0000
  H   H39       1.0  0.37518  0.84926  0.20640  1.0000
  H   H40       1.0  0.33703  0.84089  0.20452  1.0000
  C   C76       1.0  0.78609  0.54818  0.33397  1.0000
  N   N9        1.0  0.79498  0.59656  0.33389  1.0000
  C   C77       1.0  0.79339  0.61542  0.33424  1.0000
  C   C78       1.0  0.77038  0.60812  0.33523  1.0000
  C   C79       1.0  0.75878  0.58492  0.33364  1.0000
  C   C80       1.0  0.81117  0.63819  0.33405  1.0000
  C   C81       1.0  0.86741  0.64504  0.33530  1.0000
  C   C82       1.0  0.85205  0.66736  0.33401  1.0000
  C   C83       1.0  0.86007  0.57772  0.33627  1.0000
  C   C84       1.0  0.85693  0.53276  0.26251  1.0000
  C   C85       1.0  0.86159  0.51498  0.26354  1.0000
  C   C86       1.0  0.91742  0.66823  0.25946  1.0000
  C   C87       1.0  0.94055  0.68419  0.25899  1.0000
  C   C88       1.0  0.80504  0.65527  0.33327  1.0000
  C   C89       1.0  0.78765  0.67443  0.25804  1.0000
  C   C90       1.0  0.79534  0.65888  0.25652  1.0000
  C   C91       1.0  0.73705  0.52471  0.25334  1.0000
  C   C92       1.0  0.71479  0.50661  0.25339  1.0000
  H   H41       1.0  0.70918  0.49691  0.19716  1.0000
  H   H42       1.0  0.74667  0.52775  0.19721  1.0000
  H   H43       1.0  0.80261  0.51160  0.33448  1.0000
  H   H44       1.0  0.74163  0.57519  0.33317  1.0000
  H   H45       1.0  0.76291  0.61779  0.33640  1.0000
  H   H46       1.0  0.79293  0.64952  0.20011  1.0000
  H   H47       1.0  0.77958  0.67549  0.20253  1.0000
  H   H48       1.0  0.85083  0.68160  0.33313  1.0000
  H   H49       1.0  0.90819  0.66596  0.20282  1.0000
  H   H50       1.0  0.94724  0.69333  0.20198  1.0000
  H   H51       1.0  0.86811  0.51214  0.20689  1.0000
  H   H52       1.0  0.85974  0.54191  0.20519  1.0000
  C   C93       1.0  0.44176  0.17825  0.33449  1.0000
  C   C94       1.0  0.44907  0.16254  0.33548  1.0000
  C   C95       1.0  0.47227  0.17414  0.33388  1.0000
  C   C96       1.0  0.52443  0.32445  0.26297  1.0000
  C   C97       1.0  0.54221  0.34689  0.26398  1.0000
  C   C98       1.0  0.38896  0.24946  0.25984  1.0000
  C   C99       1.0  0.37300  0.25664  0.25936  1.0000
  C   C100      1.0  0.38278  0.11352  0.25805  1.0000
  C   C101      1.0  0.39835  0.13674  0.25667  1.0000
  C   C102      1.0  0.53249  0.21264  0.25367  1.0000
  C   C103      1.0  0.55058  0.20847  0.25367  1.0000
  H   H53       1.0  0.56029  0.21257  0.19743  1.0000
  H   H54       1.0  0.52945  0.21922  0.19755  1.0000
  H   H55       1.0  0.54558  0.29131  0.33499  1.0000
  H   H56       1.0  0.48200  0.16673  0.33359  1.0000
  H   H57       1.0  0.40771  0.14372  0.20024  1.0000
  H   H58       1.0  0.38173  0.10440  0.20248  1.0000
  H   H59       1.0  0.37559  0.16951  0.33330  1.0000
  H   H60       1.0  0.39124  0.24249  0.20320  1.0000
  H   H61       1.0  0.36387  0.25417  0.20236  1.0000
  H   H62       1.0  0.54507  0.35624  0.20731  1.0000
  H   H63       1.0  0.51529  0.31810  0.20565  1.0000
  C   C104      1.0  0.78132  0.25574  0.33466  1.0000
  N   N10       1.0  0.80886  0.24830  0.33468  1.0000
  C   C105      1.0  0.81898  0.27109  0.33363  1.0000
  N   N11       1.0  0.85847  0.26220  0.33346  1.0000
  C   C106      1.0  0.87892  0.26379  0.33381  1.0000
  C   C107      1.0  0.89463  0.28680  0.33480  1.0000
  C   C108      1.0  0.88303  0.29840  0.33320  1.0000
  C   C109      1.0  0.88391  0.24601  0.33363  1.0000
  N   N12       1.0  0.84465  0.21255  0.33458  1.0000
  C   C110      1.0  0.83452  0.18976  0.33504  1.0000
  C   C111      1.0  0.87220  0.20513  0.33362  1.0000
  C   C112      1.0  0.77454  0.19710  0.33611  1.0000
  C   C113      1.0  0.76957  0.21486  0.33680  1.0000
  C   C114      1.0  0.73272  0.20025  0.26251  1.0000
  C   C115      1.0  0.71028  0.19559  0.26364  1.0000
  C   C116      1.0  0.70087  0.19992  0.34025  1.0000
  C   C117      1.0  0.80771  0.13975  0.25940  1.0000
  C   C118      1.0  0.80054  0.11662  0.25902  1.0000
  C   C119      1.0  0.90711  0.25214  0.33284  1.0000
  C   C120      1.0  0.95435  0.26725  0.33479  1.0000
  C   C121      1.0  0.94368  0.26953  0.25758  1.0000
  C   C122      1.0  0.92046  0.26187  0.25611  1.0000
  C   C123      1.0  0.84821  0.31075  0.33062  1.0000
  C   C124      1.0  0.84454  0.32014  0.25298  1.0000
  C   C125      1.0  0.84873  0.34241  0.25303  1.0000
  H   H64       1.0  0.84465  0.34803  0.19679  1.0000
  H   H65       1.0  0.83800  0.31054  0.19682  1.0000
  H   H66       1.0  0.76587  0.25455  0.33429  1.0000
  H   H67       1.0  0.81694  0.24023  0.33474  1.0000
  H   H68       1.0  0.89045  0.31554  0.33283  1.0000
  H   H69       1.0  0.91177  0.29427  0.33604  1.0000
  H   H70       1.0  0.91351  0.26427  0.19969  1.0000
  H   H71       1.0  0.95283  0.27763  0.20210  1.0000
  H   H72       1.0  0.88766  0.20635  0.33276  1.0000
  H   H73       1.0  0.81469  0.14899  0.20272  1.0000
  H   H74       1.0  0.80301  0.10994  0.20204  1.0000
  H   H75       1.0  0.70092  0.18907  0.20703  1.0000
  H   H76       1.0  0.73906  0.19744  0.20516  1.0000
  C   C126      1.0  0.21569  0.65967  0.33004  1.0000
  C   C127      1.0  0.20921  0.64593  0.25268  1.0000
  C   C128      1.0  0.20771  0.62471  0.25302  1.0000
  C   C129      1.0  0.21220  0.61657  0.33240  1.0000
  C   C130      1.0  0.21977  0.56957  0.26096  1.0000
  N   N13       1.0  0.21804  0.58841  0.26271  1.0000
  H   H77       1.0  0.22511  0.56595  0.20294  1.0000
  H   H78       1.0  0.20549  0.65121  0.19465  1.0000
  H   H79       1.0  0.20319  0.61533  0.19577  1.0000
  C   C131      1.0  0.41127  0.56357  0.25301  1.0000
  C   C132      1.0  0.43249  0.58329  0.25337  1.0000
  C   C133      1.0  0.44061  0.59593  0.33274  1.0000
  C   C134      1.0  0.48763  0.65050  0.26133  1.0000
  N   N14       1.0  0.46879  0.62993  0.26307  1.0000
  H   H80       1.0  0.49128  0.65945  0.20330  1.0000
  H   H81       1.0  0.40601  0.55457  0.19498  1.0000
  H   H82       1.0  0.44188  0.58815  0.19612  1.0000
  C   C135      1.0  0.49367  0.84803  0.25330  1.0000
  C   C136      1.0  0.47395  0.84953  0.25357  1.0000
  C   C137      1.0  0.40674  0.83744  0.26119  1.0000
  N   N15       1.0  0.42731  0.83917  0.26304  1.0000
  H   H83       1.0  0.39781  0.83214  0.20310  1.0000
  H   H84       1.0  0.50269  0.85177  0.19530  1.0000
  H   H85       1.0  0.46911  0.85406  0.19629  1.0000
  C   C138      1.0  0.86688  0.39240  0.25330  1.0000
  C   C139      1.0  0.86838  0.41362  0.25365  1.0000
  C   C140      1.0  0.85630  0.46875  0.26156  1.0000
  N   N16       1.0  0.85804  0.44991  0.26332  1.0000
  H   H86       1.0  0.85099  0.47238  0.20352  1.0000
  H   H87       1.0  0.87061  0.38712  0.19527  1.0000
  H   H88       1.0  0.87292  0.42300  0.19638  1.0000
  C   C141      1.0  0.66480  0.47476  0.25368  1.0000
  C   C142      1.0  0.64358  0.45504  0.25403  1.0000
  C   C143      1.0  0.58845  0.38783  0.26197  1.0000
  N   N17       1.0  0.60728  0.40840  0.26372  1.0000
  H   H89       1.0  0.58483  0.37887  0.20396  1.0000
  H   H90       1.0  0.67008  0.48377  0.19564  1.0000
  H   H91       1.0  0.63421  0.45019  0.19677  1.0000
  C   C144      1.0  0.58242  0.19032  0.25386  1.0000
  C   C145      1.0  0.60214  0.18882  0.25414  1.0000
  C   C146      1.0  0.66935  0.20089  0.26180  1.0000
  N   N18       1.0  0.64877  0.19915  0.26363  1.0000
  H   H92       1.0  0.67829  0.20620  0.20372  1.0000
  H   H93       1.0  0.57341  0.18658  0.19586  1.0000
  H   H94       1.0  0.60698  0.18428  0.19686  1.0000
  C   C147      1.0  0.09777  0.33599  0.33167  1.0000
  C   C148      1.0  0.08511  0.33305  0.25296  1.0000
  C   C149      1.0  0.06151  0.31961  0.25227  1.0000
  C   C150      1.0  0.04996  0.30920  0.33191  1.0000
  C   C151      1.0  0.99076  0.27715  0.26069  1.0000
  N   N19       1.0  0.01356  0.28759  0.26301  1.0000
  H   H95       1.0  0.98300  0.27025  0.20151  1.0000
  H   H96       1.0  0.09282  0.34146  0.19562  1.0000
  H   H97       1.0  0.05294  0.31857  0.19497  1.0000
  C   C152      1.0  0.72419  0.75239  0.25334  1.0000
  C   C153      1.0  0.73765  0.74225  0.25264  1.0000
  C   C154      1.0  0.78007  0.71392  0.26112  1.0000
  N   N20       1.0  0.76964  0.72628  0.26343  1.0000
  H   H98       1.0  0.78698  0.71305  0.20194  1.0000
  H   H99       1.0  0.71574  0.75162  0.19608  1.0000
  H   H100      1.0  0.73864  0.73464  0.19543  1.0000
  C   C155      1.0  0.29511  0.95941  0.33146  1.0000
  C   C156      1.0  0.30485  0.97211  0.25279  1.0000
  C   C157      1.0  0.31498  0.99570  0.25218  1.0000
  C   C158      1.0  0.31609  0.00721  0.33186  1.0000
  C   C159      1.0  0.34327  0.06645  0.26089  1.0000
  N   N21       1.0  0.33092  0.04366  0.26311  1.0000
  H   H101      1.0  0.34419  0.07425  0.20173  1.0000
  H   H102      1.0  0.30562  0.96444  0.19548  1.0000
  H   H103      1.0  0.32259  0.00431  0.19497  1.0000
  C   C160      1.0  0.97828  0.70232  0.33168  1.0000
  C   C161      1.0  0.99094  0.70525  0.25292  1.0000
  C   C162      1.0  0.01454  0.71871  0.25212  1.0000
  C   C163      1.0  0.02608  0.72913  0.33172  1.0000
  C   C164      1.0  0.08529  0.76118  0.26027  1.0000
  N   N22       1.0  0.06250  0.75074  0.26267  1.0000
  H   H104      1.0  0.09306  0.76807  0.20105  1.0000
  H   H105      1.0  0.98324  0.69682  0.19566  1.0000
  H   H106      1.0  0.02312  0.71972  0.19483  1.0000
  C   C165      1.0  0.35486  0.27623  0.33206  1.0000
  C   C166      1.0  0.35194  0.28596  0.25330  1.0000
  C   C167      1.0  0.33850  0.29612  0.25252  1.0000
  C   C168      1.0  0.32807  0.29725  0.33210  1.0000
  C   C169      1.0  0.29604  0.32442  0.26069  1.0000
  N   N23       1.0  0.30648  0.31207  0.26308  1.0000
  H   H107      1.0  0.28916  0.32530  0.20148  1.0000
  H   H108      1.0  0.36037  0.28668  0.19600  1.0000
  H   H109      1.0  0.33748  0.30367  0.19520  1.0000
  C   C170      1.0  0.77124  0.06623  0.25316  1.0000
  C   C171      1.0  0.76112  0.04264  0.25243  1.0000
  C   C172      1.0  0.73280  0.97188  0.26091  1.0000
  N   N24       1.0  0.74516  0.99468  0.26322  1.0000
  H   H110      1.0  0.73193  0.96411  0.20173  1.0000
  H   H111      1.0  0.77049  0.07393  0.19588  1.0000
  H   H112      1.0  0.75352  0.03405  0.19522  1.0000
  C   C173      1.0  0.29470  0.51246  0.33434  1.0000
  C   C174      1.0  0.25704  0.49012  0.33540  1.0000
  C   C175      1.0  0.30153  0.46062  0.33300  1.0000
  C   C176      1.0  0.24157  0.39328  0.33394  1.0000
  C   C177      1.0  0.20389  0.37095  0.33528  1.0000
  C   C178      1.0  0.19216  0.40010  0.33537  1.0000
  C   C179      1.0  0.19713  0.42286  0.33522  1.0000
  N   N25       1.0  0.21757  0.44173  0.33555  1.0000
  C   C180      1.0  0.19299  0.45335  0.33591  1.0000
  C   C181      1.0  0.18141  0.43015  0.33422  1.0000
  C   C182      1.0  0.22728  0.53166  0.41619  1.0000
  C   C183      1.0  0.23148  0.51359  0.41617  1.0000
  C   C184      1.0  0.16895  0.38301  0.33621  1.0000
  C   C185      1.0  0.12171  0.35089  0.33434  1.0000
  C   C186      1.0  0.13239  0.36386  0.41150  1.0000
  C   C187      1.0  0.15562  0.37941  0.41296  1.0000
  C   C188      1.0  0.26838  0.37011  0.40973  1.0000
  C   C189      1.0  0.27555  0.35415  0.41019  1.0000
  C   C190      1.0  0.34328  0.50559  0.40694  1.0000
  C   C191      1.0  0.36572  0.52337  0.40598  1.0000
  H   H113      1.0  0.37505  0.52622  0.46268  1.0000
  H   H114      1.0  0.33691  0.49644  0.46424  1.0000
  H   H115      1.0  0.31014  0.52673  0.33474  1.0000
  H   H116      1.0  0.26139  0.37236  0.46637  1.0000
  H   H117      1.0  0.27307  0.34500  0.46717  1.0000
  H   H118      1.0  0.18843  0.35670  0.33609  1.0000
  H   H119      1.0  0.18557  0.46307  0.33623  1.0000
  H   H120      1.0  0.16427  0.42047  0.33300  1.0000
  H   H121      1.0  0.16258  0.38876  0.46938  1.0000
  H   H122      1.0  0.12325  0.36280  0.46705  1.0000
  H   H123      1.0  0.23804  0.51053  0.47228  1.0000
  H   H124      1.0  0.23139  0.54137  0.47241  1.0000
  C   C192      1.0  0.54473  0.78253  0.33477  1.0000
  C   C193      1.0  0.56706  0.76720  0.33581  1.0000
  N   N26       1.0  0.57971  0.78999  0.33483  1.0000
  C   C194      1.0  0.57383  0.82341  0.33285  1.0000
  C   C195      1.0  0.59656  0.84119  0.33355  1.0000
  C   C196      1.0  0.66390  0.84857  0.33432  1.0000
  N   N27       1.0  0.65126  0.82578  0.33477  1.0000
  C   C197      1.0  0.68624  0.83323  0.33563  1.0000
  C   C198      1.0  0.65708  0.79234  0.33578  1.0000
  C   C199      1.0  0.63433  0.77456  0.33564  1.0000
  N   N28       1.0  0.61545  0.77613  0.33596  1.0000
  C   C200      1.0  0.60383  0.73993  0.33632  1.0000
  C   C201      1.0  0.62704  0.75155  0.33471  1.0000
  C   C202      1.0  0.57386  0.75070  0.33682  1.0000
  C   C203      1.0  0.55665  0.72755  0.33893  1.0000
  C   C204      1.0  0.52011  0.68200  0.33994  1.0000
  C   C205      1.0  0.52549  0.69592  0.41657  1.0000
  C   C206      1.0  0.54359  0.71818  0.41661  1.0000
  C   C207      1.0  0.67418  0.78623  0.33661  1.0000
  C   C208      1.0  0.70631  0.77113  0.33475  1.0000
  C   C209      1.0  0.69334  0.76886  0.41194  1.0000
  C   C210      1.0  0.67777  0.77650  0.41336  1.0000
  C   C211      1.0  0.68706  0.89857  0.41012  1.0000
  C   C212      1.0  0.70302  0.92170  0.41053  1.0000
  C   C213      1.0  0.70626  0.93549  0.33503  1.0000
  C   C214      1.0  0.55661  0.82934  0.33079  1.0000
  C   C215      1.0  0.55157  0.83797  0.40740  1.0000
  C   C216      1.0  0.52008  0.83836  0.32979  1.0000
  C   C217      1.0  0.53379  0.84264  0.40640  1.0000
  H   H125      1.0  0.53093  0.84912  0.46309  1.0000
  H   H126      1.0  0.56070  0.84075  0.46473  1.0000
  H   H127      1.0  0.53046  0.78370  0.33513  1.0000
  H   H128      1.0  0.59586  0.79807  0.33491  1.0000
  H   H129      1.0  0.63511  0.81770  0.33482  1.0000
  H   H130      1.0  0.68479  0.88933  0.46678  1.0000
  H   H131      1.0  0.71216  0.92838  0.46751  1.0000
  H   H132      1.0  0.70048  0.83202  0.33653  1.0000
  H   H133      1.0  0.59412  0.72279  0.33674  1.0000
  H   H134      1.0  0.63672  0.74409  0.33348  1.0000
  H   H135      1.0  0.66841  0.77411  0.46980  1.0000
  H   H136      1.0  0.69438  0.76076  0.46745  1.0000
  H   H137      1.0  0.54661  0.72780  0.47267  1.0000
  H   H138      1.0  0.51577  0.69031  0.47279  1.0000
  C   C218      1.0  0.21599  0.75566  0.33268  1.0000
  C   C219      1.0  0.28263  0.86005  0.33483  1.0000
  C   C220      1.0  0.31725  0.86419  0.33565  1.0000
  C   C221      1.0  0.30564  0.87577  0.33400  1.0000
  C   C222      1.0  0.36122  0.82984  0.41616  1.0000
  C   C223      1.0  0.33896  0.82567  0.41606  1.0000
  C   C224      1.0  0.28832  0.92476  0.41121  1.0000
  C   C225      1.0  0.28064  0.90153  0.41262  1.0000
  C   C226      1.0  0.15861  0.78880  0.40926  1.0000
  C   C227      1.0  0.13548  0.78163  0.40973  1.0000
  C   C228      1.0  0.21918  0.71389  0.40660  1.0000
  C   C229      1.0  0.21453  0.69145  0.40565  1.0000
  H   H139      1.0  0.20802  0.68210  0.46234  1.0000
  H   H140      1.0  0.21638  0.72024  0.46391  1.0000
  H   H141      1.0  0.27347  0.74704  0.33433  1.0000
  H   H142      1.0  0.16785  0.79578  0.46589  1.0000
  H   H143      1.0  0.12880  0.78410  0.46673  1.0000
  H   H144      1.0  0.22517  0.86875  0.33556  1.0000
  H   H145      1.0  0.33440  0.87161  0.33620  1.0000
  H   H146      1.0  0.31310  0.89292  0.33283  1.0000
  H   H147      1.0  0.28303  0.89456  0.46901  1.0000
  H   H148      1.0  0.29638  0.93388  0.46677  1.0000
  H   H149      1.0  0.32931  0.81907  0.47211  1.0000
  H   H150      1.0  0.36680  0.82573  0.47244  1.0000
  C   C230      1.0  0.78134  0.52586  0.33495  1.0000
  C   C231      1.0  0.80143  0.52586  0.33491  1.0000
  C   C232      1.0  0.81901  0.54819  0.33595  1.0000
  N   N29       1.0  0.80887  0.56084  0.33498  1.0000
  C   C233      1.0  0.76957  0.55497  0.33304  1.0000
  C   C234      1.0  0.77453  0.57769  0.33374  1.0000
  C   C235      1.0  0.83448  0.64503  0.33452  1.0000
  N   N30       1.0  0.84463  0.63239  0.33494  1.0000
  C   C236      1.0  0.87216  0.66736  0.33572  1.0000
  C   C237      1.0  0.88389  0.63821  0.33581  1.0000
  C   C238      1.0  0.87892  0.61545  0.33570  1.0000
  N   N31       1.0  0.85847  0.59658  0.33604  1.0000
  C   C239      1.0  0.88305  0.58496  0.33641  1.0000
  C   C240      1.0  0.89464  0.60816  0.33475  1.0000
  C   C241      1.0  0.84231  0.55499  0.33695  1.0000
  C   C242      1.0  0.84824  0.53777  0.33907  1.0000
  C   C243      1.0  0.85725  0.50123  0.34011  1.0000
  C   C244      1.0  0.84872  0.50662  0.41673  1.0000
  C   C245      1.0  0.84455  0.52472  0.41674  1.0000
  C   C246      1.0  0.90710  0.65530  0.33655  1.0000
  C   C247      1.0  0.95434  0.68742  0.33446  1.0000
  C   C248      1.0  0.94366  0.67447  0.41169  1.0000
  C   C249      1.0  0.92043  0.65891  0.41326  1.0000
  C   C250      1.0  0.80765  0.66820  0.41031  1.0000
  C   C251      1.0  0.80047  0.68416  0.41073  1.0000
  C   C252      1.0  0.78993  0.68739  0.33523  1.0000
  C   C253      1.0  0.74642  0.53775  0.33100  1.0000
  C   C254      1.0  0.73274  0.53272  0.40762  1.0000
  C   C255      1.0  0.70088  0.50121  0.33009  1.0000
  C   C256      1.0  0.71030  0.51494  0.40666  1.0000
  H   H151      1.0  0.70095  0.51209  0.46335  1.0000
  H   H152      1.0  0.73909  0.54186  0.46493  1.0000
  H   H153      1.0  0.76590  0.51159  0.33537  1.0000
  H   H154      1.0  0.81694  0.57699  0.33503  1.0000
  H   H155      1.0  0.83656  0.61624  0.33498  1.0000
  H   H156      1.0  0.81461  0.66593  0.46699  1.0000
  H   H157      1.0  0.80293  0.69330  0.46771  1.0000
  H   H158      1.0  0.88762  0.68161  0.33655  1.0000
  H   H159      1.0  0.89047  0.57524  0.33690  1.0000
  H   H160      1.0  0.91178  0.61783  0.33358  1.0000
  H   H161      1.0  0.91347  0.64957  0.46972  1.0000
  H   H162      1.0  0.95280  0.67553  0.46721  1.0000
  H   H163      1.0  0.83796  0.52776  0.47283  1.0000
  H   H164      1.0  0.84462  0.49692  0.47299  1.0000
  C   C257      1.0  0.53133  0.25578  0.33543  1.0000
  C   C258      1.0  0.53132  0.27586  0.33544  1.0000
  C   C259      1.0  0.50899  0.27110  0.33647  1.0000
  N   N32       1.0  0.49634  0.24832  0.33545  1.0000
  C   C260      1.0  0.50900  0.23819  0.33444  1.0000
  C   C261      1.0  0.50222  0.21489  0.33343  1.0000
  C   C262      1.0  0.47949  0.19712  0.33404  1.0000
  N   N33       1.0  0.46062  0.19870  0.33418  1.0000
  C   C263      1.0  0.41900  0.17326  0.33429  1.0000
  C   C264      1.0  0.41215  0.18973  0.33481  1.0000
  N   N34       1.0  0.42480  0.21252  0.33531  1.0000
  C   C265      1.0  0.41214  0.22265  0.33569  1.0000
  C   C266      1.0  0.38982  0.20507  0.33607  1.0000
  C   C267      1.0  0.38983  0.18497  0.33431  1.0000
  C   C268      1.0  0.41897  0.24596  0.33619  1.0000
  C   C269      1.0  0.44173  0.26375  0.33610  1.0000
  N   N35       1.0  0.46060  0.26218  0.33650  1.0000
  C   C270      1.0  0.47946  0.28264  0.33671  1.0000
  C   C271      1.0  0.47222  0.29838  0.33685  1.0000
  C   C272      1.0  0.44902  0.28676  0.33510  1.0000
  C   C273      1.0  0.50219  0.28761  0.33743  1.0000
  C   C274      1.0  0.51940  0.31076  0.33954  1.0000
  C   C275      1.0  0.55594  0.35630  0.34055  1.0000
  C   C276      1.0  0.55052  0.34239  0.41722  1.0000
  C   C277      1.0  0.53244  0.32012  0.41720  1.0000
  C   C278      1.0  0.40188  0.25207  0.33692  1.0000
  C   C279      1.0  0.36976  0.26719  0.33483  1.0000
  C   C280      1.0  0.38270  0.26947  0.41206  1.0000
  C   C281      1.0  0.39825  0.26180  0.41362  1.0000
  C   C282      1.0  0.40192  0.15006  0.33342  1.0000
  C   C283      1.0  0.38895  0.13971  0.41041  1.0000
  C   C284      1.0  0.37299  0.11658  0.41072  1.0000
  C   C285      1.0  0.36978  0.10282  0.33517  1.0000
  C   C286      1.0  0.51944  0.20898  0.33136  1.0000
  C   C287      1.0  0.52447  0.20032  0.40796  1.0000
  C   C288      1.0  0.55598  0.19997  0.33035  1.0000
  C   C289      1.0  0.54224  0.19566  0.40696  1.0000
  H   H165      1.0  0.54510  0.18917  0.46364  1.0000
  H   H166      1.0  0.51531  0.19753  0.46529  1.0000
  H   H167      1.0  0.54559  0.25460  0.33583  1.0000
  H   H168      1.0  0.48019  0.24024  0.33547  1.0000
  H   H169      1.0  0.44095  0.22060  0.33534  1.0000
  H   H170      1.0  0.43940  0.14540  0.33673  1.0000
  H   H171      1.0  0.39119  0.14893  0.46710  1.0000
  H   H172      1.0  0.36382  0.10988  0.46766  1.0000
  H   H173      1.0  0.37557  0.20628  0.33682  1.0000
  H   H174      1.0  0.48193  0.31552  0.33718  1.0000
  H   H175      1.0  0.43934  0.29422  0.33384  1.0000
  H   H176      1.0  0.40758  0.26419  0.47009  1.0000
  H   H177      1.0  0.38162  0.27754  0.46757  1.0000
  H   H178      1.0  0.52939  0.31050  0.47332  1.0000
  H   H179      1.0  0.56023  0.34799  0.47344  1.0000
  C   C290      1.0  0.80140  0.27583  0.33465  1.0000
  C   C291      1.0  0.78608  0.23817  0.33574  1.0000
  C   C292      1.0  0.84229  0.28761  0.33266  1.0000
  C   C293      1.0  0.86005  0.28265  0.33334  1.0000
  C   C294      1.0  0.86744  0.22269  0.33411  1.0000
  C   C295      1.0  0.85210  0.18502  0.33542  1.0000
  C   C296      1.0  0.81121  0.17328  0.33561  1.0000
  C   C297      1.0  0.79342  0.17826  0.33552  1.0000
  N   N36       1.0  0.79500  0.19870  0.33585  1.0000
  C   C298      1.0  0.75880  0.17412  0.33630  1.0000
  C   C299      1.0  0.77041  0.16253  0.33464  1.0000
  C   C300      1.0  0.74642  0.20893  0.33902  1.0000
  C   C301      1.0  0.71480  0.20845  0.41681  1.0000
  C   C302      1.0  0.73706  0.21261  0.41673  1.0000
  C   C303      1.0  0.80510  0.15008  0.33644  1.0000
  C   C304      1.0  0.78999  0.10284  0.33455  1.0000
  C   C305      1.0  0.78772  0.11353  0.41177  1.0000
  C   C306      1.0  0.79536  0.13675  0.41319  1.0000
  C   C307      1.0  0.91743  0.24952  0.40989  1.0000
  C   C308      1.0  0.94056  0.25669  0.41030  1.0000
  C   C309      1.0  0.85684  0.32442  0.40724  1.0000
  C   C310      1.0  0.85721  0.35630  0.32973  1.0000
  C   C311      1.0  0.86151  0.34686  0.40629  1.0000
  H   H180      1.0  0.86799  0.35619  0.46298  1.0000
  H   H181      1.0  0.85963  0.31805  0.46454  1.0000
  H   H182      1.0  0.80257  0.29127  0.33503  1.0000
  H   H183      1.0  0.83657  0.22062  0.33464  1.0000
  H   H184      1.0  0.90818  0.24253  0.46655  1.0000
  H   H185      1.0  0.94724  0.25422  0.46728  1.0000
  H   H186      1.0  0.85088  0.16956  0.33631  1.0000
  H   H187      1.0  0.74165  0.16670  0.33676  1.0000
  H   H188      1.0  0.76295  0.14539  0.33342  1.0000
  H   H189      1.0  0.79298  0.14371  0.46964  1.0000
  H   H190      1.0  0.77962  0.10438  0.46728  1.0000
  H   H191      1.0  0.74670  0.21922  0.47275  1.0000
  H   H192      1.0  0.70921  0.21256  0.47306  1.0000
  N   N37       1.0  0.21806  0.62992  0.40597  1.0000
  C   C312      1.0  0.21981  0.65050  0.40770  1.0000
  C   C313      1.0  0.21219  0.59591  0.33632  1.0000
  C   C314      1.0  0.20770  0.58327  0.41571  1.0000
  C   C315      1.0  0.20918  0.56354  0.41603  1.0000
  C   C316      1.0  0.21564  0.55626  0.33862  1.0000
  H   H193      1.0  0.20318  0.58813  0.47299  1.0000
  H   H194      1.0  0.20545  0.55454  0.47407  1.0000
  H   H195      1.0  0.22515  0.65946  0.46569  1.0000
  C   C317      1.0  0.39751  0.55631  0.33037  1.0000
  N   N38       1.0  0.42724  0.58844  0.40631  1.0000
  C   C318      1.0  0.40667  0.56961  0.40803  1.0000
  C   C319      1.0  0.46127  0.61658  0.33668  1.0000
  C   C320      1.0  0.47388  0.62472  0.41609  1.0000
  C   C321      1.0  0.49361  0.64593  0.41643  1.0000
  C   C322      1.0  0.50091  0.65967  0.33902  1.0000
  H   H196      1.0  0.46901  0.61535  0.47337  1.0000
  H   H197      1.0  0.50260  0.65121  0.47447  1.0000
  H   H198      1.0  0.39769  0.56598  0.46601  1.0000
  C   C323      1.0  0.50090  0.84153  0.33069  1.0000
  C   C324      1.0  0.46127  0.84500  0.33288  1.0000
  N   N39       1.0  0.46873  0.83911  0.40649  1.0000
  C   C325      1.0  0.48757  0.83739  0.40832  1.0000
  C   C326      1.0  0.44061  0.84499  0.33673  1.0000
  C   C327      1.0  0.43242  0.84945  0.41609  1.0000
  C   C328      1.0  0.41121  0.84796  0.41631  1.0000
  C   C329      1.0  0.39752  0.84154  0.33882  1.0000
  H   H199      1.0  0.44176  0.85394  0.47343  1.0000
  H   H200      1.0  0.40590  0.85166  0.47433  1.0000
  H   H201      1.0  0.49115  0.83199  0.46627  1.0000
  C   C330      1.0  0.86038  0.37865  0.33067  1.0000
  C   C331      1.0  0.86387  0.42176  0.33302  1.0000
  N   N40       1.0  0.85799  0.40840  0.40660  1.0000
  C   C332      1.0  0.85626  0.38782  0.40836  1.0000
  C   C333      1.0  0.86387  0.44241  0.33695  1.0000
  C   C334      1.0  0.86833  0.45503  0.41633  1.0000
  C   C335      1.0  0.86684  0.47476  0.41664  1.0000
  C   C336      1.0  0.86041  0.48205  0.33922  1.0000
  H   H202      1.0  0.87283  0.45017  0.47363  1.0000
  H   H203      1.0  0.87055  0.48376  0.47468  1.0000
  H   H204      1.0  0.85086  0.37884  0.46631  1.0000
  C   C337      1.0  0.67854  0.48202  0.33104  1.0000
  C   C338      1.0  0.63543  0.44239  0.33340  1.0000
  N   N41       1.0  0.64878  0.44987  0.40698  1.0000
  C   C339      1.0  0.66936  0.46870  0.40870  1.0000
  C   C340      1.0  0.61477  0.42174  0.33732  1.0000
  C   C341      1.0  0.60213  0.41359  0.41671  1.0000
  C   C342      1.0  0.58240  0.39237  0.41704  1.0000
  C   C343      1.0  0.57513  0.37865  0.33964  1.0000
  H   H205      1.0  0.60699  0.42295  0.47399  1.0000
  H   H206      1.0  0.57339  0.38709  0.47508  1.0000
  H   H207      1.0  0.67832  0.47232  0.46669  1.0000
  C   C344      1.0  0.57517  0.19682  0.33124  1.0000
  C   C345      1.0  0.61479  0.19333  0.33346  1.0000
  N   N42       1.0  0.60731  0.19921  0.40706  1.0000
  C   C346      1.0  0.58848  0.20096  0.40886  1.0000
  C   C347      1.0  0.63544  0.19332  0.33731  1.0000
  C   C348      1.0  0.64361  0.18886  0.41667  1.0000
  C   C349      1.0  0.66482  0.19034  0.41691  1.0000
  C   C350      1.0  0.67854  0.19678  0.33944  1.0000
  H   H208      1.0  0.63424  0.18436  0.47400  1.0000
  H   H209      1.0  0.67011  0.18663  0.47494  1.0000
  H   H210      1.0  0.58487  0.20631  0.46685  1.0000
  N   N43       1.0  0.06251  0.31206  0.40621  1.0000
  C   C351      1.0  0.08530  0.32440  0.40850  1.0000
  C   C352      1.0  0.02610  0.29727  0.33731  1.0000
  C   C353      1.0  0.01455  0.29614  0.41695  1.0000
  C   C354      1.0  0.99095  0.28601  0.41621  1.0000
  C   C355      1.0  0.97829  0.27630  0.33749  1.0000
  H   H211      1.0  0.02313  0.30370  0.47421  1.0000
  H   H212      1.0  0.98324  0.28673  0.47353  1.0000
  H   H213      1.0  0.09307  0.32529  0.46771  1.0000
  C   C356      1.0  0.72121  0.76208  0.33208  1.0000
  C   C357      1.0  0.74803  0.74110  0.33230  1.0000
  N   N44       1.0  0.74514  0.75077  0.40659  1.0000
  C   C358      1.0  0.73281  0.76124  0.40889  1.0000
  C   C359      1.0  0.75994  0.72915  0.33772  1.0000
  C   C360      1.0  0.76107  0.71874  0.41739  1.0000
  C   C361      1.0  0.77118  0.70526  0.41665  1.0000
  C   C362      1.0  0.78089  0.70230  0.33792  1.0000
  H   H214      1.0  0.75345  0.71972  0.47459  1.0000
  H   H215      1.0  0.77040  0.69680  0.47391  1.0000
  H   H216      1.0  0.73191  0.76811  0.46809  1.0000
  N   N45       1.0  0.30637  0.99464  0.40609  1.0000
  C   C363      1.0  0.29592  0.97184  0.40831  1.0000
  C   C364      1.0  0.32801  0.03108  0.33737  1.0000
  C   C365      1.0  0.33838  0.04259  0.41709  1.0000
  C   C366      1.0  0.35187  0.06619  0.41645  1.0000
  C   C367      1.0  0.35486  0.07888  0.33777  1.0000
  H   H217      1.0  0.33739  0.03398  0.47426  1.0000
  H   H218      1.0  0.36030  0.07386  0.47375  1.0000
  H   H219      1.0  0.28901  0.96404  0.46745  1.0000
  N   N46       1.0  0.01354  0.72627  0.40605  1.0000
  C   C368      1.0  0.99075  0.71393  0.40844  1.0000
  C   C369      1.0  0.04995  0.74107  0.33703  1.0000
  C   C370      1.0  0.06150  0.74222  0.41665  1.0000
  C   C371      1.0  0.08510  0.75234  0.41581  1.0000
  C   C372      1.0  0.09776  0.76204  0.33704  1.0000
  H   H220      1.0  0.05292  0.73462  0.47389  1.0000
  H   H221      1.0  0.09279  0.75158  0.47307  1.0000
  H   H222      1.0  0.98298  0.71306  0.46765  1.0000
  N   N47       1.0  0.33090  0.28756  0.40644  1.0000
  C   C373      1.0  0.34323  0.27710  0.40882  1.0000
  C   C374      1.0  0.31614  0.30919  0.33743  1.0000
  C   C375      1.0  0.31499  0.31960  0.41703  1.0000
  C   C376      1.0  0.30486  0.33307  0.41623  1.0000
  C   C377      1.0  0.29516  0.33602  0.33748  1.0000
  H   H223      1.0  0.32253  0.31858  0.47433  1.0000
  H   H224      1.0  0.30557  0.34149  0.47353  1.0000
  H   H225      1.0  0.34410  0.27021  0.46805  1.0000
  C   C378      1.0  0.78094  0.07890  0.33188  1.0000
  C   C379      1.0  0.75996  0.03109  0.33209  1.0000
  N   N48       1.0  0.76964  0.04364  0.40638  1.0000
  C   C380      1.0  0.78010  0.06644  0.40868  1.0000
  C   C381      1.0  0.74802  0.00723  0.33751  1.0000
  C   C382      1.0  0.73761  0.99569  0.41717  1.0000
  C   C383      1.0  0.72412  0.97209  0.41644  1.0000
  C   C384      1.0  0.72118  0.95942  0.33772  1.0000
  H   H226      1.0  0.73857  0.00427  0.47437  1.0000
  H   H227      1.0  0.71566  0.96440  0.47370  1.0000
  H   H228      1.0  0.78697  0.07421  0.46788  1.0000
