data_image0
_chemical_formula_structural       C3NC3NC5NC5NC36H26N4C3NC3NC5NC5NC36H26N4C3NC3NC5NC5NC36H26N4C3HCH3CHC3HCH3CHC3HCH3CHC3HCH3CHC3HCH3CHC3HCH3CHC16H16C16H16C16H16C3HCH3CHC3HCH3CHC3HCH3CHC3HCH3CHC3HCH3CHC3HCH3CH
_chemical_formula_sum              "C264 N24 H186"
_cell_length_a       67.4775
_cell_length_b       67.4775
_cell_length_c       14.8499
_cell_angle_alpha    89.8356
_cell_angle_beta     90.1644
_cell_angle_gamma    120

_space_group_name_H-M_alt    "P 1"
_space_group_IT_number       1

loop_
  _space_group_symop_operation_xyz
  'x, y, z'

loop_
  _atom_site_type_symbol
  _atom_site_label
  _atom_site_symmetry_multiplicity
  _atom_site_fract_x
  _atom_site_fract_y
  _atom_site_fract_z
  _atom_site_occupancy
  C   C1        1.0  0.02696  0.62332  0.30936  1.0000
  C   C2        1.0  0.05061  0.63536  0.31031  1.0000
  C   C3        1.0  0.05833  0.61969  0.31803  1.0000
  N   N1        1.0  0.03912  0.59882  0.32182  1.0000
  C   C4        1.0  0.01966  0.60002  0.31692  1.0000
  C   C5        1.0  0.99639  0.58213  0.31901  1.0000
  C   C6        1.0  0.98928  0.55843  0.32282  1.0000
  N   N2        1.0  0.00242  0.54850  0.32001  1.0000
  C   C7        1.0  0.98974  0.52541  0.32412  1.0000
  C   C8        1.0  0.96698  0.52020  0.33011  1.0000
  C   C9        1.0  0.96670  0.54050  0.32946  1.0000
  C   C10       1.0  0.99738  0.50924  0.32154  1.0000
  C   C11       1.0  0.02076  0.51507  0.31810  1.0000
  N   N3        1.0  0.03998  0.53594  0.32186  1.0000
  C   C12       1.0  0.05943  0.53474  0.31691  1.0000
  C   C13       1.0  0.05211  0.51144  0.30926  1.0000
  C   C14       1.0  0.02847  0.49941  0.31029  1.0000
  C   C15       1.0  0.08270  0.55262  0.31909  1.0000
  C   C16       1.0  0.08981  0.57632  0.32289  1.0000
  N   N4        1.0  0.07667  0.58625  0.31993  1.0000
  C   C17       1.0  0.08936  0.60934  0.32410  1.0000
  C   C18       1.0  0.11212  0.61453  0.33022  1.0000
  C   C19       1.0  0.11239  0.59424  0.32965  1.0000
  C   C20       1.0  0.08171  0.62551  0.32137  1.0000
  C   C21       1.0  0.09890  0.64917  0.32008  1.0000
  C   C22       1.0  0.13702  0.69502  0.32002  1.0000
  C   C23       1.0  0.12886  0.68228  0.23916  1.0000
  C   C24       1.0  0.11019  0.65975  0.23907  1.0000
  C   C25       1.0  0.15697  0.71747  0.32046  1.0000
  C   C26       1.0  0.16135  0.73338  0.25001  1.0000
  C   C27       1.0  0.18148  0.75496  0.24841  1.0000
  C   C28       1.0  0.19777  0.76160  0.31822  1.0000
  C   C29       1.0  0.10026  0.54664  0.31598  1.0000
  C   C30       1.0  0.13850  0.53923  0.31434  1.0000
  C   C31       1.0  0.13206  0.54673  0.23616  1.0000
  C   C32       1.0  0.11320  0.55029  0.23675  1.0000
  C   C33       1.0  0.15845  0.53686  0.31493  1.0000
  C   C34       1.0  0.19882  0.53287  0.31910  1.0000
  C   C35       1.0  0.19932  0.55235  0.28169  1.0000
  C   C36       1.0  0.17944  0.55420  0.27873  1.0000
  C   C37       1.0  0.98021  0.48559  0.32037  1.0000
  C   C38       1.0  0.96907  0.47494  0.23922  1.0000
  C   C39       1.0  0.95055  0.45233  0.23929  1.0000
  C   C40       1.0  0.94242  0.43957  0.32023  1.0000
  C   C41       1.0  0.92266  0.41699  0.32056  1.0000
  C   C42       1.0  0.88231  0.37253  0.31820  1.0000
  C   C43       1.0  0.89870  0.37937  0.24895  1.0000
  C   C44       1.0  0.91861  0.40111  0.25062  1.0000
  C   C45       1.0  0.97881  0.58809  0.31575  1.0000
  C   C46       1.0  0.96587  0.58455  0.23634  1.0000
  C   C47       1.0  0.94026  0.59503  0.31410  1.0000
  C   C48       1.0  0.94687  0.58788  0.23574  1.0000
  C   C49       1.0  0.92012  0.59705  0.31475  1.0000
  C   C50       1.0  0.89925  0.57959  0.27810  1.0000
  C   C51       1.0  0.87916  0.58107  0.28114  1.0000
  C   C52       1.0  0.87932  0.60027  0.31919  1.0000
  H   H1        1.0  0.86433  0.56793  0.25530  1.0000
  H   H2        1.0  0.89827  0.56520  0.25108  1.0000
  H   H3        1.0  0.93775  0.58483  0.17727  1.0000
  H   H4        1.0  0.96978  0.57882  0.17906  1.0000
  H   H5        1.0  0.01695  0.63067  0.30389  1.0000
  H   H6        1.0  0.06037  0.65275  0.30556  1.0000
  H   H7        1.0  0.03929  0.58478  0.33041  1.0000
  H   H8        1.0  0.03982  0.54996  0.33060  1.0000
  H   H9        1.0  0.95221  0.54166  0.33371  1.0000
  H   H10       1.0  0.95273  0.50436  0.33459  1.0000
  H   H11       1.0  0.97392  0.48384  0.17983  1.0000
  H   H12       1.0  0.94239  0.44564  0.17952  1.0000
  H   H13       1.0  0.01870  0.48202  0.30555  1.0000
  H   H14       1.0  0.06212  0.50409  0.30375  1.0000
  H   H15       1.0  0.12637  0.63036  0.33486  1.0000
  H   H16       1.0  0.12688  0.59307  0.33406  1.0000
  H   H17       1.0  0.10938  0.55620  0.17954  1.0000
  H   H18       1.0  0.14117  0.54981  0.17779  1.0000
  H   H19       1.0  0.18065  0.56878  0.25219  1.0000
  H   H20       1.0  0.21425  0.56541  0.25620  1.0000
  H   H21       1.0  0.10536  0.65084  0.17981  1.0000
  H   H22       1.0  0.13713  0.68888  0.17956  1.0000
  H   H23       1.0  0.18415  0.76585  0.19588  1.0000
  H   H24       1.0  0.14985  0.72943  0.19869  1.0000
  H   H25       1.0  0.93022  0.40521  0.19977  1.0000
  H   H26       1.0  0.89627  0.36850  0.19682  1.0000
  N   N5        1.0  0.21716  0.78165  0.31214  1.0000
  N   N6        1.0  0.85953  0.60021  0.32294  1.0000
  N   N7        1.0  0.86314  0.35230  0.31214  1.0000
  N   N8        1.0  0.21843  0.53257  0.32278  1.0000
  C   C53       1.0  0.48206  0.49577  0.31175  1.0000
  C   C54       1.0  0.47003  0.50739  0.31273  1.0000
  C   C55       1.0  0.48570  0.53076  0.32021  1.0000
  N   N9        1.0  0.50657  0.53241  0.32404  1.0000
  C   C56       1.0  0.50537  0.51176  0.31911  1.0000
  C   C57       1.0  0.52326  0.50638  0.32105  1.0000
  C   C58       1.0  0.54696  0.52296  0.32479  1.0000
  N   N10       1.0  0.55689  0.54603  0.32205  1.0000
  C   C59       1.0  0.57999  0.55644  0.32607  1.0000
  C   C60       1.0  0.58519  0.53888  0.33192  1.0000
  C   C61       1.0  0.56490  0.51831  0.33130  1.0000
  C   C62       1.0  0.59615  0.58025  0.32350  1.0000
  C   C63       1.0  0.59032  0.59781  0.32015  1.0000
  N   N11       1.0  0.56946  0.59616  0.32396  1.0000
  C   C64       1.0  0.57066  0.61682  0.31904  1.0000
  C   C65       1.0  0.59396  0.63281  0.31142  1.0000
  C   C66       1.0  0.60599  0.62119  0.31243  1.0000
  C   C67       1.0  0.55278  0.62220  0.32119  1.0000
  C   C68       1.0  0.52908  0.60562  0.32492  1.0000
  N   N12       1.0  0.51915  0.58255  0.32198  1.0000
  C   C69       1.0  0.49606  0.57214  0.32598  1.0000
  C   C70       1.0  0.49086  0.58970  0.33204  1.0000
  C   C71       1.0  0.51116  0.61027  0.33155  1.0000
  C   C72       1.0  0.47989  0.54833  0.32334  1.0000
  C   C73       1.0  0.45623  0.54187  0.32190  1.0000
  C   C74       1.0  0.41038  0.53411  0.32154  1.0000
  C   C75       1.0  0.42316  0.53883  0.24078  1.0000
  C   C76       1.0  0.44568  0.54267  0.24080  1.0000
  C   C77       1.0  0.38792  0.53160  0.32183  1.0000
  C   C78       1.0  0.37204  0.52018  0.25126  1.0000
  C   C79       1.0  0.35047  0.51873  0.24948  1.0000
  C   C80       1.0  0.34379  0.52827  0.31923  1.0000
  C   C81       1.0  0.55876  0.64575  0.31810  1.0000
  C   C82       1.0  0.56618  0.69141  0.31654  1.0000
  C   C83       1.0  0.55869  0.67758  0.23833  1.0000
  C   C84       1.0  0.55514  0.65516  0.23887  1.0000
  C   C85       1.0  0.56855  0.71373  0.31717  1.0000
  C   C86       1.0  0.57254  0.75808  0.32134  1.0000
  C   C87       1.0  0.55306  0.73915  0.28393  1.0000
  C   C88       1.0  0.55120  0.71741  0.28103  1.0000
  C   C89       1.0  0.61981  0.58674  0.32221  1.0000
  C   C90       1.0  0.63044  0.58638  0.24096  1.0000
  C   C91       1.0  0.65304  0.59045  0.24091  1.0000
  C   C92       1.0  0.66583  0.59497  0.32178  1.0000
  C   C93       1.0  0.68842  0.59782  0.32194  1.0000
  C   C94       1.0  0.73288  0.60194  0.31915  1.0000
  C   C95       1.0  0.72601  0.61158  0.25007  1.0000
  C   C96       1.0  0.70427  0.60975  0.25195  1.0000
  C   C97       1.0  0.51730  0.48285  0.31779  1.0000
  C   C98       1.0  0.52082  0.47354  0.23837  1.0000
  C   C99       1.0  0.51036  0.43736  0.31618  1.0000
  C   C100      1.0  0.51749  0.45120  0.23779  1.0000
  C   C101      1.0  0.50835  0.41520  0.31686  1.0000
  C   C102      1.0  0.52581  0.41184  0.28017  1.0000
  C   C103      1.0  0.52433  0.39027  0.28323  1.0000
  C   C104      1.0  0.50514  0.37118  0.32132  1.0000
  H   H27       1.0  0.53747  0.38861  0.25736  1.0000
  H   H28       1.0  0.54019  0.42529  0.25311  1.0000
  H   H29       1.0  0.52053  0.44520  0.17933  1.0000
  H   H30       1.0  0.52654  0.48324  0.18108  1.0000
  H   H31       1.0  0.47471  0.47841  0.30631  1.0000
  H   H32       1.0  0.45263  0.49976  0.30792  1.0000
  H   H33       1.0  0.52062  0.54662  0.33193  1.0000
  H   H34       1.0  0.55543  0.58196  0.33264  1.0000
  H   H35       1.0  0.56374  0.50265  0.33547  1.0000
  H   H36       1.0  0.60103  0.54046  0.33632  1.0000
  H   H37       1.0  0.62152  0.58242  0.18162  1.0000
  H   H38       1.0  0.65973  0.58911  0.18104  1.0000
  H   H39       1.0  0.62338  0.62882  0.30759  1.0000
  H   H40       1.0  0.60131  0.65017  0.30589  1.0000
  H   H41       1.0  0.47503  0.58812  0.33654  1.0000
  H   H42       1.0  0.51233  0.62593  0.33587  1.0000
  H   H43       1.0  0.54922  0.64549  0.18166  1.0000
  H   H44       1.0  0.55560  0.68368  0.17997  1.0000
  H   H45       1.0  0.53664  0.70409  0.25439  1.0000
  H   H46       1.0  0.54001  0.74105  0.25843  1.0000
  H   H47       1.0  0.45462  0.54685  0.18161  1.0000
  H   H48       1.0  0.41656  0.54054  0.18110  1.0000
  H   H49       1.0  0.33960  0.51058  0.19685  1.0000
  H   H50       1.0  0.37602  0.51269  0.19997  1.0000
  H   H51       1.0  0.70015  0.61734  0.20119  1.0000
  H   H52       1.0  0.73686  0.62011  0.19789  1.0000
  N   N13       1.0  0.32374  0.52761  0.31292  1.0000
  N   N14       1.0  0.50521  0.35145  0.32507  1.0000
  N   N15       1.0  0.75311  0.60300  0.31288  1.0000
  N   N16       1.0  0.57284  0.77799  0.32501  1.0000
  C   C105      1.0  0.60963  0.07842  0.31295  1.0000
  C   C106      1.0  0.59802  0.05477  0.31401  1.0000
  C   C107      1.0  0.57464  0.04705  0.32168  1.0000
  N   N17       1.0  0.57299  0.06627  0.32545  1.0000
  C   C108      1.0  0.59364  0.08573  0.32041  1.0000
  C   C109      1.0  0.59901  0.10900  0.32237  1.0000
  C   C110      1.0  0.58243  0.11610  0.32626  1.0000
  N   N18       1.0  0.55936  0.10297  0.32358  1.0000
  C   C111      1.0  0.54895  0.11565  0.32775  1.0000
  C   C112      1.0  0.56652  0.13841  0.33358  1.0000
  C   C113      1.0  0.58709  0.13869  0.33280  1.0000
  C   C114      1.0  0.52514  0.10800  0.32519  1.0000
  C   C115      1.0  0.50759  0.08462  0.32170  1.0000
  N   N19       1.0  0.50924  0.06541  0.32543  1.0000
  C   C116      1.0  0.48858  0.04595  0.32038  1.0000
  C   C117      1.0  0.47259  0.05327  0.31273  1.0000
  C   C118      1.0  0.48421  0.07691  0.31385  1.0000
  C   C119      1.0  0.48321  0.02268  0.32243  1.0000
  C   C120      1.0  0.49979  0.01557  0.32627  1.0000
  N   N20       1.0  0.52286  0.02871  0.32345  1.0000
  C   C121      1.0  0.53327  0.01603  0.32757  1.0000
  C   C122      1.0  0.51571  0.99326  0.33363  1.0000
  C   C123      1.0  0.49513  0.99299  0.33297  1.0000
  C   C124      1.0  0.55708  0.02367  0.32497  1.0000
  C   C125      1.0  0.56355  0.00648  0.32361  1.0000
  C   C126      1.0  0.57130  0.96838  0.32342  1.0000
  C   C127      1.0  0.56662  0.97655  0.24261  1.0000
  C   C128      1.0  0.56278  0.99524  0.24255  1.0000
  C   C129      1.0  0.57381  0.94844  0.32379  1.0000
  C   C130      1.0  0.58528  0.94409  0.25333  1.0000
  C   C131      1.0  0.58672  0.92396  0.25159  1.0000
  C   C132      1.0  0.57715  0.90764  0.32129  1.0000
  C   C133      1.0  0.45966  0.00512  0.31905  1.0000
  C   C134      1.0  0.41400  0.96688  0.31677  1.0000
  C   C135      1.0  0.42791  0.97338  0.23875  1.0000
  C   C136      1.0  0.45033  0.99224  0.23965  1.0000
  C   C137      1.0  0.39169  0.94694  0.31702  1.0000
  C   C138      1.0  0.34734  0.90657  0.32041  1.0000
  C   C139      1.0  0.36630  0.90609  0.28327  1.0000
  C   C140      1.0  0.38804  0.92597  0.28070  1.0000
  C   C141      1.0  0.51865  0.12517  0.32401  1.0000
  C   C142      1.0  0.51901  0.13627  0.24280  1.0000
  C   C143      1.0  0.51493  0.15481  0.24281  1.0000
  C   C144      1.0  0.51042  0.16296  0.32372  1.0000
  C   C145      1.0  0.50757  0.18270  0.32396  1.0000
  C   C146      1.0  0.50343  0.22304  0.32134  1.0000
  C   C147      1.0  0.49381  0.20663  0.25216  1.0000
  C   C148      1.0  0.49564  0.18672  0.25397  1.0000
  C   C149      1.0  0.62254  0.12658  0.31880  1.0000
  C   C150      1.0  0.63178  0.13946  0.23922  1.0000
  C   C151      1.0  0.66802  0.16513  0.31649  1.0000
  C   C152      1.0  0.65410  0.15847  0.23830  1.0000
  C   C153      1.0  0.69019  0.18529  0.31679  1.0000
  C   C154      1.0  0.69351  0.20613  0.28001  1.0000
  C   C155      1.0  0.71508  0.22622  0.28270  1.0000
  C   C156      1.0  0.73421  0.22608  0.32047  1.0000
  H   H53       1.0  0.71671  0.24103  0.25680  1.0000
  H   H54       1.0  0.68003  0.20708  0.25321  1.0000
  H   H55       1.0  0.66005  0.16756  0.17974  1.0000
  H   H56       1.0  0.62202  0.13552  0.18208  1.0000
  H   H57       1.0  0.62698  0.08843  0.30744  1.0000
  H   H58       1.0  0.60565  0.04501  0.30927  1.0000
  H   H59       1.0  0.55879  0.06610  0.33371  1.0000
  H   H60       1.0  0.52344  0.06557  0.33418  1.0000
  H   H61       1.0  0.60275  0.15318  0.33701  1.0000
  H   H62       1.0  0.56493  0.15266  0.33810  1.0000
  H   H63       1.0  0.52299  0.13142  0.18344  1.0000
  H   H64       1.0  0.51631  0.16294  0.18299  1.0000
  H   H65       1.0  0.47657  0.08668  0.30913  1.0000
  H   H66       1.0  0.45524  0.04327  0.30716  1.0000
  H   H67       1.0  0.51729  0.97901  0.33820  1.0000
  H   H68       1.0  0.47948  0.97850  0.33727  1.0000
  H   H69       1.0  0.46004  0.99610  0.18256  1.0000
  H   H70       1.0  0.42186  0.96431  0.18028  1.0000
  H   H71       1.0  0.40139  0.92478  0.25432  1.0000
  H   H72       1.0  0.36443  0.89118  0.25772  1.0000
  H   H73       1.0  0.55863  0.00008  0.18331  1.0000
  H   H74       1.0  0.56493  0.96832  0.18294  1.0000
  H   H75       1.0  0.59490  0.92132  0.19904  1.0000
  H   H76       1.0  0.59278  0.95561  0.20208  1.0000
  H   H77       1.0  0.48807  0.17510  0.20316  1.0000
  H   H78       1.0  0.48529  0.20904  0.19999  1.0000
  N   N21       1.0  0.57780  0.88826  0.31503  1.0000
  N   N22       1.0  0.75394  0.24588  0.32389  1.0000
  N   N23       1.0  0.50238  0.24222  0.31506  1.0000
  N   N24       1.0  0.32743  0.88695  0.32376  1.0000
  C   C157      1.0  0.24459  0.51947  0.32773  1.0000
  C   C158      1.0  0.25434  0.51185  0.26099  1.0000
  C   C159      1.0  0.27593  0.51384  0.27781  1.0000
  H   H79       1.0  0.28252  0.50767  0.23057  1.0000
  C   C160      1.0  0.24311  0.50167  0.17331  1.0000
  H   H80       1.0  0.22697  0.50140  0.16331  1.0000
  H   H81       1.0  0.23971  0.48409  0.16905  1.0000
  H   H82       1.0  0.25444  0.51155  0.11806  1.0000
  C   C161      1.0  0.22248  0.51586  0.32129  1.0000
  H   H83       1.0  0.20966  0.49986  0.31492  1.0000
  C   C162      1.0  0.58596  0.81724  0.32995  1.0000
  C   C163      1.0  0.59356  0.83468  0.26316  1.0000
  C   C164      1.0  0.59157  0.85427  0.27998  1.0000
  H   H84       1.0  0.59771  0.86707  0.23269  1.0000
  C   C165      1.0  0.60373  0.83374  0.17544  1.0000
  H   H85       1.0  0.60400  0.81789  0.16546  1.0000
  H   H86       1.0  0.62130  0.84793  0.17112  1.0000
  H   H87       1.0  0.59383  0.83525  0.12023  1.0000
  C   C166      1.0  0.58956  0.79875  0.32346  1.0000
  H   H88       1.0  0.60556  0.80193  0.31708  1.0000
  C   C167      1.0  0.28817  0.86080  0.32799  1.0000
  C   C168      1.0  0.27080  0.85107  0.26092  1.0000
  C   C169      1.0  0.25119  0.82947  0.27744  1.0000
  H   H89       1.0  0.23843  0.82289  0.22995  1.0000
  C   C170      1.0  0.27184  0.86232  0.17318  1.0000
  H   H90       1.0  0.28771  0.87846  0.16343  1.0000
  H   H91       1.0  0.25766  0.86572  0.16857  1.0000
  H   H92       1.0  0.27039  0.85101  0.11798  1.0000
  C   C171      1.0  0.30666  0.88291  0.32181  1.0000
  H   H93       1.0  0.30349  0.89573  0.31530  1.0000
  C   C172      1.0  0.83291  0.61270  0.32820  1.0000
  C   C173      1.0  0.82283  0.62001  0.26122  1.0000
  C   C174      1.0  0.80107  0.61759  0.27795  1.0000
  H   H94       1.0  0.79423  0.62353  0.23051  1.0000
  C   C175      1.0  0.83386  0.63029  0.17340  1.0000
  H   H95       1.0  0.85016  0.63092  0.16355  1.0000
  H   H96       1.0  0.83691  0.64775  0.16876  1.0000
  H   H97       1.0  0.82257  0.62025  0.11828  1.0000
  C   C176      1.0  0.85515  0.61670  0.32175  1.0000
  H   H98       1.0  0.86779  0.63280  0.31563  1.0000
  C   C177      1.0  0.49274  0.31234  0.33036  1.0000
  C   C178      1.0  0.48540  0.29502  0.26342  1.0000
  C   C179      1.0  0.48782  0.27565  0.28012  1.0000
  H   H99       1.0  0.48186  0.26292  0.23272  1.0000
  C   C180      1.0  0.47510  0.29587  0.17564  1.0000
  H   H100      1.0  0.47448  0.31157  0.16579  1.0000
  H   H101      1.0  0.45765  0.28148  0.17105  1.0000
  H   H102      1.0  0.48513  0.29469  0.12048  1.0000
  C   C181      1.0  0.48872  0.33057  0.32398  1.0000
  H   H103      1.0  0.47262  0.32712  0.31792  1.0000
  C   C182      1.0  0.79307  0.27250  0.32843  1.0000
  C   C183      1.0  0.81031  0.28256  0.26117  1.0000
  C   C184      1.0  0.82969  0.30432  0.27762  1.0000
  H   H104      1.0  0.84235  0.31115  0.22996  1.0000
  C   C185      1.0  0.80934  0.27150  0.17331  1.0000
  H   H105      1.0  0.79364  0.25519  0.16368  1.0000
  H   H106      1.0  0.82374  0.26845  0.16836  1.0000
  H   H107      1.0  0.81046  0.28277  0.11822  1.0000
  C   C186      1.0  0.77482  0.25026  0.32224  1.0000
  H   H108      1.0  0.77825  0.23761  0.31596  1.0000
  C   C187      1.0  0.10656  0.66176  0.40089  1.0000
  C   C188      1.0  0.12524  0.68430  0.40064  1.0000
  C   C189      1.0  0.19363  0.74592  0.38881  1.0000
  C   C190      1.0  0.17360  0.72429  0.38986  1.0000
  C   C191      1.0  0.10633  0.53882  0.39390  1.0000
  C   C192      1.0  0.12506  0.53503  0.39281  1.0000
  C   C193      1.0  0.15814  0.51750  0.35376  1.0000
  C   C194      1.0  0.17795  0.51549  0.35563  1.0000
  C   C195      1.0  0.95403  0.45037  0.40103  1.0000
  C   C196      1.0  0.97256  0.47299  0.40132  1.0000
  C   C197      1.0  0.90592  0.40996  0.38936  1.0000
  C   C198      1.0  0.88612  0.38816  0.38829  1.0000
  C   C199      1.0  0.97260  0.59560  0.39383  1.0000
  C   C200      1.0  0.95373  0.59917  0.39272  1.0000
  C   C201      1.0  0.90007  0.61776  0.35616  1.0000
  C   C202      1.0  0.92009  0.61612  0.35419  1.0000
  H   H109      1.0  0.90067  0.63164  0.38641  1.0000
  H   H110      1.0  0.93477  0.62916  0.38143  1.0000
  H   H111      1.0  0.94926  0.60381  0.45145  1.0000
  H   H112      1.0  0.98134  0.59783  0.45282  1.0000
  H   H113      1.0  0.98009  0.48039  0.46131  1.0000
  H   H114      1.0  0.94902  0.44186  0.46116  1.0000
  H   H115      1.0  0.09758  0.53649  0.45276  1.0000
  H   H116      1.0  0.12941  0.53013  0.45140  1.0000
  H   H117      1.0  0.17711  0.50143  0.38545  1.0000
  H   H118      1.0  0.14336  0.50454  0.38064  1.0000
  H   H119      1.0  0.17173  0.71322  0.44064  1.0000
  H   H120      1.0  0.20550  0.74993  0.43878  1.0000
  H   H121      1.0  0.13027  0.69280  0.46069  1.0000
  H   H122      1.0  0.09896  0.65440  0.46082  1.0000
  H   H123      1.0  0.90757  0.42097  0.43978  1.0000
  H   H124      1.0  0.87416  0.38398  0.43783  1.0000
  C   C203      1.0  0.44360  0.53681  0.40264  1.0000
  C   C204      1.0  0.42106  0.53293  0.40223  1.0000
  C   C205      1.0  0.35943  0.53970  0.38996  1.0000
  C   C206      1.0  0.38106  0.54132  0.39112  1.0000
  C   C207      1.0  0.56656  0.65953  0.39607  1.0000
  C   C208      1.0  0.57037  0.68206  0.39501  1.0000
  C   C209      1.0  0.58791  0.73271  0.35598  1.0000
  C   C210      1.0  0.58992  0.75453  0.35785  1.0000
  C   C211      1.0  0.65505  0.59566  0.40266  1.0000
  C   C212      1.0  0.63242  0.59156  0.40310  1.0000
  C   C213      1.0  0.69548  0.58802  0.39060  1.0000
  C   C214      1.0  0.71727  0.59000  0.38930  1.0000
  C   C215      1.0  0.50981  0.46903  0.39590  1.0000
  C   C216      1.0  0.50623  0.44659  0.39482  1.0000
  C   C217      1.0  0.48765  0.37439  0.35834  1.0000
  C   C218      1.0  0.48928  0.39605  0.35635  1.0000
  H   H125      1.0  0.47378  0.36107  0.38861  1.0000
  H   H126      1.0  0.47625  0.39766  0.38361  1.0000
  H   H127      1.0  0.50162  0.43742  0.45357  1.0000
  H   H128      1.0  0.50760  0.47548  0.45492  1.0000
  H   H129      1.0  0.62503  0.59159  0.46315  1.0000
  H   H130      1.0  0.66357  0.59907  0.46275  1.0000
  H   H131      1.0  0.56891  0.65303  0.45491  1.0000
  H   H132      1.0  0.57528  0.69123  0.45359  1.0000
  H   H133      1.0  0.60399  0.76773  0.38767  1.0000
  H   H134      1.0  0.60087  0.73086  0.38284  1.0000
  H   H135      1.0  0.39210  0.55042  0.44204  1.0000
  H   H136      1.0  0.35539  0.54749  0.43988  1.0000
  H   H137      1.0  0.41254  0.52938  0.46223  1.0000
  H   H138      1.0  0.45095  0.53649  0.46262  1.0000
  H   H139      1.0  0.68448  0.57855  0.44099  1.0000
  H   H140      1.0  0.72147  0.58215  0.43870  1.0000
  C   C219      1.0  0.56857  0.99881  0.40441  1.0000
  C   C220      1.0  0.57244  0.98013  0.40409  1.0000
  C   C221      1.0  0.56568  0.91175  0.39191  1.0000
  C   C222      1.0  0.56408  0.93177  0.39306  1.0000
  C   C223      1.0  0.44580  0.99900  0.39681  1.0000
  C   C224      1.0  0.42328  0.98028  0.39539  1.0000
  C   C225      1.0  0.37266  0.94723  0.35557  1.0000
  C   C226      1.0  0.35084  0.92741  0.35705  1.0000
  C   C227      1.0  0.50973  0.15138  0.40457  1.0000
  C   C228      1.0  0.51384  0.13285  0.40493  1.0000
  C   C229      1.0  0.51736  0.19946  0.39266  1.0000
  C   C230      1.0  0.51537  0.21927  0.39146  1.0000
  C   C231      1.0  0.63643  0.13286  0.39672  1.0000
  C   C232      1.0  0.65887  0.15172  0.39527  1.0000
  C   C233      1.0  0.73104  0.20536  0.35756  1.0000
  C   C234      1.0  0.70938  0.18534  0.35594  1.0000
  H   H141      1.0  0.74439  0.20478  0.38761  1.0000
  H   H142      1.0  0.70779  0.17068  0.38326  1.0000
  H   H143      1.0  0.66810  0.15624  0.45387  1.0000
  H   H144      1.0  0.63005  0.12415  0.45582  1.0000
  H   H145      1.0  0.51380  0.12534  0.46495  1.0000
  H   H146      1.0  0.50633  0.15640  0.46468  1.0000
  H   H147      1.0  0.45226  0.00772  0.45577  1.0000
  H   H148      1.0  0.41405  0.97588  0.45387  1.0000
  H   H149      1.0  0.33761  0.92823  0.38669  1.0000
  H   H150      1.0  0.37448  0.96198  0.38252  1.0000
  H   H151      1.0  0.55493  0.93362  0.44386  1.0000
  H   H152      1.0  0.55787  0.89986  0.44177  1.0000
  H   H153      1.0  0.57596  0.97508  0.46415  1.0000
  H   H154      1.0  0.56884  0.00637  0.46438  1.0000
  H   H155      1.0  0.52683  0.19786  0.44304  1.0000
  H   H156      1.0  0.52323  0.23125  0.44087  1.0000
  C   C235      1.0  0.28832  0.52331  0.35849  1.0000
  C   C236      1.0  0.27879  0.53154  0.42405  1.0000
  C   C237      1.0  0.25705  0.52925  0.40774  1.0000
  H   H157      1.0  0.24996  0.53454  0.45641  1.0000
  C   C238      1.0  0.29014  0.54254  0.51071  1.0000
  H   H158      1.0  0.30755  0.54565  0.51692  1.0000
  H   H159      1.0  0.28015  0.53170  0.56691  1.0000
  H   H160      1.0  0.29107  0.55911  0.51696  1.0000
  C   C239      1.0  0.30849  0.52283  0.37407  1.0000
  H   H161      1.0  0.31102  0.51836  0.43507  1.0000
  C   C240      1.0  0.58210  0.85708  0.36066  1.0000
  C   C241      1.0  0.57388  0.83924  0.42625  1.0000
  C   C242      1.0  0.57619  0.81982  0.40997  1.0000
  H   H162      1.0  0.57090  0.80738  0.45862  1.0000
  C   C243      1.0  0.56288  0.83948  0.51291  1.0000
  H   H163      1.0  0.55975  0.85376  0.51909  1.0000
  H   H164      1.0  0.57373  0.84028  0.56910  1.0000
  H   H165      1.0  0.54632  0.82383  0.51916  1.0000
  C   C244      1.0  0.58256  0.87770  0.37621  1.0000
  H   H166      1.0  0.58703  0.88464  0.43720  1.0000
  C   C245      1.0  0.24827  0.81706  0.35814  1.0000
  C   C246      1.0  0.26604  0.82657  0.42404  1.0000
  C   C247      1.0  0.28549  0.84831  0.40802  1.0000
  H   H167      1.0  0.29786  0.85539  0.45692  1.0000
  C   C248      1.0  0.26569  0.81520  0.51077  1.0000
  H   H168      1.0  0.25139  0.79779  0.51678  1.0000
  H   H169      1.0  0.26483  0.82516  0.56688  1.0000
  H   H170      1.0  0.28133  0.81426  0.51738  1.0000
  C   C249      1.0  0.22763  0.79688  0.37340  1.0000
  H   H171      1.0  0.22062  0.79434  0.43425  1.0000
  C   C250      1.0  0.78883  0.60797  0.35872  1.0000
  C   C251      1.0  0.79871  0.60005  0.42452  1.0000
  C   C252      1.0  0.82061  0.60278  0.40833  1.0000
  H   H172      1.0  0.82794  0.59770  0.45711  1.0000
  C   C253      1.0  0.78757  0.58894  0.51131  1.0000
  H   H173      1.0  0.77004  0.58548  0.51745  1.0000
  H   H174      1.0  0.79747  0.59990  0.56737  1.0000
  H   H175      1.0  0.78700  0.57254  0.51788  1.0000
  C   C254      1.0  0.76844  0.60800  0.37413  1.0000
  H   H176      1.0  0.76583  0.61235  0.43505  1.0000
  C   C255      1.0  0.49743  0.27292  0.36089  1.0000
  C   C256      1.0  0.50537  0.29065  0.42668  1.0000
  C   C257      1.0  0.50265  0.30985  0.41047  1.0000
  H   H177      1.0  0.50773  0.32219  0.45928  1.0000
  C   C258      1.0  0.51647  0.29050  0.51347  1.0000
  H   H178      1.0  0.51992  0.27642  0.51961  1.0000
  H   H179      1.0  0.50552  0.28938  0.56953  1.0000
  H   H180      1.0  0.53288  0.30631  0.52005  1.0000
  C   C259      1.0  0.49739  0.25249  0.37631  1.0000
  H   H181      1.0  0.49305  0.24545  0.43724  1.0000
  C   C260      1.0  0.83250  0.31659  0.35840  1.0000
  C   C261      1.0  0.81485  0.30673  0.42450  1.0000
  C   C262      1.0  0.79564  0.28482  0.40858  1.0000
  H   H182      1.0  0.78335  0.27751  0.45757  1.0000
  C   C263      1.0  0.81509  0.31790  0.51134  1.0000
  H   H183      1.0  0.82917  0.33543  0.51728  1.0000
  H   H184      1.0  0.81628  0.30802  0.56733  1.0000
  H   H185      1.0  0.79928  0.31847  0.51822  1.0000
  C   C264      1.0  0.85295  0.33697  0.37350  1.0000
  H   H186      1.0  0.86005  0.33961  0.43431  1.0000
