data_image0
_chemical_formula_structural       C4NC2NH2C4NC2NH2C4NC2NH2C2H2C2H2C2H3NC18H12NC18H12NC18H12NC18H12C2H2C2H2C2H2C4NC2NH2C4NC2NH2C4NC2NH
_chemical_formula_sum              "C120 N16 H72"
_cell_length_a       38.9096
_cell_length_b       38.9096
_cell_length_c       14.7868
_cell_angle_alpha    90
_cell_angle_beta     90
_cell_angle_gamma    120

_space_group_name_H-M_alt    "P 1"
_space_group_IT_number       1

loop_
  _space_group_symop_operation_xyz
  'x, y, z'

loop_
  _atom_site_type_symbol
  _atom_site_label
  _atom_site_symmetry_multiplicity
  _atom_site_fract_x
  _atom_site_fract_y
  _atom_site_fract_z
  _atom_site_occupancy
  C   C1        1.0  0.25925  0.12998  0.33734  1.0000
  C   C2        1.0  0.23775  0.12965  0.25918  1.0000
  C   C3        1.0  0.19531  0.10850  0.25771  1.0000
  C   C4        1.0  0.17275  0.08694  0.33439  1.0000
  N   N1        1.0  0.17714  0.11070  0.18089  1.0000
  C   C5        1.0  0.19677  0.13109  0.10586  1.0000
  C   C6        1.0  0.23837  0.15185  0.10730  1.0000
  N   N2        1.0  0.25695  0.15051  0.18365  1.0000
  H   H1        1.0  0.18148  0.13153  0.05014  1.0000
  H   H2        1.0  0.25442  0.16793  0.05269  1.0000
  C   C7        1.0  0.87335  0.13254  0.33738  1.0000
  C   C8        1.0  0.90093  0.13863  0.26760  1.0000
  C   C9        1.0  0.92262  0.11789  0.26697  1.0000
  C   C10       1.0  0.91712  0.08987  0.33552  1.0000
  N   N3        1.0  0.94955  0.12680  0.19924  1.0000
  C   C11       1.0  0.95633  0.15321  0.13218  1.0000
  C   C12       1.0  0.93479  0.17326  0.13262  1.0000
  N   N4        1.0  0.90840  0.16544  0.20034  1.0000
  H   H3        1.0  0.97682  0.15842  0.08305  1.0000
  H   H4        1.0  0.93909  0.19362  0.08387  1.0000
  C   C13       1.0  0.87485  0.74564  0.33723  1.0000
  C   C14       1.0  0.89728  0.76769  0.26090  1.0000
  C   C15       1.0  0.91842  0.81011  0.26107  1.0000
  C   C16       1.0  0.91794  0.83200  0.33762  1.0000
  N   N5        1.0  0.93996  0.82887  0.18590  1.0000
  C   C17       1.0  0.94203  0.80986  0.11108  1.0000
  C   C18       1.0  0.92131  0.76825  0.11095  1.0000
  N   N6        1.0  0.90021  0.74909  0.18563  1.0000
  H   H5        1.0  0.95859  0.82559  0.05667  1.0000
  H   H6        1.0  0.92225  0.75263  0.05643  1.0000
  C   C19       1.0  0.61584  0.19502  0.30953  1.0000
  C   C20       1.0  0.57942  0.19450  0.31092  1.0000
  H   H7        1.0  0.57236  0.20588  0.25620  1.0000
  H   H8        1.0  0.63363  0.20682  0.25393  1.0000
  C   C21       1.0  0.84175  0.44024  0.25271  1.0000
  C   C22       1.0  0.84139  0.40386  0.25426  1.0000
  H   H9        1.0  0.85199  0.39629  0.19895  1.0000
  H   H10       1.0  0.85257  0.45771  0.19638  1.0000
  C   C23       1.0  0.57494  0.39831  0.27702  1.0000
  C   C24       1.0  0.61136  0.43406  0.28273  1.0000
  H   H11       1.0  0.61454  0.44071  0.00246  1.0000
  H   H12       1.0  0.62566  0.44653  0.22335  1.0000
  H   H13       1.0  0.56407  0.38780  0.21382  1.0000
  N   N7        1.0  0.00161  0.00304  0.34252  1.0000
  C   C25       1.0  0.04405  0.02394  0.34030  1.0000
  C   C26       1.0  0.98013  0.96058  0.34195  1.0000
  C   C27       1.0  0.98072  0.02459  0.34060  1.0000
  C   C28       1.0  0.97354  0.03974  0.42075  1.0000
  C   C29       1.0  0.95322  0.06133  0.41881  1.0000
  C   C30       1.0  0.93818  0.06791  0.33708  1.0000
  C   C31       1.0  0.94466  0.05153  0.25747  1.0000
  C   C32       1.0  0.96616  0.03116  0.25881  1.0000
  C   C33       1.0  0.06483  0.02047  0.26574  1.0000
  C   C34       1.0  0.10675  0.04058  0.26415  1.0000
  C   C35       1.0  0.12983  0.06565  0.33614  1.0000
  C   C36       1.0  0.10865  0.06872  0.41089  1.0000
  C   C37       1.0  0.06677  0.04813  0.41323  1.0000
  C   C38       1.0  0.98221  0.93872  0.41599  1.0000
  C   C39       1.0  0.96188  0.89678  0.41478  1.0000
  C   C40       1.0  0.93838  0.87485  0.33973  1.0000
  C   C41       1.0  0.93588  0.89707  0.26660  1.0000
  C   C42       1.0  0.95671  0.93892  0.26710  1.0000
  H   H14       1.0  0.12033  0.03615  0.20976  1.0000
  H   H15       1.0  0.04936  0.00277  0.21229  1.0000
  H   H16       1.0  0.05287  0.05103  0.46890  1.0000
  H   H17       1.0  0.12365  0.08655  0.46462  1.0000
  H   H18       1.0  0.98332  0.03526  0.48140  1.0000
  H   H19       1.0  0.94986  0.07263  0.47851  1.0000
  H   H20       1.0  0.99910  0.95342  0.47108  1.0000
  H   H21       1.0  0.96507  0.88230  0.46910  1.0000
  H   H22       1.0  0.91850  0.88290  0.21171  1.0000
  H   H23       1.0  0.95464  0.95348  0.21180  1.0000
  H   H24       1.0  0.97096  0.02089  0.19926  1.0000
  H   H25       1.0  0.93333  0.05386  0.19686  1.0000
  N   N8        1.0  0.43020  0.21568  0.35497  1.0000
  C   C43       1.0  0.45395  0.25757  0.34092  1.0000
  C   C44       1.0  0.38788  0.19445  0.35054  1.0000
  C   C45       1.0  0.45238  0.19633  0.37377  1.0000
  C   C46       1.0  0.47607  0.20665  0.45262  1.0000
  C   C47       1.0  0.50836  0.19990  0.45857  1.0000
  C   C48       1.0  0.51776  0.18197  0.38658  1.0000
  C   C49       1.0  0.49225  0.16927  0.31037  1.0000
  C   C50       1.0  0.46026  0.17644  0.30391  1.0000
  C   C51       1.0  0.45497  0.28484  0.40538  1.0000
  C   C52       1.0  0.48601  0.32467  0.40567  1.0000
  C   C53       1.0  0.51870  0.33837  0.34548  1.0000
  C   C54       1.0  0.51593  0.31136  0.27741  1.0000
  C   C55       1.0  0.48373  0.27225  0.27352  1.0000
  C   C56       1.0  0.36461  0.19535  0.42286  1.0000
  C   C57       1.0  0.32274  0.17447  0.41829  1.0000
  C   C58       1.0  0.30214  0.15118  0.34182  1.0000
  C   C59       1.0  0.32582  0.14963  0.27067  1.0000
  C   C60       1.0  0.36769  0.17111  0.27443  1.0000
  H   H26       1.0  0.48532  0.34309  0.45401  1.0000
  H   H27       1.0  0.43454  0.27536  0.45633  1.0000
  H   H28       1.0  0.48469  0.25321  0.22723  1.0000
  H   H29       1.0  0.53880  0.31889  0.23304  1.0000
  H   H30       1.0  0.47257  0.22307  0.50204  1.0000
  H   H31       1.0  0.52699  0.21138  0.51296  1.0000
  H   H32       1.0  0.37807  0.21116  0.48000  1.0000
  H   H33       1.0  0.30731  0.17687  0.47167  1.0000
  H   H34       1.0  0.31271  0.13232  0.21506  1.0000
  H   H35       1.0  0.38344  0.16960  0.22080  1.0000
  H   H36       1.0  0.44542  0.17077  0.24382  1.0000
  H   H37       1.0  0.49822  0.15676  0.25606  1.0000
  N   N9        1.0  0.78840  0.21799  0.34832  1.0000
  C   C61       1.0  0.74695  0.19981  0.36598  1.0000
  C   C62       1.0  0.80885  0.19624  0.34621  1.0000
  C   C63       1.0  0.80783  0.25970  0.33318  1.0000
  C   C64       1.0  0.79781  0.27448  0.25634  1.0000
  C   C65       1.0  0.80585  0.31401  0.25356  1.0000
  C   C66       1.0  0.82458  0.34020  0.32705  1.0000
  C   C67       1.0  0.83739  0.32604  0.40058  1.0000
  C   C68       1.0  0.82884  0.28632  0.40406  1.0000
  C   C69       1.0  0.71924  0.18027  0.29594  1.0000
  C   C70       1.0  0.67988  0.17250  0.30368  1.0000
  C   C71       1.0  0.66696  0.18438  0.38118  1.0000
  C   C72       1.0  0.69458  0.20259  0.45251  1.0000
  C   C73       1.0  0.73374  0.20982  0.44546  1.0000
  C   C74       1.0  0.80946  0.17630  0.26700  1.0000
  C   C75       1.0  0.83014  0.15510  0.26444  1.0000
  C   C76       1.0  0.85132  0.15327  0.34064  1.0000
  C   C77       1.0  0.85012  0.17302  0.42021  1.0000
  C   C78       1.0  0.82932  0.19411  0.42295  1.0000
  H   H38       1.0  0.66114  0.15970  0.24991  1.0000
  H   H39       1.0  0.72837  0.17440  0.23597  1.0000
  H   H40       1.0  0.75361  0.22571  0.49539  1.0000
  H   H41       1.0  0.68734  0.21340  0.50799  1.0000
  H   H42       1.0  0.78115  0.25549  0.20575  1.0000
  H   H43       1.0  0.79506  0.32254  0.20015  1.0000
  H   H44       1.0  0.79495  0.17733  0.21029  1.0000
  H   H45       1.0  0.82935  0.14067  0.20593  1.0000
  H   H46       1.0  0.86518  0.17288  0.47687  1.0000
  H   H47       1.0  0.82926  0.20809  0.48146  1.0000
  H   H48       1.0  0.83489  0.27610  0.46216  1.0000
  H   H49       1.0  0.85099  0.34391  0.45520  1.0000
  N   N10       1.0  0.79031  0.57479  0.34151  1.0000
  C   C79       1.0  0.81040  0.55317  0.32488  1.0000
  C   C80       1.0  0.81053  0.61710  0.34174  1.0000
  C   C81       1.0  0.74879  0.55072  0.35956  1.0000
  C   C82       1.0  0.73588  0.52280  0.43083  1.0000
  C   C83       1.0  0.69674  0.49069  0.43335  1.0000
  C   C84       1.0  0.66778  0.48658  0.36917  1.0000
  C   C85       1.0  0.68033  0.51679  0.30251  1.0000
  C   C86       1.0  0.72015  0.54764  0.29643  1.0000
  C   C87       1.0  0.83225  0.54823  0.39499  1.0000
  C   C88       1.0  0.84035  0.51677  0.39280  1.0000
  C   C89       1.0  0.82633  0.48883  0.32125  1.0000
  C   C90       1.0  0.80711  0.49570  0.24788  1.0000
  C   C91       1.0  0.79951  0.52751  0.24938  1.0000
  C   C92       1.0  0.83379  0.63930  0.41620  1.0000
  C   C93       1.0  0.85468  0.68121  0.41480  1.0000
  C   C94       1.0  0.85288  0.70278  0.33928  1.0000
  C   C95       1.0  0.82859  0.68014  0.26590  1.0000
  C   C96       1.0  0.80833  0.63828  0.26653  1.0000
  H   H50       1.0  0.85415  0.51280  0.44746  1.0000
  H   H51       1.0  0.83870  0.56483  0.45261  1.0000
  H   H52       1.0  0.78193  0.52911  0.20000  1.0000
  H   H53       1.0  0.79539  0.47561  0.19609  1.0000
  H   H54       1.0  0.75606  0.52304  0.47555  1.0000
  H   H55       1.0  0.69061  0.46881  0.47952  1.0000
  H   H56       1.0  0.83580  0.62501  0.47220  1.0000
  H   H57       1.0  0.87195  0.69594  0.46944  1.0000
  H   H58       1.0  0.82524  0.69402  0.21064  1.0000
  H   H59       1.0  0.79212  0.62327  0.21101  1.0000
  H   H60       1.0  0.72853  0.56629  0.24205  1.0000
  H   H61       1.0  0.66098  0.51548  0.25396  1.0000
  C   C97       1.0  0.19453  0.08770  0.41196  1.0000
  C   C98       1.0  0.23640  0.10852  0.41338  1.0000
  H   H62       1.0  0.25018  0.10714  0.47108  1.0000
  H   H63       1.0  0.17994  0.07225  0.46873  1.0000
  C   C99       1.0  0.88954  0.08428  0.40478  1.0000
  C   C100      1.0  0.86851  0.10512  0.40606  1.0000
  H   H64       1.0  0.84863  0.09924  0.45729  1.0000
  H   H65       1.0  0.88372  0.06404  0.45509  1.0000
  C   C101      1.0  0.89602  0.80970  0.41376  1.0000
  C   C102      1.0  0.87511  0.76782  0.41354  1.0000
  H   H66       1.0  0.85907  0.75353  0.46993  1.0000
  H   H67       1.0  0.89416  0.82389  0.47023  1.0000
  C   C103      1.0  0.55383  0.18035  0.38682  1.0000
  C   C104      1.0  0.56634  0.16663  0.46193  1.0000
  C   C105      1.0  0.60328  0.16715  0.46053  1.0000
  C   C106      1.0  0.62869  0.18146  0.38401  1.0000
  N   N11       1.0  0.61300  0.15294  0.53458  1.0000
  C   C107      1.0  0.58991  0.13885  0.60937  1.0000
  C   C108      1.0  0.55361  0.13836  0.61074  1.0000
  N   N12       1.0  0.54328  0.15198  0.53719  1.0000
  H   H68       1.0  0.59876  0.12866  0.66304  1.0000
  H   H69       1.0  0.53519  0.12780  0.66543  1.0000
  C   C109      1.0  0.82689  0.37816  0.32986  1.0000
  C   C110      1.0  0.81220  0.39014  0.40421  1.0000
  C   C111      1.0  0.81260  0.42699  0.40271  1.0000
  C   C112      1.0  0.82768  0.45273  0.32680  1.0000
  N   N13       1.0  0.79658  0.43578  0.47498  1.0000
  C   C113      1.0  0.78096  0.41199  0.54829  1.0000
  C   C114      1.0  0.78055  0.37576  0.54975  1.0000
  N   N14       1.0  0.79579  0.36628  0.47778  1.0000
  H   H70       1.0  0.76946  0.42023  0.60054  1.0000
  H   H71       1.0  0.76872  0.35668  0.60309  1.0000
  C   C115      1.0  0.62880  0.45155  0.36687  1.0000
  C   C116      1.0  0.60732  0.43123  0.44581  1.0000
  C   C117      1.0  0.57131  0.39394  0.44009  1.0000
  C   C118      1.0  0.55415  0.37676  0.35499  1.0000
  N   N15       1.0  0.55463  0.37521  0.51952  1.0000
  C   C119      1.0  0.56883  0.39028  0.60269  1.0000
  C   C120      1.0  0.60285  0.42788  0.60812  1.0000
  N   N16       1.0  0.62061  0.44642  0.52995  1.0000
  H   H72       1.0  0.55463  0.37481  0.65960  1.0000
