data_image0
_chemical_formula_structural       C2NC2OC3H2NCHC2NC2OC3H2NCH2C3H3C3H2C2HC2HC2NC2OHC2NC2OHNCHNCHNCHC3HCHC6H3C6H3NCHNCHC2NC2OHC2NC2OHC2NC2OC2NC2OHC2NC2OHNCHNCHNCHC3HCHC6H3C6H3NCHNCHC2NC2OHC2NC2OHC2NC2OC2NC2OHC2NC2OHC2NC2OHNCHNCHNCHC6H3C6H3C6H3C6H3NCHNCHNCHC2NC2OHC2NC2OHC2NC2OHC2NC2OHC2NC2OHC2NC2OHNCHNCHNCHC6H3C6H3C6H3C6H3NCHNCHNCHC2NC2OHC2NC2OHC2NC2OH
_chemical_formula_sum              "C216 N48 O24 H96"
_cell_length_a       45.2046
_cell_length_b       45.2256
_cell_length_c       14.8365
_cell_angle_alpha    90
_cell_angle_beta     90
_cell_angle_gamma    119.989

_space_group_name_H-M_alt    "P 1"
_space_group_IT_number       1

loop_
  _space_group_symop_operation_xyz
  'x, y, z'

loop_
  _atom_site_type_symbol
  _atom_site_label
  _atom_site_symmetry_multiplicity
  _atom_site_fract_x
  _atom_site_fract_y
  _atom_site_fract_z
  _atom_site_occupancy
  C   C1        1.0  0.15081  0.07454  0.33186  1.0000
  C   C2        1.0  0.07870  0.04098  0.33960  1.0000
  N   N1        1.0  0.09568  0.02935  0.28830  1.0000
  C   C3        1.0  0.13030  0.04431  0.28081  1.0000
  C   C4        1.0  0.14326  0.03043  0.22007  1.0000
  O   O1        1.0  0.12453  0.00285  0.18448  1.0000
  C   C5        1.0  0.04219  0.02270  0.34127  1.0000
  C   C6        1.0  0.02323  0.03990  0.34097  1.0000
  C   C7        1.0  0.02387  0.48653  0.34098  1.0000
  H   H1        1.0  0.03720  0.47371  0.33978  1.0000
  H   H2        1.0  0.03606  0.06604  0.33980  1.0000
  N   N2        1.0  0.13373  0.08639  0.38245  1.0000
  C   C8        1.0  0.09922  0.07146  0.38765  1.0000
  H   H3        1.0  0.08876  0.08195  0.42874  1.0000
  C   C9        1.0  0.15081  0.57454  0.33186  1.0000
  C   C10       1.0  0.07870  0.54098  0.33960  1.0000
  N   N3        1.0  0.09568  0.52935  0.28830  1.0000
  C   C11       1.0  0.13030  0.54431  0.28081  1.0000
  C   C12       1.0  0.14326  0.53043  0.22007  1.0000
  O   O2        1.0  0.12453  0.50285  0.18448  1.0000
  C   C13       1.0  0.04219  0.52270  0.34127  1.0000
  C   C14       1.0  0.02323  0.53990  0.34097  1.0000
  C   C15       1.0  0.02387  0.98653  0.34098  1.0000
  H   H4        1.0  0.03720  0.97371  0.33978  1.0000
  H   H5        1.0  0.03606  0.56604  0.33980  1.0000
  N   N4        1.0  0.13373  0.58639  0.38245  1.0000
  C   C16       1.0  0.09922  0.57146  0.38765  1.0000
  H   H6        1.0  0.08876  0.58195  0.42874  1.0000
  H   H7        1.0  0.16273  0.04666  0.18206  1.0000
  C   C17       1.0  0.20562  0.12942  0.33915  1.0000
  C   C18       1.0  0.18747  0.09311  0.33569  1.0000
  C   C19       1.0  0.20667  0.07601  0.33945  1.0000
  H   H8        1.0  0.19259  0.14254  0.33730  1.0000
  H   H9        1.0  0.19446  0.04992  0.34125  1.0000
  H   H10       1.0  0.16273  0.54666  0.18206  1.0000
  C   C20       1.0  0.20562  0.62942  0.33914  1.0000
  C   C21       1.0  0.18747  0.59311  0.33569  1.0000
  C   C22       1.0  0.20667  0.57601  0.33945  1.0000
  H   H11       1.0  0.19259  0.64254  0.33730  1.0000
  H   H12       1.0  0.19446  0.54992  0.34125  1.0000
  C   C23       1.0  0.24269  0.09429  0.34268  1.0000
  C   C24       1.0  0.24164  0.14813  0.34385  1.0000
  H   H13       1.0  0.24233  0.16875  0.52097  1.0000
  C   C25       1.0  0.24269  0.59429  0.34268  1.0000
  C   C26       1.0  0.24164  0.64813  0.34384  1.0000
  H   H14       1.0  0.24233  0.66875  0.52097  1.0000
  C   C27       1.0  0.43536  0.07899  0.33210  1.0000
  C   C28       1.0  0.46879  0.04031  0.33960  1.0000
  N   N5        1.0  0.48053  0.06900  0.28865  1.0000
  C   C29       1.0  0.46566  0.08875  0.28126  1.0000
  C   C30       1.0  0.47960  0.11575  0.22090  1.0000
  O   O3        1.0  0.50711  0.12410  0.18543  1.0000
  H   H15       1.0  0.46340  0.11871  0.18215  1.0000
  C   C31       1.0  0.43083  0.35898  0.33226  1.0000
  C   C32       1.0  0.46946  0.43108  0.33971  1.0000
  N   N6        1.0  0.44073  0.41410  0.28886  1.0000
  C   C33       1.0  0.42100  0.37949  0.28155  1.0000
  C   C34       1.0  0.39399  0.36646  0.22115  1.0000
  O   O4        1.0  0.38510  0.38537  0.18692  1.0000
  H   H16       1.0  0.39164  0.34765  0.18190  1.0000
  N   N7        1.0  0.31028  0.07976  0.26903  1.0000
  C   C35       1.0  0.27919  0.07734  0.26309  1.0000
  H   H17       1.0  0.27116  0.08082  0.20160  1.0000
  N   N8        1.0  0.42998  0.23304  0.26952  1.0000
  C   C36       1.0  0.43229  0.20432  0.26384  1.0000
  H   H18       1.0  0.42889  0.19287  0.20229  1.0000
  N   N9        1.0  0.27666  0.19968  0.26917  1.0000
  C   C37       1.0  0.30538  0.23070  0.26355  1.0000
  H   H19       1.0  0.31674  0.23906  0.20199  1.0000
  C   C38       1.0  0.48705  0.02206  0.34125  1.0000
  C   C39       1.0  0.46985  0.48591  0.34099  1.0000
  C   C40       1.0  0.48770  0.46758  0.34130  1.0000
  H   H20       1.0  0.44369  0.47260  0.33984  1.0000
  C   C41       1.0  0.25973  0.13022  0.34480  1.0000
  H   H21       1.0  0.28596  0.14368  0.34751  1.0000
  C   C42       1.0  0.41552  0.15105  0.34318  1.0000
  C   C43       1.0  0.37956  0.13212  0.34518  1.0000
  C   C44       1.0  0.36169  0.09614  0.34385  1.0000
  C   C45       1.0  0.38045  0.07888  0.33911  1.0000
  C   C46       1.0  0.41678  0.09707  0.33593  1.0000
  C   C47       1.0  0.43384  0.13335  0.33993  1.0000
  H   H22       1.0  0.36734  0.05274  0.33707  1.0000
  H   H23       1.0  0.45994  0.14725  0.34194  1.0000
  H   H24       1.0  0.36606  0.14484  0.34803  1.0000
  C   C48       1.0  0.35876  0.26711  0.34323  1.0000
  C   C49       1.0  0.37770  0.25009  0.34524  1.0000
  C   C50       1.0  0.41369  0.26819  0.34410  1.0000
  C   C51       1.0  0.43096  0.30421  0.33943  1.0000
  C   C52       1.0  0.41276  0.32233  0.33609  1.0000
  C   C53       1.0  0.37646  0.30311  0.33993  1.0000
  H   H25       1.0  0.45711  0.31723  0.33754  1.0000
  H   H26       1.0  0.36254  0.31528  0.34182  1.0000
  H   H27       1.0  0.36496  0.22388  0.34801  1.0000
  N   N10       1.0  0.42339  0.04998  0.38235  1.0000
  C   C54       1.0  0.43826  0.03035  0.38748  1.0000
  H   H28       1.0  0.42766  0.00932  0.42826  1.0000
  N   N11       1.0  0.45988  0.37605  0.38242  1.0000
  C   C55       1.0  0.47948  0.41055  0.38752  1.0000
  H   H29       1.0  0.50053  0.42099  0.42823  1.0000
  C   C56       1.0  0.32552  0.07953  0.34793  1.0000
  C   C57       1.0  0.26306  0.07866  0.34314  1.0000
  N   N12       1.0  0.27908  0.07991  0.42178  1.0000
  C   C58       1.0  0.30839  0.07847  0.42936  1.0000
  C   C59       1.0  0.32272  0.08213  0.51412  1.0000
  O   O5        1.0  0.30529  0.07744  0.58140  1.0000
  H   H30       1.0  0.34054  0.07558  0.52128  1.0000
  C   C60       1.0  0.43029  0.24862  0.34830  1.0000
  C   C61       1.0  0.43110  0.18704  0.34411  1.0000
  N   N13       1.0  0.42995  0.20188  0.42265  1.0000
  C   C62       1.0  0.43135  0.23260  0.42987  1.0000
  C   C63       1.0  0.42792  0.24354  0.51452  1.0000
  O   O6        1.0  0.43251  0.23079  0.58194  1.0000
  H   H31       1.0  0.43467  0.26795  0.52136  1.0000
  C   C64       1.0  0.26128  0.18429  0.34800  1.0000
  C   C65       1.0  0.32273  0.24670  0.34374  1.0000
  N   N14       1.0  0.30809  0.23062  0.42234  1.0000
  C   C66       1.0  0.27738  0.20125  0.42966  1.0000
  C   C67       1.0  0.26659  0.18674  0.51433  1.0000
  O   O7        1.0  0.27846  0.20503  0.58065  1.0000
  C   C68       1.0  0.43536  0.57899  0.33210  1.0000
  C   C69       1.0  0.46879  0.54031  0.33960  1.0000
  N   N15       1.0  0.48053  0.56900  0.28865  1.0000
  C   C70       1.0  0.46566  0.58875  0.28126  1.0000
  C   C71       1.0  0.47960  0.61575  0.22090  1.0000
  O   O8        1.0  0.50711  0.62410  0.18542  1.0000
  H   H32       1.0  0.46340  0.61871  0.18215  1.0000
  C   C72       1.0  0.43084  0.85899  0.33226  1.0000
  C   C73       1.0  0.46946  0.93108  0.33971  1.0000
  N   N16       1.0  0.44073  0.91410  0.28885  1.0000
  C   C74       1.0  0.42100  0.87949  0.28155  1.0000
  C   C75       1.0  0.39399  0.86646  0.22115  1.0000
  O   O9        1.0  0.38510  0.88537  0.18692  1.0000
  H   H33       1.0  0.39165  0.84765  0.18190  1.0000
  N   N17       1.0  0.31028  0.57976  0.26903  1.0000
  C   C76       1.0  0.27919  0.57734  0.26309  1.0000
  H   H34       1.0  0.27116  0.58082  0.20160  1.0000
  N   N18       1.0  0.42998  0.73304  0.26953  1.0000
  C   C77       1.0  0.43229  0.70432  0.26384  1.0000
  H   H35       1.0  0.42890  0.69286  0.20229  1.0000
  N   N19       1.0  0.27666  0.69968  0.26917  1.0000
  C   C78       1.0  0.30538  0.73070  0.26355  1.0000
  H   H36       1.0  0.31674  0.73906  0.20199  1.0000
  C   C79       1.0  0.48705  0.52206  0.34125  1.0000
  C   C80       1.0  0.46985  0.98591  0.34099  1.0000
  C   C81       1.0  0.48770  0.96757  0.34130  1.0000
  H   H37       1.0  0.44369  0.97260  0.33984  1.0000
  C   C82       1.0  0.25973  0.63022  0.34480  1.0000
  H   H38       1.0  0.28596  0.64368  0.34751  1.0000
  C   C83       1.0  0.41552  0.65104  0.34318  1.0000
  C   C84       1.0  0.37956  0.63212  0.34518  1.0000
  C   C85       1.0  0.36169  0.59614  0.34385  1.0000
  C   C86       1.0  0.38045  0.57888  0.33911  1.0000
  C   C87       1.0  0.41678  0.59707  0.33593  1.0000
  C   C88       1.0  0.43384  0.63335  0.33993  1.0000
  H   H39       1.0  0.36734  0.55274  0.33707  1.0000
  H   H40       1.0  0.45994  0.64725  0.34194  1.0000
  H   H41       1.0  0.36607  0.64484  0.34803  1.0000
  C   C89       1.0  0.35876  0.76711  0.34323  1.0000
  C   C90       1.0  0.37770  0.75009  0.34524  1.0000
  C   C91       1.0  0.41369  0.76819  0.34410  1.0000
  C   C92       1.0  0.43096  0.80420  0.33943  1.0000
  C   C93       1.0  0.41276  0.82233  0.33609  1.0000
  C   C94       1.0  0.37646  0.80311  0.33993  1.0000
  H   H42       1.0  0.45711  0.81723  0.33754  1.0000
  H   H43       1.0  0.36254  0.81529  0.34182  1.0000
  H   H44       1.0  0.36496  0.72388  0.34801  1.0000
  N   N20       1.0  0.42339  0.54998  0.38235  1.0000
  C   C95       1.0  0.43826  0.53035  0.38748  1.0000
  H   H45       1.0  0.42766  0.50933  0.42826  1.0000
  N   N21       1.0  0.45988  0.87606  0.38242  1.0000
  C   C96       1.0  0.47948  0.91055  0.38752  1.0000
  H   H46       1.0  0.50053  0.92099  0.42823  1.0000
  C   C97       1.0  0.32552  0.57953  0.34793  1.0000
  C   C98       1.0  0.26306  0.57866  0.34314  1.0000
  N   N22       1.0  0.27908  0.57991  0.42178  1.0000
  C   C99       1.0  0.30839  0.57847  0.42936  1.0000
  C   C100      1.0  0.32272  0.58212  0.51412  1.0000
  O   O10       1.0  0.30529  0.57744  0.58140  1.0000
  H   H47       1.0  0.34054  0.57558  0.52128  1.0000
  C   C101      1.0  0.43029  0.74862  0.34830  1.0000
  C   C102      1.0  0.43111  0.68704  0.34411  1.0000
  N   N23       1.0  0.42995  0.70188  0.42265  1.0000
  C   C103      1.0  0.43135  0.73260  0.42987  1.0000
  C   C104      1.0  0.42792  0.74353  0.51452  1.0000
  O   O11       1.0  0.43251  0.73079  0.58194  1.0000
  H   H48       1.0  0.43467  0.76795  0.52136  1.0000
  C   C105      1.0  0.26128  0.68429  0.34800  1.0000
  C   C106      1.0  0.32273  0.74670  0.34374  1.0000
  N   N24       1.0  0.30809  0.73062  0.42234  1.0000
  C   C107      1.0  0.27738  0.70125  0.42966  1.0000
  C   C108      1.0  0.26660  0.68674  0.51433  1.0000
  O   O12       1.0  0.27846  0.70503  0.58065  1.0000
  C   C109      1.0  0.65081  0.07454  0.33186  1.0000
  C   C110      1.0  0.57870  0.04098  0.33960  1.0000
  N   N25       1.0  0.59568  0.02935  0.28830  1.0000
  C   C111      1.0  0.63030  0.04431  0.28081  1.0000
  C   C112      1.0  0.64326  0.03043  0.22007  1.0000
  O   O13       1.0  0.62453  0.00285  0.18448  1.0000
  H   H49       1.0  0.66273  0.04666  0.18206  1.0000
  C   C113      1.0  0.93536  0.07899  0.33210  1.0000
  C   C114      1.0  0.96879  0.04031  0.33960  1.0000
  N   N26       1.0  0.98053  0.06900  0.28865  1.0000
  C   C115      1.0  0.96566  0.08875  0.28126  1.0000
  C   C116      1.0  0.97960  0.11575  0.22090  1.0000
  O   O14       1.0  0.00711  0.12410  0.18543  1.0000
  H   H50       1.0  0.96340  0.11871  0.18215  1.0000
  C   C117      1.0  0.93083  0.35898  0.33226  1.0000
  C   C118      1.0  0.96946  0.43108  0.33971  1.0000
  N   N27       1.0  0.94073  0.41410  0.28886  1.0000
  C   C119      1.0  0.92100  0.37949  0.28155  1.0000
  C   C120      1.0  0.89399  0.36646  0.22115  1.0000
  O   O15       1.0  0.88509  0.38537  0.18692  1.0000
  H   H51       1.0  0.89165  0.34765  0.18190  1.0000
  N   N28       1.0  0.81027  0.07976  0.26903  1.0000
  C   C121      1.0  0.77919  0.07734  0.26309  1.0000
  H   H52       1.0  0.77116  0.08082  0.20160  1.0000
  N   N29       1.0  0.92998  0.23304  0.26952  1.0000
  C   C122      1.0  0.93229  0.20432  0.26384  1.0000
  H   H53       1.0  0.92889  0.19287  0.20229  1.0000
  N   N30       1.0  0.77666  0.19968  0.26917  1.0000
  C   C123      1.0  0.80538  0.23070  0.26355  1.0000
  H   H54       1.0  0.81674  0.23906  0.20199  1.0000
  C   C124      1.0  0.54219  0.02270  0.34127  1.0000
  C   C125      1.0  0.52323  0.03990  0.34097  1.0000
  C   C126      1.0  0.98704  0.02206  0.34125  1.0000
  C   C127      1.0  0.96985  0.48591  0.34099  1.0000
  C   C128      1.0  0.98770  0.46758  0.34130  1.0000
  C   C129      1.0  0.52387  0.48653  0.34098  1.0000
  H   H55       1.0  0.94369  0.47260  0.33984  1.0000
  H   H56       1.0  0.53720  0.47371  0.33978  1.0000
  H   H57       1.0  0.53606  0.06604  0.33980  1.0000
  C   C130      1.0  0.74269  0.09429  0.34268  1.0000
  C   C131      1.0  0.75973  0.13022  0.34480  1.0000
  C   C132      1.0  0.74165  0.14813  0.34385  1.0000
  C   C133      1.0  0.70562  0.12942  0.33915  1.0000
  C   C134      1.0  0.68747  0.09311  0.33569  1.0000
  C   C135      1.0  0.70667  0.07601  0.33945  1.0000
  H   H58       1.0  0.69259  0.14254  0.33730  1.0000
  H   H59       1.0  0.69446  0.04992  0.34125  1.0000
  H   H60       1.0  0.78596  0.14368  0.34751  1.0000
  C   C136      1.0  0.91552  0.15105  0.34318  1.0000
  C   C137      1.0  0.87956  0.13212  0.34518  1.0000
  C   C138      1.0  0.86169  0.09614  0.34385  1.0000
  C   C139      1.0  0.88045  0.07888  0.33911  1.0000
  C   C140      1.0  0.91678  0.09707  0.33593  1.0000
  C   C141      1.0  0.93384  0.13335  0.33993  1.0000
  H   H61       1.0  0.86734  0.05274  0.33707  1.0000
  H   H62       1.0  0.95994  0.14725  0.34194  1.0000
  H   H63       1.0  0.86606  0.14484  0.34803  1.0000
  C   C142      1.0  0.85876  0.26711  0.34323  1.0000
  C   C143      1.0  0.87770  0.25009  0.34524  1.0000
  C   C144      1.0  0.91369  0.26819  0.34410  1.0000
  C   C145      1.0  0.93096  0.30421  0.33943  1.0000
  C   C146      1.0  0.91276  0.32233  0.33609  1.0000
  C   C147      1.0  0.87646  0.30311  0.33993  1.0000
  H   H64       1.0  0.95711  0.31723  0.33754  1.0000
  H   H65       1.0  0.86254  0.31528  0.34182  1.0000
  H   H66       1.0  0.86496  0.22388  0.34801  1.0000
  N   N31       1.0  0.63373  0.08639  0.38245  1.0000
  C   C148      1.0  0.59922  0.07146  0.38765  1.0000
  H   H67       1.0  0.58876  0.08195  0.42874  1.0000
  N   N32       1.0  0.92338  0.04998  0.38235  1.0000
  C   C149      1.0  0.93826  0.03035  0.38748  1.0000
  H   H68       1.0  0.92766  0.00932  0.42826  1.0000
  N   N33       1.0  0.95988  0.37605  0.38242  1.0000
  C   C150      1.0  0.97948  0.41055  0.38752  1.0000
  H   H69       1.0  0.00053  0.42099  0.42823  1.0000
  C   C151      1.0  0.82552  0.07953  0.34793  1.0000
  C   C152      1.0  0.76306  0.07866  0.34314  1.0000
  N   N34       1.0  0.77908  0.07991  0.42178  1.0000
  C   C153      1.0  0.80839  0.07847  0.42936  1.0000
  C   C154      1.0  0.82272  0.08213  0.51412  1.0000
  O   O16       1.0  0.80529  0.07744  0.58140  1.0000
  H   H70       1.0  0.84054  0.07558  0.52128  1.0000
  C   C155      1.0  0.93029  0.24862  0.34830  1.0000
  C   C156      1.0  0.93110  0.18704  0.34411  1.0000
  N   N35       1.0  0.92995  0.20188  0.42265  1.0000
  C   C157      1.0  0.93135  0.23260  0.42987  1.0000
  C   C158      1.0  0.92792  0.24354  0.51452  1.0000
  O   O17       1.0  0.93251  0.23079  0.58194  1.0000
  H   H71       1.0  0.93467  0.26795  0.52136  1.0000
  C   C159      1.0  0.76128  0.18429  0.34800  1.0000
  C   C160      1.0  0.82273  0.24670  0.34374  1.0000
  N   N36       1.0  0.80809  0.23062  0.42234  1.0000
  C   C161      1.0  0.77738  0.20125  0.42966  1.0000
  C   C162      1.0  0.76659  0.18674  0.51433  1.0000
  O   O18       1.0  0.77846  0.20503  0.58065  1.0000
  H   H72       1.0  0.74233  0.16875  0.52097  1.0000
  C   C163      1.0  0.65081  0.57454  0.33186  1.0000
  C   C164      1.0  0.57870  0.54098  0.33960  1.0000
  N   N37       1.0  0.59568  0.52935  0.28830  1.0000
  C   C165      1.0  0.63030  0.54431  0.28081  1.0000
  C   C166      1.0  0.64326  0.53043  0.22007  1.0000
  O   O19       1.0  0.62453  0.50285  0.18448  1.0000
  H   H73       1.0  0.66273  0.54666  0.18206  1.0000
  C   C167      1.0  0.93536  0.57899  0.33210  1.0000
  C   C168      1.0  0.96879  0.54031  0.33960  1.0000
  N   N38       1.0  0.98053  0.56900  0.28865  1.0000
  C   C169      1.0  0.96566  0.58875  0.28126  1.0000
  C   C170      1.0  0.97960  0.61575  0.22090  1.0000
  O   O20       1.0  0.00712  0.62410  0.18542  1.0000
  H   H74       1.0  0.96340  0.61871  0.18215  1.0000
  C   C171      1.0  0.93083  0.85899  0.33226  1.0000
  C   C172      1.0  0.96946  0.93108  0.33971  1.0000
  N   N39       1.0  0.94073  0.91410  0.28885  1.0000
  C   C173      1.0  0.92100  0.87949  0.28155  1.0000
  C   C174      1.0  0.89399  0.86646  0.22115  1.0000
  O   O21       1.0  0.88510  0.88537  0.18692  1.0000
  H   H75       1.0  0.89165  0.84765  0.18190  1.0000
  N   N40       1.0  0.81028  0.57976  0.26903  1.0000
  C   C175      1.0  0.77919  0.57734  0.26309  1.0000
  H   H76       1.0  0.77116  0.58082  0.20160  1.0000
  N   N41       1.0  0.92998  0.73304  0.26953  1.0000
  C   C176      1.0  0.93229  0.70432  0.26384  1.0000
  H   H77       1.0  0.92889  0.69286  0.20229  1.0000
  N   N42       1.0  0.77666  0.69968  0.26917  1.0000
  C   C177      1.0  0.80538  0.73070  0.26355  1.0000
  H   H78       1.0  0.81674  0.73906  0.20199  1.0000
  C   C178      1.0  0.54219  0.52270  0.34127  1.0000
  C   C179      1.0  0.52323  0.53990  0.34097  1.0000
  C   C180      1.0  0.98705  0.52206  0.34125  1.0000
  C   C181      1.0  0.96984  0.98591  0.34099  1.0000
  C   C182      1.0  0.98770  0.96757  0.34130  1.0000
  C   C183      1.0  0.52387  0.98653  0.34098  1.0000
  H   H79       1.0  0.94369  0.97260  0.33984  1.0000
  H   H80       1.0  0.53720  0.97371  0.33978  1.0000
  H   H81       1.0  0.53606  0.56604  0.33980  1.0000
  C   C184      1.0  0.74269  0.59429  0.34268  1.0000
  C   C185      1.0  0.75973  0.63022  0.34480  1.0000
  C   C186      1.0  0.74164  0.64813  0.34384  1.0000
  C   C187      1.0  0.70561  0.62942  0.33914  1.0000
  C   C188      1.0  0.68747  0.59311  0.33569  1.0000
  C   C189      1.0  0.70667  0.57601  0.33945  1.0000
  H   H82       1.0  0.69259  0.64254  0.33730  1.0000
  H   H83       1.0  0.69446  0.54992  0.34125  1.0000
  H   H84       1.0  0.78596  0.64368  0.34751  1.0000
  C   C190      1.0  0.91552  0.65104  0.34318  1.0000
  C   C191      1.0  0.87956  0.63212  0.34518  1.0000
  C   C192      1.0  0.86169  0.59614  0.34385  1.0000
  C   C193      1.0  0.88045  0.57888  0.33911  1.0000
  C   C194      1.0  0.91678  0.59707  0.33593  1.0000
  C   C195      1.0  0.93384  0.63335  0.33993  1.0000
  H   H85       1.0  0.86734  0.55274  0.33707  1.0000
  H   H86       1.0  0.95994  0.64725  0.34194  1.0000
  H   H87       1.0  0.86607  0.64484  0.34803  1.0000
  C   C196      1.0  0.85876  0.76711  0.34323  1.0000
  C   C197      1.0  0.87770  0.75009  0.34524  1.0000
  C   C198      1.0  0.91369  0.76819  0.34410  1.0000
  C   C199      1.0  0.93096  0.80420  0.33943  1.0000
  C   C200      1.0  0.91276  0.82233  0.33609  1.0000
  C   C201      1.0  0.87647  0.80311  0.33993  1.0000
  H   H88       1.0  0.95711  0.81723  0.33754  1.0000
  H   H89       1.0  0.86254  0.81529  0.34182  1.0000
  H   H90       1.0  0.86496  0.72388  0.34801  1.0000
  N   N43       1.0  0.63373  0.58639  0.38245  1.0000
  C   C202      1.0  0.59922  0.57146  0.38765  1.0000
  H   H91       1.0  0.58877  0.58195  0.42874  1.0000
  N   N44       1.0  0.92339  0.54998  0.38235  1.0000
  C   C203      1.0  0.93826  0.53035  0.38748  1.0000
  H   H92       1.0  0.92766  0.50933  0.42826  1.0000
  N   N45       1.0  0.95988  0.87606  0.38242  1.0000
  C   C204      1.0  0.97948  0.91055  0.38752  1.0000
  H   H93       1.0  0.00053  0.92099  0.42823  1.0000
  C   C205      1.0  0.82552  0.57953  0.34793  1.0000
  C   C206      1.0  0.76306  0.57866  0.34314  1.0000
  N   N46       1.0  0.77908  0.57991  0.42178  1.0000
  C   C207      1.0  0.80839  0.57847  0.42936  1.0000
  C   C208      1.0  0.82272  0.58212  0.51412  1.0000
  O   O22       1.0  0.80529  0.57744  0.58140  1.0000
  H   H94       1.0  0.84054  0.57558  0.52128  1.0000
  C   C209      1.0  0.93029  0.74862  0.34830  1.0000
  C   C210      1.0  0.93110  0.68704  0.34411  1.0000
  N   N47       1.0  0.92995  0.70188  0.42265  1.0000
  C   C211      1.0  0.93135  0.73260  0.42987  1.0000
  C   C212      1.0  0.92792  0.74353  0.51452  1.0000
  O   O23       1.0  0.93251  0.73079  0.58194  1.0000
  H   H95       1.0  0.93467  0.76795  0.52136  1.0000
  C   C213      1.0  0.76128  0.68429  0.34800  1.0000
  C   C214      1.0  0.82273  0.74670  0.34374  1.0000
  N   N48       1.0  0.80809  0.73062  0.42234  1.0000
  C   C215      1.0  0.77738  0.70125  0.42966  1.0000
  C   C216      1.0  0.76659  0.68674  0.51433  1.0000
  O   O24       1.0  0.77846  0.70503  0.58065  1.0000
  H   H96       1.0  0.74233  0.66875  0.52097  1.0000
