data_image0
_chemical_formula_structural       C3NC3NC5NC5NC36H26C4O4C3NC3NC5NC5NC36H26C4O4C3NC3NC5NC5NC36H26C4O4C3H2C2HNO2NHC3H2C2HNO2NHC3H2C2HNO2NHC3H2C2HNO2NHC3H2C2HNO2NHC3H2C2HNO2NHC16H16C16H16C16H16C7H3NO2NHC7H3NO2NHC7H3NO2NHC7H3NO2NHC7H3NO2NHC7H3NO2NH
_chemical_formula_sum              "C288 N36 H174 O36"
_cell_length_a       75.1473
_cell_length_b       75.1473
_cell_length_c       15.0182
_cell_angle_alpha    89.9614
_cell_angle_beta     90.0386
_cell_angle_gamma    120

_space_group_name_H-M_alt    "P 1"
_space_group_IT_number       1

loop_
  _space_group_symop_operation_xyz
  'x, y, z'

loop_
  _atom_site_type_symbol
  _atom_site_label
  _atom_site_symmetry_multiplicity
  _atom_site_fract_x
  _atom_site_fract_y
  _atom_site_fract_z
  _atom_site_occupancy
  C   C1        1.0  0.01719  0.49250  0.30342  1.0000
  C   C2        1.0  0.03838  0.50367  0.30326  1.0000
  C   C3        1.0  0.04445  0.52453  0.30769  1.0000
  N   N1        1.0  0.02678  0.52522  0.30988  1.0000
  C   C4        1.0  0.00984  0.50628  0.30754  1.0000
  C   C5        1.0  0.98873  0.50062  0.30934  1.0000
  C   C6        1.0  0.98124  0.51460  0.31093  1.0000
  N   N2        1.0  0.99231  0.53533  0.30926  1.0000
  C   C7        1.0  0.98015  0.54381  0.31103  1.0000
  C   C8        1.0  0.95995  0.52744  0.31404  1.0000
  C   C9        1.0  0.96062  0.50942  0.31382  1.0000
  C   C10       1.0  0.98632  0.56500  0.30960  1.0000
  C   C11       1.0  0.00702  0.58138  0.30790  1.0000
  N   N3        1.0  0.02469  0.58068  0.31017  1.0000
  C   C12       1.0  0.04163  0.59962  0.30790  1.0000
  C   C13       1.0  0.03428  0.61341  0.30374  1.0000
  C   C14       1.0  0.01310  0.60223  0.30346  1.0000
  C   C15       1.0  0.06274  0.60529  0.30984  1.0000
  C   C16       1.0  0.07023  0.59132  0.31139  1.0000
  N   N4        1.0  0.05916  0.57058  0.30954  1.0000
  C   C17       1.0  0.07132  0.56211  0.31116  1.0000
  C   C18       1.0  0.09152  0.57848  0.31422  1.0000
  C   C19       1.0  0.09085  0.59649  0.31420  1.0000
  C   C20       1.0  0.06515  0.54091  0.30946  1.0000
  C   C21       1.0  0.08097  0.53576  0.30733  1.0000
  C   C22       1.0  0.09069  0.53635  0.22611  1.0000
  C   C23       1.0  0.10674  0.53186  0.22407  1.0000
  C   C24       1.0  0.11329  0.52648  0.30284  1.0000
  C   C25       1.0  0.12996  0.52259  0.30072  1.0000
  C   C26       1.0  0.16352  0.51476  0.29330  1.0000
  C   C27       1.0  0.16519  0.53291  0.25655  1.0000
  C   C28       1.0  0.14874  0.53676  0.26006  1.0000
  C   C29       1.0  0.07751  0.62662  0.31085  1.0000
  C   C30       1.0  0.08509  0.63759  0.23045  1.0000
  C   C31       1.0  0.09946  0.65875  0.23190  1.0000
  C   C32       1.0  0.10668  0.66942  0.31353  1.0000
  C   C33       1.0  0.12155  0.69078  0.31502  1.0000
  C   C34       1.0  0.11949  0.70495  0.26000  1.0000
  C   C35       1.0  0.13430  0.72599  0.26136  1.0000
  C   C36       1.0  0.15187  0.73357  0.31663  1.0000
  C   C37       1.0  0.97051  0.57017  0.30762  1.0000
  C   C38       1.0  0.93857  0.58000  0.30314  1.0000
  C   C39       1.0  0.94485  0.57431  0.22450  1.0000
  C   C40       1.0  0.96072  0.56956  0.22652  1.0000
  C   C41       1.0  0.92220  0.58433  0.30093  1.0000
  C   C42       1.0  0.90326  0.57040  0.26073  1.0000
  C   C43       1.0  0.88712  0.57471  0.25700  1.0000
  C   C44       1.0  0.88927  0.59310  0.29311  1.0000
  C   C45       1.0  0.97394  0.47930  0.31021  1.0000
  C   C46       1.0  0.96616  0.46843  0.22975  1.0000
  C   C47       1.0  0.95158  0.44732  0.23109  1.0000
  C   C48       1.0  0.94435  0.43661  0.31267  1.0000
  C   C49       1.0  0.92919  0.41534  0.31406  1.0000
  C   C50       1.0  0.89827  0.37276  0.31551  1.0000
  C   C51       1.0  0.91572  0.38008  0.25975  1.0000
  C   C52       1.0  0.93082  0.40103  0.25844  1.0000
  H   H1        1.0  0.91743  0.37030  0.21790  1.0000
  H   H2        1.0  0.94321  0.40570  0.21714  1.0000
  H   H3        1.0  0.94594  0.43994  0.17171  1.0000
  H   H4        1.0  0.97099  0.47581  0.16982  1.0000
  H   H5        1.0  0.00874  0.47682  0.30077  1.0000
  H   H6        1.0  0.04763  0.49733  0.30049  1.0000
  H   H7        1.0  0.02631  0.53772  0.31486  1.0000
  H   H8        1.0  0.02516  0.56819  0.31529  1.0000
  H   H9        1.0  0.94801  0.49502  0.31560  1.0000
  H   H10       1.0  0.94676  0.52821  0.31616  1.0000
  H   H11       1.0  0.96496  0.56551  0.16861  1.0000
  H   H12       1.0  0.93804  0.57376  0.16471  1.0000
  H   H13       1.0  0.00385  0.60858  0.30061  1.0000
  H   H14       1.0  0.04273  0.62909  0.30115  1.0000
  H   H15       1.0  0.10471  0.57770  0.31618  1.0000
  H   H16       1.0  0.10346  0.61090  0.31599  1.0000
  H   H17       1.0  0.08020  0.63025  0.17046  1.0000
  H   H18       1.0  0.10492  0.66622  0.17254  1.0000
  H   H19       1.0  0.13230  0.73566  0.21988  1.0000
  H   H20       1.0  0.10703  0.70009  0.21901  1.0000
  H   H21       1.0  0.15070  0.55017  0.23339  1.0000
  H   H22       1.0  0.17854  0.54373  0.22710  1.0000
  H   H23       1.0  0.11353  0.53246  0.16424  1.0000
  H   H24       1.0  0.08631  0.54027  0.16816  1.0000
  H   H25       1.0  0.90096  0.55683  0.23449  1.0000
  H   H26       1.0  0.87363  0.56405  0.22791  1.0000
  C   C53       1.0  0.16709  0.75484  0.31673  1.0000
  C   C54       1.0  0.18026  0.51092  0.28653  1.0000
  C   C55       1.0  0.88278  0.35159  0.31564  1.0000
  C   C56       1.0  0.87285  0.59742  0.28622  1.0000
  O   O1        1.0  0.16114  0.76856  0.29433  1.0000
  O   O2        1.0  0.19432  0.52106  0.22172  1.0000
  O   O3        1.0  0.88836  0.33762  0.29284  1.0000
  O   O4        1.0  0.85864  0.58742  0.22173  1.0000
  C   C57       1.0  0.58811  0.60848  0.30402  1.0000
  C   C58       1.0  0.57694  0.61850  0.30387  1.0000
  C   C59       1.0  0.55609  0.60372  0.30829  1.0000
  N   N5        1.0  0.55539  0.58535  0.31048  1.0000
  C   C60       1.0  0.57433  0.58735  0.30812  1.0000
  C   C61       1.0  0.57999  0.57191  0.30992  1.0000
  C   C62       1.0  0.56601  0.55044  0.31151  1.0000
  N   N6        1.0  0.54528  0.54078  0.30981  1.0000
  C   C63       1.0  0.53680  0.52014  0.31151  1.0000
  C   C64       1.0  0.55317  0.51631  0.31448  1.0000
  C   C65       1.0  0.57119  0.53500  0.31432  1.0000
  C   C66       1.0  0.51560  0.50511  0.31007  1.0000
  C   C67       1.0  0.49923  0.50945  0.30848  1.0000
  N   N7        1.0  0.49992  0.52781  0.31075  1.0000
  C   C68       1.0  0.48098  0.52581  0.30854  1.0000
  C   C69       1.0  0.46720  0.50468  0.30452  1.0000
  C   C70       1.0  0.47837  0.49466  0.30422  1.0000
  C   C71       1.0  0.47532  0.54125  0.31038  1.0000
  C   C72       1.0  0.48930  0.56272  0.31189  1.0000
  N   N8        1.0  0.51003  0.57238  0.31009  1.0000
  C   C73       1.0  0.51851  0.59302  0.31170  1.0000
  C   C74       1.0  0.50214  0.59685  0.31472  1.0000
  C   C75       1.0  0.48412  0.57816  0.31469  1.0000
  C   C76       1.0  0.53971  0.60805  0.31005  1.0000
  C   C77       1.0  0.54485  0.62901  0.30792  1.0000
  C   C78       1.0  0.54426  0.63816  0.22670  1.0000
  C   C79       1.0  0.54875  0.65869  0.22465  1.0000
  C   C80       1.0  0.55414  0.67061  0.30342  1.0000
  C   C81       1.0  0.55803  0.69117  0.30129  1.0000
  C   C82       1.0  0.56586  0.73256  0.29387  1.0000
  C   C83       1.0  0.54771  0.71610  0.25713  1.0000
  C   C84       1.0  0.54386  0.69579  0.26067  1.0000
  C   C85       1.0  0.45399  0.53470  0.31141  1.0000
  C   C86       1.0  0.44302  0.53132  0.23101  1.0000
  C   C87       1.0  0.42186  0.52455  0.23248  1.0000
  C   C88       1.0  0.41119  0.52107  0.31412  1.0000
  C   C89       1.0  0.38983  0.51458  0.31562  1.0000
  C   C90       1.0  0.37566  0.49838  0.26060  1.0000
  C   C91       1.0  0.35462  0.49214  0.26197  1.0000
  C   C92       1.0  0.34704  0.50212  0.31723  1.0000
  C   C93       1.0  0.51044  0.48414  0.30810  1.0000
  C   C94       1.0  0.50061  0.44238  0.30363  1.0000
  C   C95       1.0  0.50628  0.45436  0.22497  1.0000
  C   C96       1.0  0.51103  0.47497  0.22699  1.0000
  C   C97       1.0  0.49630  0.42168  0.30144  1.0000
  C   C98       1.0  0.51024  0.41670  0.26119  1.0000
  C   C99       1.0  0.50595  0.39625  0.25749  1.0000
  C   C100      1.0  0.48758  0.38000  0.29370  1.0000
  C   C101      1.0  0.60131  0.57844  0.31081  1.0000
  C   C102      1.0  0.61219  0.58155  0.23037  1.0000
  C   C103      1.0  0.63329  0.58807  0.23173  1.0000
  C   C104      1.0  0.64400  0.59152  0.31331  1.0000
  C   C105      1.0  0.66527  0.59762  0.31472  1.0000
  C   C106      1.0  0.70784  0.60926  0.31619  1.0000
  C   C107      1.0  0.70053  0.61941  0.26043  1.0000
  C   C108      1.0  0.67958  0.61357  0.25914  1.0000
  H   H27       1.0  0.71032  0.63092  0.21859  1.0000
  H   H28       1.0  0.67492  0.62130  0.21783  1.0000
  H   H29       1.0  0.64068  0.58983  0.17236  1.0000
  H   H30       1.0  0.60481  0.57903  0.17042  1.0000
  H   H31       1.0  0.60379  0.61571  0.30136  1.0000
  H   H32       1.0  0.58329  0.63410  0.30109  1.0000
  H   H33       1.0  0.54290  0.57239  0.31548  1.0000
  H   H34       1.0  0.51243  0.54077  0.31548  1.0000
  H   H35       1.0  0.58559  0.53678  0.31607  1.0000
  H   H36       1.0  0.55239  0.50234  0.31654  1.0000
  H   H37       1.0  0.51507  0.48327  0.16907  1.0000
  H   H38       1.0  0.50683  0.44812  0.16518  1.0000
  H   H39       1.0  0.47202  0.47906  0.30141  1.0000
  H   H40       1.0  0.45152  0.49744  0.30199  1.0000
  H   H41       1.0  0.50292  0.61081  0.31669  1.0000
  H   H42       1.0  0.46972  0.57637  0.31645  1.0000
  H   H43       1.0  0.45035  0.53378  0.17102  1.0000
  H   H44       1.0  0.41439  0.52254  0.17312  1.0000
  H   H45       1.0  0.34494  0.48048  0.22051  1.0000
  H   H46       1.0  0.38051  0.49076  0.21966  1.0000
  H   H47       1.0  0.53045  0.68436  0.23401  1.0000
  H   H48       1.0  0.53689  0.71864  0.22772  1.0000
  H   H49       1.0  0.54815  0.66491  0.16482  1.0000
  H   H50       1.0  0.54034  0.62988  0.16875  1.0000
  H   H51       1.0  0.52379  0.42798  0.23488  1.0000
  H   H52       1.0  0.51661  0.39344  0.22832  1.0000
  C   C109      1.0  0.32578  0.49608  0.31727  1.0000
  C   C110      1.0  0.56971  0.75315  0.28710  1.0000
  C   C111      1.0  0.72901  0.61492  0.31629  1.0000
  C   C112      1.0  0.48328  0.35927  0.28682  1.0000
  O   O5        1.0  0.31204  0.47640  0.29507  1.0000
  O   O6        1.0  0.55956  0.75709  0.22234  1.0000
  O   O7        1.0  0.74299  0.63447  0.29348  1.0000
  O   O8        1.0  0.49326  0.35508  0.22220  1.0000
  C   C113      1.0  0.47213  0.06342  0.30483  1.0000
  C   C114      1.0  0.46212  0.04223  0.30469  1.0000
  C   C115      1.0  0.47690  0.03616  0.30896  1.0000
  N   N9        1.0  0.49527  0.05383  0.31111  1.0000
  C   C116      1.0  0.49327  0.07077  0.30878  1.0000
  C   C117      1.0  0.50871  0.09188  0.31047  1.0000
  C   C118      1.0  0.53018  0.09937  0.31209  1.0000
  N   N10       1.0  0.53984  0.08830  0.31048  1.0000
  C   C119      1.0  0.56048  0.10046  0.31224  1.0000
  C   C120      1.0  0.56431  0.12066  0.31513  1.0000
  C   C121      1.0  0.54562  0.11999  0.31488  1.0000
  C   C122      1.0  0.57551  0.09429  0.31083  1.0000
  C   C123      1.0  0.57118  0.07359  0.30921  1.0000
  N   N11       1.0  0.55281  0.05592  0.31153  1.0000
  C   C124      1.0  0.55482  0.03898  0.30928  1.0000
  C   C125      1.0  0.57595  0.04633  0.30513  1.0000
  C   C126      1.0  0.58596  0.06751  0.30479  1.0000
  C   C127      1.0  0.53938  0.01787  0.31119  1.0000
  C   C128      1.0  0.51791  0.01038  0.31263  1.0000
  N   N12       1.0  0.50825  0.02145  0.31080  1.0000
  C   C129      1.0  0.48761  0.00929  0.31232  1.0000
  C   C130      1.0  0.48378  0.98909  0.31532  1.0000
  C   C131      1.0  0.50247  0.98976  0.31538  1.0000
  C   C132      1.0  0.47258  0.01546  0.31065  1.0000
  C   C133      1.0  0.45162  0.99964  0.30844  1.0000
  C   C134      1.0  0.44248  0.98995  0.22714  1.0000
  C   C135      1.0  0.42195  0.97390  0.22500  1.0000
  C   C136      1.0  0.41002  0.96731  0.30373  1.0000
  C   C137      1.0  0.38947  0.95064  0.30149  1.0000
  C   C138      1.0  0.34809  0.91707  0.29375  1.0000
  C   C139      1.0  0.36456  0.91542  0.25702  1.0000
  C   C140      1.0  0.38486  0.93188  0.26070  1.0000
  C   C141      1.0  0.54593  0.00310  0.31216  1.0000
  C   C142      1.0  0.54930  0.99552  0.23175  1.0000
  C   C143      1.0  0.55609  0.98114  0.23318  1.0000
  C   C144      1.0  0.55955  0.97391  0.31480  1.0000
  C   C145      1.0  0.56604  0.95904  0.31625  1.0000
  C   C146      1.0  0.58224  0.96109  0.26123  1.0000
  C   C147      1.0  0.58847  0.94628  0.26255  1.0000
  C   C148      1.0  0.57849  0.92870  0.31777  1.0000
  C   C149      1.0  0.59648  0.11010  0.30874  1.0000
  C   C150      1.0  0.63824  0.14204  0.30400  1.0000
  C   C151      1.0  0.62624  0.13573  0.22542  1.0000
  C   C152      1.0  0.60562  0.11987  0.22757  1.0000
  C   C153      1.0  0.65894  0.15842  0.30167  1.0000
  C   C154      1.0  0.66391  0.17734  0.26133  1.0000
  C   C155      1.0  0.68437  0.19349  0.25747  1.0000
  C   C156      1.0  0.70063  0.19136  0.29356  1.0000
  C   C157      1.0  0.50218  0.10667  0.31137  1.0000
  C   C158      1.0  0.49905  0.11444  0.23094  1.0000
  C   C159      1.0  0.49253  0.12902  0.23231  1.0000
  C   C160      1.0  0.48908  0.13626  0.31390  1.0000
  C   C161      1.0  0.48298  0.15142  0.31534  1.0000
  C   C162      1.0  0.47131  0.18234  0.31688  1.0000
  C   C163      1.0  0.46117  0.16489  0.26109  1.0000
  C   C164      1.0  0.46701  0.14979  0.25977  1.0000
  H   H53       1.0  0.44966  0.16318  0.21927  1.0000
  H   H54       1.0  0.45929  0.13741  0.21843  1.0000
  H   H55       1.0  0.49077  0.13466  0.17294  1.0000
  H   H56       1.0  0.50158  0.10961  0.17099  1.0000
  H   H57       1.0  0.46490  0.07187  0.30222  1.0000
  H   H58       1.0  0.44651  0.03298  0.30199  1.0000
  H   H59       1.0  0.50824  0.05430  0.31571  1.0000
  H   H60       1.0  0.53986  0.05545  0.31663  1.0000
  H   H61       1.0  0.54383  0.13260  0.31658  1.0000
  H   H62       1.0  0.57828  0.13385  0.31720  1.0000
  H   H63       1.0  0.59730  0.11560  0.16969  1.0000
  H   H64       1.0  0.63246  0.14252  0.16559  1.0000
  H   H65       1.0  0.60156  0.07676  0.30190  1.0000
  H   H66       1.0  0.58318  0.03788  0.30250  1.0000
  H   H67       1.0  0.46982  0.97590  0.31724  1.0000
  H   H68       1.0  0.50426  0.97715  0.31714  1.0000
  H   H69       1.0  0.54683  0.00041  0.17177  1.0000
  H   H70       1.0  0.55807  0.97568  0.17381  1.0000
  H   H71       1.0  0.60013  0.94828  0.22107  1.0000
  H   H72       1.0  0.58985  0.97357  0.22028  1.0000
  H   H73       1.0  0.39631  0.92993  0.23401  1.0000
  H   H74       1.0  0.36204  0.90208  0.22746  1.0000
  H   H75       1.0  0.41575  0.96712  0.16512  1.0000
  H   H76       1.0  0.45077  0.99435  0.16922  1.0000
  H   H77       1.0  0.65263  0.17963  0.23514  1.0000
  H   H78       1.0  0.68717  0.20696  0.22829  1.0000
  C   C165      1.0  0.58453  0.91348  0.31777  1.0000
  C   C166      1.0  0.32750  0.90033  0.28678  1.0000
  C   C167      1.0  0.46563  0.19783  0.31707  1.0000
  C   C168      1.0  0.72136  0.20778  0.28649  1.0000
  O   O9        1.0  0.60420  0.91943  0.29561  1.0000
  O   O10       1.0  0.32359  0.88628  0.22195  1.0000
  O   O11       1.0  0.44609  0.19227  0.29403  1.0000
  O   O12       1.0  0.72552  0.22197  0.22194  1.0000
  C   C169      1.0  0.29910  0.50546  0.32909  1.0000
  C   C170      1.0  0.27408  0.51618  0.29126  1.0000
  C   C171      1.0  0.29419  0.51947  0.28865  1.0000
  H   H79       1.0  0.27109  0.52671  0.26179  1.0000
  H   H80       1.0  0.30531  0.53223  0.25668  1.0000
  C   C172      1.0  0.20750  0.49185  0.26542  1.0000
  C   C173      1.0  0.22627  0.49179  0.26211  1.0000
  H   H81       1.0  0.19892  0.48870  0.20861  1.0000
  N   N13       1.0  0.23323  0.48754  0.18148  1.0000
  O   O13       1.0  0.22085  0.46983  0.15322  1.0000
  O   O14       1.0  0.23580  0.50037  0.12190  1.0000
  N   N14       1.0  0.31916  0.50983  0.32919  1.0000
  H   H82       1.0  0.32958  0.52437  0.33014  1.0000
  C   C174      1.0  0.57513  0.87741  0.32962  1.0000
  C   C175      1.0  0.56443  0.84168  0.29179  1.0000
  C   C176      1.0  0.56113  0.85850  0.28916  1.0000
  H   H83       1.0  0.55390  0.82817  0.26234  1.0000
  H   H84       1.0  0.54837  0.85686  0.25718  1.0000
  C   C177      1.0  0.58879  0.79947  0.26601  1.0000
  C   C178      1.0  0.58884  0.81829  0.26267  1.0000
  H   H85       1.0  0.59192  0.79404  0.20919  1.0000
  N   N15       1.0  0.59309  0.82952  0.18202  1.0000
  O   O15       1.0  0.61080  0.83486  0.15377  1.0000
  O   O16       1.0  0.58026  0.81927  0.12246  1.0000
  N   N16       1.0  0.57078  0.89310  0.32956  1.0000
  H   H86       1.0  0.55624  0.88899  0.33058  1.0000
  C   C179      1.0  0.20315  0.78152  0.32846  1.0000
  C   C180      1.0  0.23889  0.80654  0.29084  1.0000
  C   C181      1.0  0.22207  0.78644  0.28812  1.0000
  H   H87       1.0  0.25241  0.80952  0.26146  1.0000
  H   H88       1.0  0.22371  0.77531  0.25619  1.0000
  C   C182      1.0  0.28119  0.87310  0.26533  1.0000
  C   C183      1.0  0.26235  0.85435  0.26186  1.0000
  H   H89       1.0  0.28665  0.88169  0.20855  1.0000
  N   N17       1.0  0.25116  0.84741  0.18112  1.0000
  O   O17       1.0  0.24585  0.85981  0.15277  1.0000
  O   O18       1.0  0.26142  0.84484  0.12166  1.0000
  N   N18       1.0  0.18746  0.76146  0.32851  1.0000
  H   H90       1.0  0.19158  0.75104  0.32948  1.0000
  C   C184      1.0  0.75523  0.60495  0.32927  1.0000
  C   C185      1.0  0.77985  0.59369  0.29195  1.0000
  C   C186      1.0  0.75985  0.59070  0.28927  1.0000
  H   H91       1.0  0.78263  0.58300  0.26274  1.0000
  H   H92       1.0  0.74860  0.57799  0.25749  1.0000
  C   C187      1.0  0.84628  0.61725  0.26538  1.0000
  C   C188      1.0  0.82766  0.61760  0.26223  1.0000
  H   H93       1.0  0.85480  0.62026  0.20849  1.0000
  N   N19       1.0  0.82078  0.62201  0.18166  1.0000
  O   O19       1.0  0.83331  0.63966  0.15335  1.0000
  O   O20       1.0  0.81799  0.60913  0.12208  1.0000
  N   N20       1.0  0.73530  0.60093  0.32901  1.0000
  H   H94       1.0  0.72469  0.58646  0.33049  1.0000
  C   C189      1.0  0.47561  0.23403  0.32978  1.0000
  C   C190      1.0  0.48690  0.26993  0.29254  1.0000
  C   C191      1.0  0.48987  0.25291  0.28985  1.0000
  H   H95       1.0  0.49760  0.28340  0.26335  1.0000
  H   H96       1.0  0.50259  0.25437  0.25813  1.0000
  C   C192      1.0  0.46343  0.31287  0.26594  1.0000
  C   C193      1.0  0.46304  0.29388  0.26278  1.0000
  H   H97       1.0  0.46043  0.31839  0.20904  1.0000
  N   N21       1.0  0.45863  0.28261  0.18220  1.0000
  O   O21       1.0  0.44099  0.27753  0.15385  1.0000
  O   O22       1.0  0.47153  0.29272  0.12264  1.0000
  N   N22       1.0  0.47963  0.21811  0.32967  1.0000
  H   H98       1.0  0.49410  0.22199  0.33116  1.0000
  C   C194      1.0  0.84658  0.32536  0.32857  1.0000
  C   C195      1.0  0.81068  0.30074  0.29148  1.0000
  C   C196      1.0  0.82769  0.32074  0.28868  1.0000
  H   H99       1.0  0.79720  0.29797  0.26237  1.0000
  H   H100      1.0  0.82622  0.33199  0.25692  1.0000
  C   C197      1.0  0.76775  0.23433  0.26536  1.0000
  C   C198      1.0  0.78673  0.25293  0.26203  1.0000
  H   H101      1.0  0.76219  0.22580  0.20851  1.0000
  N   N23       1.0  0.79796  0.25979  0.18136  1.0000
  O   O23       1.0  0.80303  0.24723  0.15300  1.0000
  O   O24       1.0  0.78783  0.26257  0.12187  1.0000
  N   N24       1.0  0.86250  0.34530  0.32823  1.0000
  H   H102      1.0  0.85863  0.35590  0.32972  1.0000
  C   C199      1.0  0.10322  0.52555  0.38375  1.0000
  C   C200      1.0  0.08732  0.53027  0.38616  1.0000
  C   C201      1.0  0.12818  0.50451  0.33809  1.0000
  C   C202      1.0  0.14464  0.50060  0.33385  1.0000
  C   C203      1.0  0.09896  0.65825  0.39375  1.0000
  C   C204      1.0  0.08451  0.63712  0.39256  1.0000
  C   C205      1.0  0.15374  0.71942  0.37247  1.0000
  C   C206      1.0  0.13887  0.69842  0.37171  1.0000
  C   C207      1.0  0.96440  0.57590  0.38634  1.0000
  C   C208      1.0  0.94868  0.58089  0.38395  1.0000
  C   C209      1.0  0.90831  0.60703  0.33320  1.0000
  C   C210      1.0  0.92445  0.60266  0.33765  1.0000
  C   C211      1.0  0.96697  0.46875  0.39186  1.0000
  C   C212      1.0  0.95231  0.44768  0.39293  1.0000
  C   C213      1.0  0.91197  0.40796  0.37115  1.0000
  C   C214      1.0  0.89681  0.38706  0.37184  1.0000
  H   H103      1.0  0.88478  0.38241  0.41515  1.0000
  H   H104      1.0  0.91010  0.41781  0.41192  1.0000
  H   H105      1.0  0.94770  0.44043  0.45321  1.0000
  H   H106      1.0  0.97248  0.47633  0.45097  1.0000
  H   H107      1.0  0.97127  0.57638  0.44588  1.0000
  H   H108      1.0  0.94431  0.58466  0.44223  1.0000
  H   H109      1.0  0.07911  0.62947  0.45164  1.0000
  H   H110      1.0  0.10357  0.66546  0.45408  1.0000
  H   H111      1.0  0.14104  0.68869  0.41204  1.0000
  H   H112      1.0  0.16587  0.72424  0.41541  1.0000
  H   H113      1.0  0.08053  0.52985  0.44580  1.0000
  H   H114      1.0  0.10780  0.52203  0.44214  1.0000
  H   H115      1.0  0.14239  0.48697  0.35883  1.0000
  H   H116      1.0  0.11466  0.49371  0.36649  1.0000
  H   H117      1.0  0.93811  0.61330  0.36559  1.0000
  H   H118      1.0  0.91090  0.62082  0.35766  1.0000
  C   C215      1.0  0.55506  0.66145  0.38434  1.0000
  C   C216      1.0  0.55035  0.64083  0.38674  1.0000
  C   C217      1.0  0.57612  0.70747  0.33863  1.0000
  C   C218      1.0  0.58002  0.72783  0.33441  1.0000
  C   C219      1.0  0.42237  0.52452  0.39433  1.0000
  C   C220      1.0  0.44350  0.53119  0.39313  1.0000
  C   C221      1.0  0.36120  0.51814  0.37305  1.0000
  C   C222      1.0  0.38220  0.52426  0.37226  1.0000
  C   C223      1.0  0.50472  0.47228  0.38684  1.0000
  C   C224      1.0  0.49974  0.45158  0.38445  1.0000
  C   C225      1.0  0.47365  0.38508  0.33389  1.0000
  C   C226      1.0  0.47799  0.40558  0.33823  1.0000
  C   C227      1.0  0.61186  0.58198  0.39247  1.0000
  C   C228      1.0  0.63292  0.58839  0.39357  1.0000
  C   C229      1.0  0.67264  0.58776  0.37181  1.0000
  C   C230      1.0  0.69353  0.59348  0.37251  1.0000
  H   H119      1.0  0.69817  0.58608  0.41581  1.0000
  H   H120      1.0  0.66278  0.57602  0.41256  1.0000
  H   H121      1.0  0.64017  0.59099  0.45386  1.0000
  H   H122      1.0  0.60427  0.57989  0.45158  1.0000
  H   H123      1.0  0.50426  0.47866  0.44638  1.0000
  H   H124      1.0  0.49599  0.44343  0.44275  1.0000
  H   H125      1.0  0.45114  0.53341  0.45220  1.0000
  H   H126      1.0  0.41515  0.52188  0.45467  1.0000
  H   H127      1.0  0.39193  0.53615  0.41264  1.0000
  H   H128      1.0  0.35638  0.52543  0.41599  1.0000
  H   H129      1.0  0.55077  0.63444  0.44638  1.0000
  H   H130      1.0  0.55860  0.66954  0.44271  1.0000
  H   H131      1.0  0.59366  0.73921  0.35938  1.0000
  H   H132      1.0  0.58691  0.70473  0.36704  1.0000
  H   H133      1.0  0.46735  0.40858  0.36624  1.0000
  H   H134      1.0  0.45986  0.37387  0.35834  1.0000
  C   C231      1.0  0.41917  0.97734  0.38472  1.0000
  C   C232      1.0  0.43979  0.99326  0.38721  1.0000
  C   C233      1.0  0.37316  0.95239  0.33889  1.0000
  C   C234      1.0  0.35280  0.93593  0.33445  1.0000
  C   C235      1.0  0.55611  0.98163  0.39503  1.0000
  C   C236      1.0  0.54945  0.99609  0.39387  1.0000
  C   C237      1.0  0.56247  0.92683  0.37359  1.0000
  C   C238      1.0  0.55636  0.94171  0.37289  1.0000
  C   C239      1.0  0.60837  0.11624  0.38741  1.0000
  C   C240      1.0  0.62907  0.13197  0.38489  1.0000
  C   C241      1.0  0.69555  0.17234  0.33378  1.0000
  C   C242      1.0  0.67504  0.15619  0.33834  1.0000
  C   C243      1.0  0.49864  0.11364  0.39304  1.0000
  C   C244      1.0  0.49223  0.12830  0.39415  1.0000
  C   C245      1.0  0.49282  0.16864  0.37245  1.0000
  C   C246      1.0  0.48709  0.18380  0.37320  1.0000
  H   H135      1.0  0.49449  0.19583  0.41649  1.0000
  H   H136      1.0  0.50457  0.17051  0.41317  1.0000
  H   H137      1.0  0.48962  0.13292  0.45445  1.0000
  H   H138      1.0  0.50073  0.10813  0.45214  1.0000
  H   H139      1.0  0.60200  0.10939  0.44699  1.0000
  H   H140      1.0  0.63723  0.13635  0.44314  1.0000
  H   H141      1.0  0.54723  0.00149  0.45295  1.0000
  H   H142      1.0  0.55874  0.97702  0.45535  1.0000
  H   H143      1.0  0.54446  0.93954  0.41324  1.0000
  H   H144      1.0  0.55518  0.91470  0.41652  1.0000
  H   H145      1.0  0.44617  0.00003  0.44691  1.0000
  H   H146      1.0  0.41107  0.97275  0.44307  1.0000
  H   H147      1.0  0.34141  0.93817  0.35940  1.0000
  H   H148      1.0  0.37588  0.96590  0.36731  1.0000
  H   H149      1.0  0.67205  0.14255  0.36640  1.0000
  H   H150      1.0  0.70676  0.16976  0.35820  1.0000
  C   C247      1.0  0.28332  0.48830  0.37448  1.0000
  C   C248      1.0  0.26317  0.48501  0.37771  1.0000
  C   C249      1.0  0.25836  0.49889  0.33570  1.0000
  C   C250      1.0  0.23833  0.49630  0.34057  1.0000
  C   C251      1.0  0.23115  0.50011  0.42183  1.0000
  C   C252      1.0  0.21235  0.50017  0.42255  1.0000
  C   C253      1.0  0.20077  0.49692  0.34412  1.0000
  H   H151      1.0  0.20763  0.50376  0.48033  1.0000
  H   H152      1.0  0.28652  0.47840  0.40812  1.0000
  H   H153      1.0  0.25212  0.47258  0.41174  1.0000
  N   N25       1.0  0.24325  0.50470  0.50002  1.0000
  O   O25       1.0  0.23376  0.49189  0.56072  1.0000
  O   O26       1.0  0.24866  0.52240  0.52868  1.0000
  N   N26       1.0  0.18366  0.49906  0.34540  1.0000
  H   H154      1.0  0.17547  0.49475  0.39965  1.0000
  C   C254      1.0  0.59230  0.87879  0.37495  1.0000
  C   C255      1.0  0.59560  0.86193  0.37821  1.0000
  C   C256      1.0  0.58172  0.84325  0.33624  1.0000
  C   C257      1.0  0.58432  0.82581  0.34111  1.0000
  C   C258      1.0  0.58051  0.81480  0.42238  1.0000
  C   C259      1.0  0.58048  0.79596  0.42316  1.0000
  C   C260      1.0  0.58371  0.78765  0.34472  1.0000
  H   H155      1.0  0.57685  0.78762  0.48091  1.0000
  H   H156      1.0  0.60220  0.89188  0.40859  1.0000
  H   H157      1.0  0.60803  0.86331  0.41224  1.0000
  N   N27       1.0  0.57590  0.82228  0.50055  1.0000
  O   O27       1.0  0.58871  0.82561  0.56128  1.0000
  O   O28       1.0  0.55821  0.80998  0.52919  1.0000
  N   N28       1.0  0.58156  0.76839  0.34600  1.0000
  H   H158      1.0  0.58587  0.76449  0.40025  1.0000
  C   C261      1.0  0.20177  0.79730  0.37382  1.0000
  C   C262      1.0  0.21863  0.81744  0.37714  1.0000
  C   C263      1.0  0.23733  0.82226  0.33526  1.0000
  C   C264      1.0  0.25477  0.84228  0.34027  1.0000
  C   C265      1.0  0.26575  0.84944  0.42163  1.0000
  C   C266      1.0  0.28462  0.86823  0.42252  1.0000
  C   C267      1.0  0.29297  0.87981  0.34415  1.0000
  H   H159      1.0  0.29291  0.87293  0.48037  1.0000
  H   H160      1.0  0.18867  0.79409  0.40739  1.0000
  H   H161      1.0  0.21725  0.82849  0.41115  1.0000
  N   N29       1.0  0.25821  0.83733  0.49977  1.0000
  O   O29       1.0  0.25489  0.84681  0.56042  1.0000
  O   O30       1.0  0.27048  0.83190  0.52856  1.0000
  N   N30       1.0  0.31224  0.89690  0.34557  1.0000
  H   H162      1.0  0.31607  0.90509  0.39983  1.0000
  C   C268      1.0  0.77119  0.62204  0.37432  1.0000
  C   C269      1.0  0.79122  0.62502  0.37763  1.0000
  C   C270      1.0  0.79574  0.61091  0.33603  1.0000
  C   C271      1.0  0.81567  0.61323  0.34076  1.0000
  C   C272      1.0  0.82276  0.60926  0.42195  1.0000
  C   C273      1.0  0.84142  0.60892  0.42256  1.0000
  C   C274      1.0  0.85290  0.61200  0.34401  1.0000
  H   H163      1.0  0.84604  0.60517  0.48023  1.0000
  H   H164      1.0  0.76820  0.63212  0.40755  1.0000
  H   H165      1.0  0.80241  0.63742  0.41136  1.0000
  N   N31       1.0  0.81072  0.60480  0.50020  1.0000
  O   O31       1.0  0.82035  0.61755  0.56090  1.0000
  O   O32       1.0  0.80510  0.58704  0.52883  1.0000
  N   N32       1.0  0.86979  0.60950  0.34507  1.0000
  H   H166      1.0  0.87804  0.61369  0.39923  1.0000
  C   C275      1.0  0.45852  0.23290  0.37482  1.0000
  C   C276      1.0  0.45555  0.24995  0.37815  1.0000
  C   C277      1.0  0.46968  0.26860  0.33657  1.0000
  C   C278      1.0  0.46738  0.28621  0.34132  1.0000
  C   C279      1.0  0.47135  0.29725  0.42253  1.0000
  C   C280      1.0  0.47174  0.31628  0.42311  1.0000
  C   C281      1.0  0.46867  0.32470  0.34458  1.0000
  H   H167      1.0  0.47546  0.32462  0.48084  1.0000
  H   H168      1.0  0.44843  0.21982  0.40807  1.0000
  H   H169      1.0  0.44316  0.24874  0.41185  1.0000
  N   N33       1.0  0.47577  0.28962  0.50080  1.0000
  O   O33       1.0  0.46302  0.28652  0.56146  1.0000
  O   O34       1.0  0.49353  0.30172  0.52948  1.0000
  N   N34       1.0  0.47121  0.34411  0.34563  1.0000
  H   H170      1.0  0.46695  0.34810  0.39977  1.0000
  C   C282      1.0  0.84774  0.30941  0.37358  1.0000
  C   C283      1.0  0.83069  0.28938  0.37708  1.0000
  C   C284      1.0  0.81203  0.28486  0.33559  1.0000
  C   C285      1.0  0.79443  0.26494  0.34050  1.0000
  C   C286      1.0  0.78341  0.25787  0.42179  1.0000
  C   C287      1.0  0.76441  0.23922  0.42257  1.0000
  C   C288      1.0  0.75594  0.22774  0.34409  1.0000
  H   H171      1.0  0.75607  0.23463  0.48031  1.0000
  H   H172      1.0  0.86083  0.31241  0.40684  1.0000
  H   H173      1.0  0.83191  0.27820  0.41085  1.0000
  N   N35       1.0  0.79107  0.26993  0.49997  1.0000
  O   O35       1.0  0.79421  0.26031  0.56065  1.0000
  O   O36       1.0  0.77897  0.27558  0.52869  1.0000
  N   N36       1.0  0.73653  0.21087  0.34529  1.0000
  H   H174      1.0  0.73255  0.20263  0.39947  1.0000
