data_image0
_chemical_formula_structural       C5NCONH2C5NCONH2C5NCONH2C2H2C2H3C2H3NC18H12NC18H12NC18H12NC18H12C2H2C2H2C2H2C5NCONH2C5NCONHC5NCONH
_chemical_formula_sum              "C120 N16 O6 H72"
_cell_length_a       38.8983
_cell_length_b       38.8984
_cell_length_c       14.7644
_cell_angle_alpha    90
_cell_angle_beta     90
_cell_angle_gamma    120

_space_group_name_H-M_alt    "P 1"
_space_group_IT_number       1

loop_
  _space_group_symop_operation_xyz
  'x, y, z'

loop_
  _atom_site_type_symbol
  _atom_site_label
  _atom_site_symmetry_multiplicity
  _atom_site_fract_x
  _atom_site_fract_y
  _atom_site_fract_z
  _atom_site_occupancy
  C   C1        1.0  0.25901  0.12950  0.32247  1.0000
  C   C2        1.0  0.23703  0.12175  0.23977  1.0000
  C   C3        1.0  0.19490  0.10697  0.24135  1.0000
  C   C4        1.0  0.17279  0.09255  0.32372  1.0000
  C   C5        1.0  0.17771  0.10884  0.15780  1.0000
  N   N1        1.0  0.19868  0.11815  0.07987  1.0000
  C   C6        1.0  0.23652  0.12590  0.07814  1.0000
  O   O1        1.0  0.14142  0.10528  0.15050  1.0000
  N   N2        1.0  0.25523  0.12776  0.15691  1.0000
  H   H1        1.0  0.25117  0.13183  0.01756  1.0000
  H   H2        1.0  0.28229  0.13288  0.15180  1.0000
  C   C7        1.0  0.87696  0.13352  0.32456  1.0000
  C   C8        1.0  0.91081  0.14593  0.26733  1.0000
  C   C9        1.0  0.93309  0.12543  0.26936  1.0000
  C   C10       1.0  0.92097  0.09165  0.32687  1.0000
  C   C11       1.0  0.96789  0.14184  0.21476  1.0000
  N   N3        1.0  0.97806  0.17380  0.16173  1.0000
  C   C12       1.0  0.95611  0.19172  0.15855  1.0000
  O   O2        1.0  0.99485  0.12961  0.21530  1.0000
  N   N4        1.0  0.92367  0.17851  0.21207  1.0000
  H   H3        1.0  0.96523  0.21624  0.11850  1.0000
  H   H4        1.0  0.91034  0.19397  0.21065  1.0000
  C   C13       1.0  0.87120  0.74358  0.34364  1.0000
  C   C14       1.0  0.86788  0.76518  0.26890  1.0000
  C   C15       1.0  0.89156  0.80779  0.26572  1.0000
  C   C16       1.0  0.91598  0.82941  0.34099  1.0000
  C   C17       1.0  0.88971  0.82619  0.18402  1.0000
  N   N5        1.0  0.86444  0.80468  0.11692  1.0000
  C   C18       1.0  0.83995  0.76522  0.12460  1.0000
  O   O3        1.0  0.91382  0.86498  0.16412  1.0000
  N   N6        1.0  0.84174  0.74598  0.19931  1.0000
  H   H5        1.0  0.82076  0.75010  0.07292  1.0000
  H   H6        1.0  0.82294  0.71767  0.20186  1.0000
  C   C19       1.0  0.57891  0.18262  0.26949  1.0000
  C   C20       1.0  0.61352  0.18019  0.27847  1.0000
  H   H7        1.0  0.62787  0.18036  0.22020  1.0000
  H   H8        1.0  0.56869  0.18227  0.20535  1.0000
  C   C21       1.0  0.82810  0.39929  0.28026  1.0000
  C   C22       1.0  0.83014  0.43604  0.29163  1.0000
  H   H9        1.0  0.82989  0.45071  0.23429  1.0000
  H   H10       1.0  0.82853  0.39015  0.21540  1.0000
  H   H11       1.0  0.83319  0.43332  0.01273  1.0000
  C   C23       1.0  0.60973  0.42649  0.28716  1.0000
  C   C24       1.0  0.57297  0.39158  0.29533  1.0000
  H   H12       1.0  0.55933  0.37724  0.23664  1.0000
  H   H13       1.0  0.61982  0.43672  0.22314  1.0000
  H   H14       1.0  0.56942  0.39374  0.01648  1.0000
  N   N7        1.0  0.00132  0.00142  0.35216  1.0000
  C   C25       1.0  0.04396  0.02450  0.34431  1.0000
  C   C26       1.0  0.97964  0.95817  0.35496  1.0000
  C   C27       1.0  0.98106  0.02369  0.34471  1.0000
  C   C28       1.0  0.97526  0.04165  0.42195  1.0000
  C   C29       1.0  0.95589  0.06403  0.41574  1.0000
  C   C30       1.0  0.94038  0.06836  0.33243  1.0000
  C   C31       1.0  0.94392  0.04808  0.25634  1.0000
  C   C32       1.0  0.96470  0.02696  0.26185  1.0000
  C   C33       1.0  0.06432  0.01846  0.27226  1.0000
  C   C34       1.0  0.10621  0.03920  0.26812  1.0000
  C   C35       1.0  0.12977  0.07014  0.32987  1.0000
  C   C36       1.0  0.10906  0.07644  0.40114  1.0000
  C   C37       1.0  0.06740  0.05351  0.40947  1.0000
  C   C38       1.0  0.99918  0.93577  0.36457  1.0000
  C   C39       1.0  0.97860  0.89390  0.36064  1.0000
  C   C40       1.0  0.93698  0.87201  0.34868  1.0000
  C   C41       1.0  0.91674  0.89373  0.34611  1.0000
  C   C42       1.0  0.93758  0.93562  0.34820  1.0000
  H   H15       1.0  0.11945  0.03204  0.21742  1.0000
  H   H16       1.0  0.04861  0.99729  0.22445  1.0000
  H   H17       1.0  0.05421  0.05868  0.46344  1.0000
  H   H18       1.0  0.12428  0.09799  0.44855  1.0000
  H   H19       1.0  0.98545  0.03875  0.48366  1.0000
  H   H20       1.0  0.95342  0.07749  0.47300  1.0000
  H   H21       1.0  0.02922  0.94981  0.37333  1.0000
  H   H22       1.0  0.99448  0.87945  0.36462  1.0000
  H   H23       1.0  0.88648  0.87911  0.33970  1.0000
  H   H24       1.0  0.92129  0.94954  0.34346  1.0000
  H   H25       1.0  0.96750  0.01346  0.20514  1.0000
  H   H26       1.0  0.93235  0.04961  0.19521  1.0000
  N   N8        1.0  0.43124  0.21618  0.34222  1.0000
  C   C43       1.0  0.45410  0.25738  0.36762  1.0000
  C   C44       1.0  0.38846  0.19492  0.33867  1.0000
  C   C45       1.0  0.45521  0.19844  0.32198  1.0000
  C   C46       1.0  0.48668  0.21709  0.25870  1.0000
  C   C47       1.0  0.52044  0.21265  0.26466  1.0000
  C   C48       1.0  0.52298  0.18743  0.33034  1.0000
  C   C49       1.0  0.48844  0.16349  0.38209  1.0000
  C   C50       1.0  0.45616  0.17034  0.38121  1.0000
  C   C51       1.0  0.45797  0.28767  0.30830  1.0000
  C   C52       1.0  0.48893  0.32718  0.31785  1.0000
  C   C53       1.0  0.51932  0.33796  0.38323  1.0000
  C   C54       1.0  0.51500  0.30754  0.44326  1.0000
  C   C55       1.0  0.48215  0.26875  0.43869  1.0000
  C   C56       1.0  0.36753  0.20493  0.27555  1.0000
  C   C57       1.0  0.32568  0.18506  0.27371  1.0000
  C   C58       1.0  0.30213  0.15125  0.32828  1.0000
  C   C59       1.0  0.32322  0.14140  0.39187  1.0000
  C   C60       1.0  0.36504  0.16337  0.39866  1.0000
  H   H27       1.0  0.49072  0.34752  0.27133  1.0000
  H   H28       1.0  0.44055  0.28092  0.25226  1.0000
  H   H29       1.0  0.48196  0.24748  0.47978  1.0000
  H   H30       1.0  0.53709  0.31266  0.48817  1.0000
  H   H31       1.0  0.48796  0.23866  0.21681  1.0000
  H   H32       1.0  0.54456  0.23064  0.22550  1.0000
  H   H33       1.0  0.38246  0.22703  0.22971  1.0000
  H   H34       1.0  0.31249  0.19522  0.22959  1.0000
  H   H35       1.0  0.30821  0.11778  0.43459  1.0000
  H   H36       1.0  0.37813  0.15576  0.44838  1.0000
  H   H37       1.0  0.43551  0.15740  0.43101  1.0000
  H   H38       1.0  0.48851  0.14425  0.42932  1.0000
  N   N9        1.0  0.78904  0.21601  0.33420  1.0000
  C   C61       1.0  0.74789  0.19729  0.35836  1.0000
  C   C62       1.0  0.80996  0.19459  0.33289  1.0000
  C   C63       1.0  0.80801  0.25797  0.31817  1.0000
  C   C64       1.0  0.78993  0.27262  0.25824  1.0000
  C   C65       1.0  0.79570  0.31111  0.26927  1.0000
  C   C66       1.0  0.82183  0.33728  0.33613  1.0000
  C   C67       1.0  0.84503  0.32466  0.38461  1.0000
  C   C68       1.0  0.83699  0.28511  0.37878  1.0000
  C   C69       1.0  0.71864  0.16995  0.29863  1.0000
  C   C70       1.0  0.67888  0.16120  0.30496  1.0000
  C   C71       1.0  0.66713  0.18087  0.36821  1.0000
  C   C72       1.0  0.69676  0.20762  0.42887  1.0000
  C   C73       1.0  0.73572  0.21409  0.42737  1.0000
  C   C74       1.0  0.81251  0.17632  0.25251  1.0000
  C   C75       1.0  0.83342  0.15533  0.25039  1.0000
  C   C76       1.0  0.85360  0.15287  0.32788  1.0000
  C   C77       1.0  0.85020  0.17054  0.40882  1.0000
  C   C78       1.0  0.82858  0.19083  0.41140  1.0000
  H   H39       1.0  0.65902  0.14215  0.25837  1.0000
  H   H40       1.0  0.72668  0.15852  0.24569  1.0000
  H   H41       1.0  0.75646  0.23566  0.46850  1.0000
  H   H42       1.0  0.69098  0.22467  0.47207  1.0000
  H   H43       1.0  0.76780  0.25348  0.21579  1.0000
  H   H44       1.0  0.77819  0.31869  0.23242  1.0000
  H   H45       1.0  0.79917  0.17838  0.19468  1.0000
  H   H46       1.0  0.83469  0.14260  0.19074  1.0000
  H   H47       1.0  0.86420  0.16944  0.46653  1.0000
  H   H48       1.0  0.82696  0.20346  0.47082  1.0000
  H   H49       1.0  0.84987  0.27542  0.42482  1.0000
  H   H50       1.0  0.86482  0.34277  0.43253  1.0000
  N   N10       1.0  0.79090  0.57284  0.35476  1.0000
  C   C79       1.0  0.81031  0.55088  0.37757  1.0000
  C   C80       1.0  0.81156  0.61526  0.35328  1.0000
  C   C81       1.0  0.74916  0.54907  0.33635  1.0000
  C   C82       1.0  0.73584  0.51708  0.27458  1.0000
  C   C83       1.0  0.69760  0.48368  0.28276  1.0000
  C   C84       1.0  0.67029  0.48224  0.34834  1.0000
  C   C85       1.0  0.68153  0.51740  0.39838  1.0000
  C   C86       1.0  0.72084  0.54947  0.39564  1.0000
  C   C87       1.0  0.83824  0.55000  0.31784  1.0000
  C   C88       1.0  0.84779  0.51952  0.32293  1.0000
  C   C89       1.0  0.82829  0.48748  0.38466  1.0000
  C   C90       1.0  0.80105  0.48933  0.44560  1.0000
  C   C91       1.0  0.79383  0.52135  0.44550  1.0000
  C   C92       1.0  0.83425  0.63647  0.27719  1.0000
  C   C93       1.0  0.85476  0.67834  0.27542  1.0000
  C   C94       1.0  0.85177  0.70077  0.34759  1.0000
  C   C95       1.0  0.82957  0.67930  0.42449  1.0000
  C   C96       1.0  0.81024  0.63744  0.42764  1.0000
  H   H51       1.0  0.86715  0.51948  0.27608  1.0000
  H   H52       1.0  0.84952  0.56971  0.26546  1.0000
  H   H53       1.0  0.77185  0.51975  0.48645  1.0000
  H   H54       1.0  0.78414  0.46603  0.48782  1.0000
  H   H55       1.0  0.75577  0.51512  0.23274  1.0000
  H   H56       1.0  0.69101  0.45916  0.24466  1.0000
  H   H57       1.0  0.83583  0.62146  0.22201  1.0000
  H   H58       1.0  0.87125  0.69244  0.21927  1.0000
  H   H59       1.0  0.82681  0.69406  0.47887  1.0000
  H   H60       1.0  0.79482  0.62313  0.48467  1.0000
  H   H61       1.0  0.72934  0.57141  0.44284  1.0000
  H   H62       1.0  0.66255  0.51811  0.44537  1.0000
  C   C97       1.0  0.19501  0.09811  0.40380  1.0000
  C   C98       1.0  0.23666  0.11742  0.40363  1.0000
  H   H63       1.0  0.25055  0.12240  0.46506  1.0000
  H   H64       1.0  0.18098  0.08824  0.46486  1.0000
  C   C99       1.0  0.88756  0.08037  0.38315  1.0000
  C   C100      1.0  0.86635  0.10086  0.38258  1.0000
  H   H65       1.0  0.84222  0.09101  0.42441  1.0000
  H   H66       1.0  0.87783  0.05637  0.42538  1.0000
  C   C101      1.0  0.91783  0.80742  0.41514  1.0000
  C   C102      1.0  0.89657  0.76572  0.41578  1.0000
  H   H67       1.0  0.90006  0.75152  0.47039  1.0000
  H   H68       1.0  0.93491  0.82176  0.47051  1.0000
  C   C103      1.0  0.62865  0.17814  0.36426  1.0000
  C   C104      1.0  0.60753  0.17932  0.44242  1.0000
  C   C105      1.0  0.57542  0.18732  0.43318  1.0000
  C   C106      1.0  0.55921  0.18665  0.34565  1.0000
  C   C107      1.0  0.56269  0.19703  0.51475  1.0000
  N   N11       1.0  0.57614  0.19302  0.59623  1.0000
  C   C108      1.0  0.60198  0.17966  0.60361  1.0000
  O   O4        1.0  0.53996  0.21429  0.51753  1.0000
  N   N12       1.0  0.61752  0.17322  0.52774  1.0000
  H   H69       1.0  0.61087  0.17617  0.66649  1.0000
  H   H70       1.0  0.63604  0.16358  0.53648  1.0000
  C   C109      1.0  0.83163  0.45212  0.37847  1.0000
  C   C110      1.0  0.83057  0.42911  0.45509  1.0000
  C   C111      1.0  0.82305  0.38925  0.44340  1.0000
  C   C112      1.0  0.82384  0.37465  0.35480  1.0000
  C   C113      1.0  0.81351  0.36604  0.52377  1.0000
  N   N13       1.0  0.81717  0.38262  0.60624  1.0000
  C   C114      1.0  0.82998  0.42164  0.61583  1.0000
  O   O5        1.0  0.79668  0.32608  0.52466  1.0000
  N   N14       1.0  0.83627  0.44431  0.54127  1.0000
  H   H71       1.0  0.84547  0.47228  0.55158  1.0000
  C   C115      1.0  0.55536  0.37622  0.38068  1.0000
  C   C116      1.0  0.57711  0.39740  0.45932  1.0000
  C   C117      1.0  0.61705  0.43002  0.45102  1.0000
  C   C118      1.0  0.63299  0.44634  0.36379  1.0000
  C   C119      1.0  0.63897  0.44313  0.53322  1.0000
  N   N15       1.0  0.62114  0.42935  0.61423  1.0000
  C   C120      1.0  0.58205  0.40288  0.62058  1.0000
  O   O6        1.0  0.67887  0.46643  0.53731  1.0000
  N   N16       1.0  0.56060  0.38705  0.54418  1.0000
  H   H72       1.0  0.53252  0.36811  0.55223  1.0000
