data_image0
_chemical_formula_structural       C4NC2NHCHC4NC2NHCHC4NC2NHCHC4NC2NHCHC4NC2NHCHC4NC2NHCHC2H2CH2C2H2CH2C2H2CH2C2H2CH2C2H2CH2C2H2CH2C4NC2NHCHC4NC2NHCHC4NC2NHCHC4NC2NHCHC4NC2NHCHC4NC2NHCHC6H3C6H3C6H3C6H3C6H3C6H3C6H3C6H3C6H3C6H3C6H3C6H3C2H4C2H4C2H4C2H4C2H4C2H4C4NC2NH2C4NC2NH2C4NC2NH2C4NC2NH2C4NC2NH2C4NC2NH2C2H4C2H4C2H4C2H4C2H4C2H4
_chemical_formula_sum              "C234 N36 H144"
_cell_length_a       39.9151
_cell_length_b       39.9151
_cell_length_c       14.8737
_cell_angle_alpha    90
_cell_angle_beta     90
_cell_angle_gamma    120

_space_group_name_H-M_alt    "P 1"
_space_group_IT_number       1

loop_
  _space_group_symop_operation_xyz
  'x, y, z'

loop_
  _atom_site_type_symbol
  _atom_site_label
  _atom_site_symmetry_multiplicity
  _atom_site_fract_x
  _atom_site_fract_y
  _atom_site_fract_z
  _atom_site_occupancy
  C   C1        1.0  0.26914  0.45744  0.34148  1.0000
  C   C2        1.0  0.24648  0.44901  0.26237  1.0000
  C   C3        1.0  0.21079  0.44919  0.26302  1.0000
  C   C4        1.0  0.19703  0.45781  0.34256  1.0000
  N   N1        1.0  0.19159  0.44316  0.18373  1.0000
  C   C5        1.0  0.20411  0.43652  0.10439  1.0000
  C   C6        1.0  0.23928  0.43624  0.10432  1.0000
  N   N2        1.0  0.25904  0.44267  0.18253  1.0000
  H   H1        1.0  0.25034  0.43182  0.04648  1.0000
  C   C7        1.0  0.18171  0.43086  0.02141  1.0000
  H   H2        1.0  0.15539  0.43196  0.03500  1.0000
  C   C8        1.0  0.57173  0.83238  0.34146  1.0000
  C   C9        1.0  0.58016  0.81816  0.26234  1.0000
  C   C10       1.0  0.58000  0.78229  0.26296  1.0000
  C   C11       1.0  0.57137  0.75990  0.34248  1.0000
  N   N3        1.0  0.58603  0.76913  0.18367  1.0000
  C   C12       1.0  0.59267  0.78830  0.10435  1.0000
  C   C13       1.0  0.59297  0.82376  0.10431  1.0000
  N   N4        1.0  0.58652  0.83708  0.18251  1.0000
  H   H3        1.0  0.59736  0.83923  0.04647  1.0000
  C   C14       1.0  0.59833  0.77157  0.02135  1.0000
  H   H4        1.0  0.59720  0.74414  0.03491  1.0000
  C   C15       1.0  0.19675  0.76006  0.34145  1.0000
  C   C16       1.0  0.21101  0.78270  0.26232  1.0000
  C   C17       1.0  0.24688  0.81839  0.26291  1.0000
  C   C18       1.0  0.26926  0.83217  0.34244  1.0000
  N   N5        1.0  0.26004  0.83758  0.18363  1.0000
  C   C19       1.0  0.24087  0.82505  0.10430  1.0000
  C   C20       1.0  0.20542  0.78988  0.10426  1.0000
  N   N6        1.0  0.19209  0.77013  0.18249  1.0000
  H   H5        1.0  0.18994  0.77881  0.04643  1.0000
  C   C21       1.0  0.25760  0.84743  0.02129  1.0000
  H   H6        1.0  0.28504  0.87374  0.03485  1.0000
  C   C22       1.0  0.75598  0.57583  0.34140  1.0000
  C   C23       1.0  0.77864  0.58424  0.26230  1.0000
  C   C24       1.0  0.81434  0.58407  0.26294  1.0000
  C   C25       1.0  0.82814  0.57550  0.34248  1.0000
  N   N7        1.0  0.83354  0.59010  0.18366  1.0000
  C   C26       1.0  0.82100  0.59672  0.10431  1.0000
  C   C27       1.0  0.78583  0.59699  0.10423  1.0000
  N   N8        1.0  0.76607  0.59057  0.18244  1.0000
  H   H7        1.0  0.77476  0.60139  0.04638  1.0000
  C   C28       1.0  0.84340  0.60238  0.02133  1.0000
  H   H8        1.0  0.86972  0.60128  0.03491  1.0000
  C   C29       1.0  0.45337  0.20085  0.34140  1.0000
  C   C30       1.0  0.44495  0.21510  0.26229  1.0000
  C   C31       1.0  0.44513  0.25096  0.26293  1.0000
  C   C32       1.0  0.45370  0.27334  0.34248  1.0000
  N   N9        1.0  0.43909  0.26413  0.18366  1.0000
  C   C33       1.0  0.43247  0.24498  0.10431  1.0000
  C   C34       1.0  0.43221  0.20954  0.10423  1.0000
  N   N10       1.0  0.43862  0.19620  0.18244  1.0000
  H   H9        1.0  0.42779  0.19406  0.04639  1.0000
  C   C35       1.0  0.42681  0.26171  0.02133  1.0000
  H   H10       1.0  0.42790  0.28913  0.03492  1.0000
  C   C36       1.0  0.82835  0.27322  0.34141  1.0000
  C   C37       1.0  0.81411  0.25056  0.26230  1.0000
  C   C38       1.0  0.77823  0.21487  0.26293  1.0000
  C   C39       1.0  0.75585  0.20108  0.34248  1.0000
  N   N11       1.0  0.76507  0.19567  0.18365  1.0000
  C   C40       1.0  0.78423  0.20821  0.10431  1.0000
  C   C41       1.0  0.81967  0.24338  0.10424  1.0000
  N   N12       1.0  0.83301  0.26313  0.18246  1.0000
  H   H11       1.0  0.83515  0.25444  0.04640  1.0000
  C   C42       1.0  0.76749  0.18580  0.02133  1.0000
  H   H12       1.0  0.74007  0.15949  0.03491  1.0000
  C   C43       1.0  0.15395  0.56954  0.27125  1.0000
  C   C44       1.0  0.15374  0.60472  0.26995  1.0000
  H   H13       1.0  0.15725  0.61855  0.20977  1.0000
  H   H14       1.0  0.15788  0.55884  0.21227  1.0000
  C   C45       1.0  0.12160  0.53564  0.00705  1.0000
  H   H15       1.0  0.09314  0.52660  0.03557  1.0000
  H   H16       1.0  0.14384  0.55419  0.05492  1.0000
  C   C46       1.0  0.45964  0.60513  0.27119  1.0000
  C   C47       1.0  0.42449  0.56970  0.26987  1.0000
  H   H17       1.0  0.41063  0.55940  0.20972  1.0000
  H   H18       1.0  0.47036  0.61974  0.21219  1.0000
  C   C48       1.0  0.49356  0.60663  0.00698  1.0000
  H   H19       1.0  0.50260  0.58721  0.03551  1.0000
  H   H20       1.0  0.47502  0.61034  0.05484  1.0000
  C   C49       1.0  0.42404  0.87521  0.27113  1.0000
  C   C50       1.0  0.45944  0.87542  0.26985  1.0000
  H   H21       1.0  0.46978  0.87195  0.20966  1.0000
  H   H22       1.0  0.40945  0.87133  0.21212  1.0000
  C   C51       1.0  0.42248  0.90753  0.00695  1.0000
  H   H23       1.0  0.44189  0.93599  0.03551  1.0000
  H   H24       1.0  0.41878  0.88528  0.05478  1.0000
  C   C52       1.0  0.87116  0.46374  0.27122  1.0000
  C   C53       1.0  0.87137  0.42856  0.26994  1.0000
  H   H25       1.0  0.86791  0.41475  0.20975  1.0000
  H   H26       1.0  0.86729  0.47446  0.21222  1.0000
  C   C54       1.0  0.90346  0.49761  0.00705  1.0000
  H   H27       1.0  0.93191  0.50666  0.03563  1.0000
  H   H28       1.0  0.88120  0.47904  0.05488  1.0000
  C   C55       1.0  0.56545  0.42812  0.27123  1.0000
  C   C56       1.0  0.60063  0.46352  0.26995  1.0000
  H   H29       1.0  0.61444  0.47387  0.20977  1.0000
  H   H30       1.0  0.55473  0.41354  0.21222  1.0000
  C   C57       1.0  0.53158  0.42654  0.00707  1.0000
  H   H31       1.0  0.52254  0.44595  0.03565  1.0000
  H   H32       1.0  0.55014  0.42283  0.05488  1.0000
  C   C58       1.0  0.60107  0.15803  0.27122  1.0000
  C   C59       1.0  0.56566  0.15780  0.26993  1.0000
  H   H33       1.0  0.55534  0.16131  0.20975  1.0000
  H   H34       1.0  0.61567  0.16192  0.21222  1.0000
  C   C60       1.0  0.60262  0.12568  0.00703  1.0000
  H   H35       1.0  0.58321  0.09723  0.03559  1.0000
  H   H36       1.0  0.60632  0.14793  0.05488  1.0000
  C   C61       1.0  0.97096  0.36786  0.33281  1.0000
  C   C62       1.0  0.99211  0.38122  0.25151  1.0000
  C   C63       1.0  0.03337  0.40188  0.25178  1.0000
  C   C64       1.0  0.05446  0.40978  0.33310  1.0000
  N   N13       1.0  0.05191  0.41532  0.17194  1.0000
  C   C65       1.0  0.03343  0.40998  0.09210  1.0000
  C   C66       1.0  0.99267  0.38984  0.09227  1.0000
  N   N14       1.0  0.97375  0.37654  0.17142  1.0000
  H   H37       1.0  0.97724  0.38503  0.03420  1.0000
  C   C67       1.0  0.05587  0.42394  0.00841  1.0000
  H   H38       1.0  0.08689  0.43890  0.02198  1.0000
  C   C68       1.0  0.66136  0.62380  0.33288  1.0000
  C   C69       1.0  0.64797  0.63158  0.25158  1.0000
  C   C70       1.0  0.62733  0.65219  0.25181  1.0000
  C   C71       1.0  0.61943  0.66539  0.33312  1.0000
  N   N15       1.0  0.61388  0.65728  0.17197  1.0000
  C   C72       1.0  0.61922  0.64412  0.09214  1.0000
  C   C73       1.0  0.63935  0.62350  0.09234  1.0000
  N   N16       1.0  0.65265  0.61790  0.17151  1.0000
  H   H39       1.0  0.64416  0.61287  0.03428  1.0000
  C   C74       1.0  0.60525  0.65259  0.00844  1.0000
  H   H40       1.0  0.59030  0.66866  0.02199  1.0000
  C   C75       1.0  0.40538  0.05823  0.33315  1.0000
  C   C76       1.0  0.39768  0.03709  0.25182  1.0000
  C   C77       1.0  0.37706  0.99583  0.25208  1.0000
  C   C78       1.0  0.36380  0.97474  0.33342  1.0000
  N   N17       1.0  0.37199  0.97730  0.17223  1.0000
  C   C79       1.0  0.38518  0.99578  0.09241  1.0000
  C   C80       1.0  0.40582  0.03654  0.09260  1.0000
  N   N18       1.0  0.41140  0.05545  0.17175  1.0000
  H   H41       1.0  0.41647  0.05197  0.03455  1.0000
  C   C81       1.0  0.37672  0.97335  0.00871  1.0000
  H   H42       1.0  0.36062  0.94233  0.02226  1.0000
  C   C82       1.0  0.05414  0.66540  0.33309  1.0000
  C   C83       1.0  0.03302  0.65200  0.25173  1.0000
  C   C84       1.0  0.99177  0.63134  0.25198  1.0000
  C   C85       1.0  0.97070  0.62351  0.33333  1.0000
  N   N19       1.0  0.97323  0.61786  0.17213  1.0000
  C   C86       1.0  0.99173  0.62318  0.09232  1.0000
  C   C87       1.0  0.03248  0.64332  0.09251  1.0000
  N   N20       1.0  0.05139  0.65665  0.17167  1.0000
  H   H43       1.0  0.04792  0.64811  0.03446  1.0000
  C   C88       1.0  0.96930  0.60921  0.00862  1.0000
  H   H44       1.0  0.93827  0.59427  0.02216  1.0000
  C   C89       1.0  0.36374  0.40941  0.33313  1.0000
  C   C90       1.0  0.37717  0.40170  0.25178  1.0000
  C   C91       1.0  0.39782  0.38110  0.25201  1.0000
  C   C92       1.0  0.40568  0.36788  0.33335  1.0000
  N   N21       1.0  0.41131  0.37605  0.17216  1.0000
  C   C93       1.0  0.40600  0.38924  0.09235  1.0000
  C   C94       1.0  0.38586  0.40986  0.09256  1.0000
  N   N22       1.0  0.37252  0.41542  0.17172  1.0000
  H   H45       1.0  0.38107  0.42051  0.03451  1.0000
  C   C95       1.0  0.41998  0.38079  0.00865  1.0000
  H   H46       1.0  0.43492  0.36471  0.02219  1.0000
  C   C96       1.0  0.61973  0.97501  0.33309  1.0000
  C   C97       1.0  0.62745  0.99613  0.25173  1.0000
  C   C98       1.0  0.64808  0.03739  0.25194  1.0000
  C   C99       1.0  0.66135  0.05853  0.33320  1.0000
  N   N23       1.0  0.65314  0.05591  0.17208  1.0000
  C   C100      1.0  0.63994  0.03741  0.09227  1.0000
  C   C101      1.0  0.61931  0.99665  0.09251  1.0000
  N   N24       1.0  0.61373  0.97775  0.17167  1.0000
  H   H47       1.0  0.60866  0.98121  0.03446  1.0000
  C   C102      1.0  0.64840  0.05983  0.00855  1.0000
  H   H48       1.0  0.66449  0.09085  0.02207  1.0000
  C   C103      1.0  0.14029  0.50970  0.34751  1.0000
  C   C104      1.0  0.10204  0.47834  0.34321  1.0000
  C   C105      1.0  0.09413  0.43970  0.33778  1.0000
  C   C106      1.0  0.12571  0.43278  0.33687  1.0000
  C   C107      1.0  0.16451  0.46380  0.34230  1.0000
  C   C108      1.0  0.17125  0.50214  0.34702  1.0000
  H   H49       1.0  0.12039  0.40493  0.33315  1.0000
  H   H50       1.0  0.19904  0.52491  0.35004  1.0000
  H   H51       1.0  0.07950  0.48381  0.34342  1.0000
  C   C109      1.0  0.51950  0.65127  0.34749  1.0000
  C   C110      1.0  0.55087  0.64439  0.34322  1.0000
  C   C111      1.0  0.58951  0.67514  0.33779  1.0000
  C   C112      1.0  0.59642  0.71364  0.33684  1.0000
  C   C113      1.0  0.56539  0.72140  0.34227  1.0000
  C   C114      1.0  0.52705  0.68978  0.34696  1.0000
  H   H52       1.0  0.62426  0.73617  0.33315  1.0000
  H   H53       1.0  0.50427  0.69480  0.34995  1.0000
  H   H54       1.0  0.54540  0.61639  0.34344  1.0000
  C   C115      1.0  0.37789  0.88891  0.34743  1.0000
  C   C116      1.0  0.38477  0.92717  0.34325  1.0000
  C   C117      1.0  0.35403  0.93507  0.33783  1.0000
  C   C118      1.0  0.31553  0.90348  0.33690  1.0000
  C   C119      1.0  0.30777  0.86468  0.34222  1.0000
  C   C120      1.0  0.33937  0.85795  0.34685  1.0000
  H   H55       1.0  0.29300  0.90880  0.33329  1.0000
  H   H56       1.0  0.33436  0.83015  0.34979  1.0000
  H   H57       1.0  0.41278  0.94970  0.34351  1.0000
  C   C121      1.0  0.88486  0.52358  0.34748  1.0000
  C   C122      1.0  0.92311  0.55495  0.34326  1.0000
  C   C123      1.0  0.93102  0.59359  0.33782  1.0000
  C   C124      1.0  0.89944  0.60052  0.33690  1.0000
  C   C125      1.0  0.86064  0.56949  0.34226  1.0000
  C   C126      1.0  0.85390  0.53115  0.34692  1.0000
  H   H58       1.0  0.90477  0.62837  0.33325  1.0000
  H   H59       1.0  0.82610  0.50838  0.34989  1.0000
  H   H60       1.0  0.94564  0.54948  0.34351  1.0000
  C   C127      1.0  0.50561  0.38197  0.34749  1.0000
  C   C128      1.0  0.47424  0.38886  0.34328  1.0000
  C   C129      1.0  0.43560  0.35812  0.33783  1.0000
  C   C130      1.0  0.42867  0.31961  0.33691  1.0000
  C   C131      1.0  0.45970  0.31184  0.34226  1.0000
  C   C132      1.0  0.49805  0.34345  0.34692  1.0000
  H   H61       1.0  0.40082  0.29709  0.33325  1.0000
  H   H62       1.0  0.52082  0.33843  0.34989  1.0000
  H   H63       1.0  0.47971  0.41686  0.34353  1.0000
  C   C133      1.0  0.64722  0.14433  0.34747  1.0000
  C   C134      1.0  0.64034  0.10608  0.34322  1.0000
  C   C135      1.0  0.67109  0.09819  0.33779  1.0000
  C   C136      1.0  0.70959  0.12978  0.33688  1.0000
  C   C137      1.0  0.71735  0.16858  0.34225  1.0000
  C   C138      1.0  0.68574  0.17530  0.34694  1.0000
  H   H64       1.0  0.73212  0.12446  0.33318  1.0000
  H   H65       1.0  0.69076  0.20309  0.34992  1.0000
  H   H66       1.0  0.61234  0.08355  0.34345  1.0000
  C   C139      1.0  0.50523  0.14406  0.34379  1.0000
  C   C140      1.0  0.47385  0.10582  0.34090  1.0000
  C   C141      1.0  0.43520  0.09793  0.33693  1.0000
  C   C142      1.0  0.42826  0.12950  0.33608  1.0000
  C   C143      1.0  0.45933  0.16832  0.34018  1.0000
  C   C144      1.0  0.49769  0.17504  0.34361  1.0000
  H   H67       1.0  0.40039  0.12417  0.33345  1.0000
  H   H68       1.0  0.52048  0.20283  0.34642  1.0000
  H   H69       1.0  0.47931  0.08327  0.34144  1.0000
  C   C145      1.0  0.64733  0.52395  0.34382  1.0000
  C   C146      1.0  0.64046  0.55533  0.34086  1.0000
  C   C147      1.0  0.67122  0.59398  0.33686  1.0000
  C   C148      1.0  0.70974  0.60092  0.33599  1.0000
  C   C149      1.0  0.71749  0.56986  0.34018  1.0000
  C   C150      1.0  0.68585  0.53150  0.34368  1.0000
  H   H70       1.0  0.73227  0.62880  0.33329  1.0000
  H   H71       1.0  0.69085  0.50871  0.34653  1.0000
  H   H72       1.0  0.61245  0.54986  0.34135  1.0000
  C   C151      1.0  0.88513  0.38187  0.34382  1.0000
  C   C152      1.0  0.92338  0.38874  0.34084  1.0000
  C   C153      1.0  0.93127  0.35799  0.33685  1.0000
  C   C154      1.0  0.89970  0.31947  0.33598  1.0000
  C   C155      1.0  0.86088  0.31171  0.34019  1.0000
  C   C156      1.0  0.85416  0.34335  0.34368  1.0000
  H   H73       1.0  0.90504  0.29694  0.33327  1.0000
  H   H74       1.0  0.82637  0.33835  0.34654  1.0000
  H   H75       1.0  0.94591  0.41675  0.34131  1.0000
  C   C157      1.0  0.51988  0.88918  0.34373  1.0000
  C   C158      1.0  0.55126  0.92743  0.34084  1.0000
  C   C159      1.0  0.58992  0.93532  0.33689  1.0000
  C   C160      1.0  0.59686  0.90374  0.33604  1.0000
  C   C161      1.0  0.56579  0.86493  0.34017  1.0000
  C   C162      1.0  0.52743  0.85820  0.34359  1.0000
  H   H76       1.0  0.62473  0.90908  0.33347  1.0000
  H   H77       1.0  0.50463  0.83041  0.34642  1.0000
  H   H78       1.0  0.54580  0.94997  0.34136  1.0000
  C   C163      1.0  0.37778  0.50926  0.34376  1.0000
  C   C164      1.0  0.38464  0.47788  0.34088  1.0000
  C   C165      1.0  0.35387  0.43923  0.33692  1.0000
  C   C166      1.0  0.31536  0.43230  0.33608  1.0000
  C   C167      1.0  0.30762  0.46337  0.34021  1.0000
  C   C168      1.0  0.33927  0.50173  0.34362  1.0000
  H   H79       1.0  0.29282  0.40443  0.33350  1.0000
  H   H80       1.0  0.33428  0.52453  0.34645  1.0000
  H   H81       1.0  0.41264  0.48334  0.34139  1.0000
  C   C169      1.0  0.13998  0.65141  0.34381  1.0000
  C   C170      1.0  0.10174  0.64454  0.34092  1.0000
  C   C171      1.0  0.09384  0.67529  0.33694  1.0000
  C   C172      1.0  0.12541  0.71381  0.33608  1.0000
  C   C173      1.0  0.16423  0.72157  0.34022  1.0000
  C   C174      1.0  0.17096  0.68993  0.34367  1.0000
  H   H82       1.0  0.12006  0.73634  0.33345  1.0000
  H   H83       1.0  0.19875  0.69493  0.34649  1.0000
  H   H84       1.0  0.07920  0.61653  0.34143  1.0000
  C   C175      1.0  0.22008  0.46656  0.42076  1.0000
  C   C176      1.0  0.25528  0.46630  0.42035  1.0000
  H   H85       1.0  0.27156  0.47412  0.47785  1.0000
  H   H86       1.0  0.21204  0.47467  0.47837  1.0000
  H   H87       1.0  0.17359  0.40279  0.65853  1.0000
  H   H88       1.0  0.19921  0.45359  0.64000  1.0000
  C   C177      1.0  0.56260  0.77419  0.42069  1.0000
  C   C178      1.0  0.56286  0.80964  0.42029  1.0000
  H   H89       1.0  0.55503  0.81809  0.47780  1.0000
  H   H90       1.0  0.55449  0.75803  0.47830  1.0000
  H   H91       1.0  0.62640  0.79151  0.65847  1.0000
  H   H92       1.0  0.57560  0.76636  0.63993  1.0000
  C   C179      1.0  0.25498  0.80911  0.42065  1.0000
  C   C180      1.0  0.21952  0.77392  0.42025  1.0000
  H   H93       1.0  0.21107  0.75765  0.47776  1.0000
  H   H94       1.0  0.27114  0.81715  0.47825  1.0000
  H   H95       1.0  0.23766  0.85555  0.65841  1.0000
  H   H96       1.0  0.26282  0.82991  0.63990  1.0000
  C   C181      1.0  0.80504  0.56668  0.42064  1.0000
  C   C182      1.0  0.76983  0.56691  0.42021  1.0000
  H   H97       1.0  0.75356  0.55909  0.47773  1.0000
  H   H98       1.0  0.81308  0.55857  0.47825  1.0000
  H   H99       1.0  0.85151  0.63044  0.65842  1.0000
  H   H100      1.0  0.82590  0.57964  0.63993  1.0000
  C   C183      1.0  0.46251  0.25905  0.42064  1.0000
  C   C184      1.0  0.46228  0.22361  0.42021  1.0000
  H   H101      1.0  0.47011  0.21516  0.47772  1.0000
  H   H102      1.0  0.47063  0.27521  0.47825  1.0000
  H   H103      1.0  0.39874  0.24176  0.65843  1.0000
  H   H104      1.0  0.44954  0.26695  0.63992  1.0000
  C   C185      1.0  0.77014  0.22418  0.42063  1.0000
  C   C186      1.0  0.80559  0.25938  0.42021  1.0000
  H   H105      1.0  0.81403  0.27565  0.47773  1.0000
  H   H106      1.0  0.75398  0.21614  0.47824  1.0000
  H   H107      1.0  0.78744  0.17769  0.65845  1.0000
  H   H108      1.0  0.76226  0.20330  0.63991  1.0000
  C   C187      1.0  0.14621  0.61941  0.34909  1.0000
  C   C188      1.0  0.13975  0.59854  0.43029  1.0000
  C   C189      1.0  0.14004  0.56305  0.43139  1.0000
  C   C190      1.0  0.14662  0.54801  0.35141  1.0000
  N   N25       1.0  0.13357  0.54411  0.51118  1.0000
  C   C191      1.0  0.12683  0.55716  0.58964  1.0000
  C   C192      1.0  0.12613  0.59209  0.58789  1.0000
  N   N26       1.0  0.13254  0.61128  0.50887  1.0000
  H   H109      1.0  0.12128  0.60333  0.64487  1.0000
  H   H110      1.0  0.12420  0.51006  0.66200  1.0000
  C   C193      1.0  0.40979  0.54748  0.34902  1.0000
  C   C194      1.0  0.43067  0.56190  0.43022  1.0000
  C   C195      1.0  0.46616  0.59767  0.43132  1.0000
  C   C196      1.0  0.48119  0.61928  0.35132  1.0000
  N   N27       1.0  0.48510  0.61013  0.51110  1.0000
  C   C197      1.0  0.47205  0.59035  0.58957  1.0000
  C   C198      1.0  0.43710  0.55472  0.58782  1.0000
  N   N28       1.0  0.41792  0.54196  0.50880  1.0000
  H   H111      1.0  0.42585  0.53863  0.64480  1.0000
  H   H112      1.0  0.51914  0.63482  0.66193  1.0000
  C   C199      1.0  0.48166  0.88296  0.34899  1.0000
  C   C200      1.0  0.46724  0.88942  0.43018  1.0000
  C   C201      1.0  0.43147  0.88914  0.43127  1.0000
  C   C202      1.0  0.40988  0.88259  0.35126  1.0000
  N   N29       1.0  0.41900  0.89561  0.51106  1.0000
  C   C203      1.0  0.43877  0.90232  0.58953  1.0000
  C   C204      1.0  0.47441  0.90302  0.58778  1.0000
  N   N30       1.0  0.48718  0.89661  0.50877  1.0000
  H   H113      1.0  0.49049  0.90785  0.64478  1.0000
  H   H114      1.0  0.39430  0.90493  0.66189  1.0000
  C   C205      1.0  0.87890  0.41387  0.34909  1.0000
  C   C206      1.0  0.88537  0.43475  0.43027  1.0000
  C   C207      1.0  0.88508  0.47024  0.43139  1.0000
  C   C208      1.0  0.87853  0.48528  0.35138  1.0000
  N   N31       1.0  0.89154  0.48917  0.51117  1.0000
  C   C209      1.0  0.89826  0.47612  0.58963  1.0000
  C   C210      1.0  0.89897  0.44118  0.58788  1.0000
  N   N32       1.0  0.89256  0.42200  0.50887  1.0000
  H   H115      1.0  0.90378  0.42992  0.64488  1.0000
  H   H116      1.0  0.90084  0.52318  0.66201  1.0000
  C   C211      1.0  0.61533  0.48573  0.34911  1.0000
  C   C212      1.0  0.59445  0.47131  0.43030  1.0000
  C   C213      1.0  0.55895  0.43554  0.43139  1.0000
  C   C214      1.0  0.54391  0.41395  0.35138  1.0000
  N   N33       1.0  0.54002  0.42307  0.51118  1.0000
  C   C215      1.0  0.55308  0.44283  0.58965  1.0000
  C   C216      1.0  0.58802  0.47847  0.58791  1.0000
  N   N34       1.0  0.60720  0.49124  0.50889  1.0000
  H   H117      1.0  0.59928  0.49455  0.64490  1.0000
  H   H118      1.0  0.50600  0.39835  0.66201  1.0000
  C   C217      1.0  0.54345  0.15028  0.34909  1.0000
  C   C218      1.0  0.55787  0.14381  0.43028  1.0000
  C   C219      1.0  0.59364  0.14409  0.43137  1.0000
  C   C220      1.0  0.61523  0.15065  0.35137  1.0000
  N   N35       1.0  0.60611  0.13762  0.51115  1.0000
  C   C221      1.0  0.58633  0.13090  0.58963  1.0000
  C   C222      1.0  0.55069  0.13020  0.58788  1.0000
  N   N36       1.0  0.53793  0.13662  0.50887  1.0000
  H   H119      1.0  0.53461  0.12537  0.64487  1.0000
  H   H120      1.0  0.63080  0.12828  0.66198  1.0000
  C   C223      1.0  0.03306  0.39605  0.41366  1.0000
  C   C224      1.0  0.99222  0.37552  0.41372  1.0000
  H   H121      1.0  0.97814  0.36897  0.47428  1.0000
  H   H122      1.0  0.04718  0.40364  0.47388  1.0000
  H   H123      1.0  0.04884  0.44377  0.64047  1.0000
  H   H124      1.0  0.04883  0.39926  0.63185  1.0000
  C   C225      1.0  0.63316  0.65773  0.41368  1.0000
  C   C226      1.0  0.65368  0.63741  0.41375  1.0000
  H   H125      1.0  0.66024  0.62990  0.47432  1.0000
  H   H126      1.0  0.62558  0.66427  0.47389  1.0000
  H   H127      1.0  0.58542  0.62574  0.64052  1.0000
  H   H128      1.0  0.62994  0.67022  0.63187  1.0000
  C   C227      1.0  0.37134  0.99614  0.41392  1.0000
  C   C228      1.0  0.39162  0.03698  0.41399  1.0000
  H   H129      1.0  0.39905  0.05106  0.47454  1.0000
  H   H130      1.0  0.36464  0.98199  0.47410  1.0000
  H   H131      1.0  0.40357  0.98035  0.64084  1.0000
  H   H132      1.0  0.35911  0.98042  0.63210  1.0000
  C   C229      1.0  0.99206  0.63741  0.41389  1.0000
  C   C230      1.0  0.03289  0.65786  0.41396  1.0000
  H   H133      1.0  0.04700  0.66457  0.47449  1.0000
  H   H134      1.0  0.97791  0.62986  0.47405  1.0000
  H   H135      1.0  0.97631  0.58937  0.64072  1.0000
  H   H136      1.0  0.97636  0.63389  0.63203  1.0000
  C   C231      1.0  0.39180  0.37536  0.41390  1.0000
  C   C232      1.0  0.37124  0.39565  0.41397  1.0000
  H   H137      1.0  0.36464  0.40314  0.47451  1.0000
  H   H138      1.0  0.39933  0.36876  0.47409  1.0000
  H   H139      1.0  0.43982  0.40765  0.64078  1.0000
  H   H140      1.0  0.39530  0.36318  0.63205  1.0000
  C   C233      1.0  0.65376  0.03713  0.41375  1.0000
  C   C234      1.0  0.63346  0.99629  0.41391  1.0000
  H   H141      1.0  0.62595  0.98221  0.47446  1.0000
  H   H142      1.0  0.66034  0.05126  0.47394  1.0000
  H   H143      1.0  0.62153  0.05282  0.64070  1.0000
  H   H144      1.0  0.66599  0.05275  0.63194  1.0000
