data_image0
_chemical_formula_structural       C3NC3NC5NC5NC36H26N4H4C3NC3NC5NC5NC36H26N4H4C3NC3NC5NC5NC36H26N4H4C5H3CH3CHC5H3CH3CHC5H3CH3CHC5H3CH3CHC5H3CH3CHC5H3CH3CHC16H16C16H16C16H16C3HC4H2CH4CH2C3HC4H2CH4CH2C3HC4H2CH4CH2C3HC4H2CH4CH2C3HC4H2CH4CH2C3HC4H2CH4CH2
_chemical_formula_sum              "C300 N24 H234"
_cell_length_a       74.9531
_cell_length_b       74.9532
_cell_length_c       15.012
_cell_angle_alpha    89.6054
_cell_angle_beta     90.3946
_cell_angle_gamma    120

_space_group_name_H-M_alt    "P 1"
_space_group_IT_number       1

loop_
  _space_group_symop_operation_xyz
  'x, y, z'

loop_
  _atom_site_type_symbol
  _atom_site_label
  _atom_site_symmetry_multiplicity
  _atom_site_fract_x
  _atom_site_fract_y
  _atom_site_fract_z
  _atom_site_occupancy
  C   C1        1.0  0.03895  0.50361  0.28524  1.0000
  C   C2        1.0  0.01772  0.49245  0.28675  1.0000
  C   C3        1.0  0.01051  0.50607  0.30346  1.0000
  N   N1        1.0  0.02753  0.52495  0.31050  1.0000
  C   C4        1.0  0.04516  0.52424  0.30163  1.0000
  C   C5        1.0  0.06596  0.54040  0.30919  1.0000
  C   C6        1.0  0.07217  0.56157  0.31674  1.0000
  N   N2        1.0  0.06013  0.57020  0.31026  1.0000
  C   C7        1.0  0.07122  0.59088  0.31889  1.0000
  C   C8        1.0  0.09167  0.59585  0.33152  1.0000
  C   C9        1.0  0.09226  0.57775  0.32998  1.0000
  C   C10       1.0  0.06385  0.60498  0.31344  1.0000
  C   C11       1.0  0.04275  0.59920  0.30398  1.0000
  N   N3        1.0  0.02574  0.58029  0.31085  1.0000
  C   C12       1.0  0.00811  0.58102  0.30190  1.0000
  C   C13       1.0  0.01429  0.60170  0.28562  1.0000
  C   C14       1.0  0.03552  0.61285  0.28720  1.0000
  C   C15       1.0  0.98732  0.56486  0.30944  1.0000
  C   C16       1.0  0.98112  0.54367  0.31687  1.0000
  N   N4        1.0  0.99315  0.53506  0.31016  1.0000
  C   C17       1.0  0.98208  0.51435  0.31863  1.0000
  C   C18       1.0  0.96165  0.50936  0.33124  1.0000
  C   C19       1.0  0.96105  0.52747  0.32992  1.0000
  C   C20       1.0  0.98943  0.50026  0.31283  1.0000
  C   C21       1.0  0.97468  0.47885  0.31629  1.0000
  C   C22       1.0  0.94591  0.43570  0.32282  1.0000
  C   C23       1.0  0.94827  0.44737  0.24460  1.0000
  C   C24       1.0  0.96248  0.46864  0.24116  1.0000
  C   C25       1.0  0.93142  0.41410  0.32641  1.0000
  C   C26       1.0  0.92885  0.40106  0.25366  1.0000
  C   C27       1.0  0.91421  0.37991  0.25645  1.0000
  C   C28       1.0  0.90190  0.37117  0.33276  1.0000
  C   C29       1.0  0.97161  0.57026  0.30774  1.0000
  C   C30       1.0  0.94150  0.58275  0.30141  1.0000
  C   C31       1.0  0.94479  0.57328  0.22699  1.0000
  C   C32       1.0  0.95979  0.56725  0.22981  1.0000
  C   C33       1.0  0.92653  0.58907  0.29793  1.0000
  C   C34       1.0  0.89648  0.60165  0.29010  1.0000
  C   C35       1.0  0.89108  0.58115  0.26992  1.0000
  C   C36       1.0  0.90596  0.57498  0.27303  1.0000
  C   C37       1.0  0.07858  0.62639  0.31725  1.0000
  C   C38       1.0  0.09056  0.63685  0.24210  1.0000
  C   C39       1.0  0.10460  0.65815  0.24565  1.0000
  C   C40       1.0  0.10701  0.66961  0.32401  1.0000
  C   C41       1.0  0.12124  0.69126  0.32756  1.0000
  C   C42       1.0  0.15020  0.73434  0.33389  1.0000
  C   C43       1.0  0.13770  0.72559  0.25782  1.0000
  C   C44       1.0  0.12334  0.70437  0.25502  1.0000
  C   C45       1.0  0.08168  0.53502  0.30726  1.0000
  C   C46       1.0  0.09338  0.53828  0.22931  1.0000
  C   C47       1.0  0.11213  0.52301  0.30105  1.0000
  C   C48       1.0  0.10854  0.53248  0.22654  1.0000
  C   C49       1.0  0.12737  0.51706  0.29783  1.0000
  C   C50       1.0  0.14781  0.53145  0.27284  1.0000
  C   C51       1.0  0.16296  0.52565  0.26995  1.0000
  C   C52       1.0  0.15797  0.50524  0.29050  1.0000
  H   H1        1.0  0.17766  0.53633  0.25195  1.0000
  H   H2        1.0  0.15192  0.54636  0.25793  1.0000
  H   H3        1.0  0.11664  0.53483  0.16885  1.0000
  H   H4        1.0  0.09086  0.54477  0.17392  1.0000
  H   H5        1.0  0.04815  0.49734  0.27539  1.0000
  H   H6        1.0  0.00915  0.47688  0.27768  1.0000
  H   H7        1.0  0.02720  0.53704  0.32923  1.0000
  H   H8        1.0  0.02610  0.56817  0.32964  1.0000
  H   H9        1.0  0.10531  0.57677  0.33763  1.0000
  H   H10       1.0  0.10422  0.61018  0.34014  1.0000
  H   H11       1.0  0.08909  0.62906  0.18430  1.0000
  H   H12       1.0  0.11327  0.66516  0.19038  1.0000
  H   H13       1.0  0.04407  0.62843  0.27816  1.0000
  H   H14       1.0  0.00508  0.60798  0.27556  1.0000
  H   H15       1.0  0.94911  0.49502  0.33966  1.0000
  H   H16       1.0  0.94802  0.52843  0.33759  1.0000
  H   H17       1.0  0.96214  0.56081  0.17440  1.0000
  H   H18       1.0  0.93662  0.57114  0.16925  1.0000
  H   H19       1.0  0.90156  0.56001  0.25845  1.0000
  H   H20       1.0  0.87628  0.57068  0.25209  1.0000
  H   H21       1.0  0.96386  0.47661  0.18354  1.0000
  H   H22       1.0  0.93940  0.44057  0.18944  1.0000
  H   H23       1.0  0.91249  0.37089  0.20262  1.0000
  H   H24       1.0  0.93770  0.40680  0.19775  1.0000
  H   H25       1.0  0.11434  0.69862  0.19930  1.0000
  H   H26       1.0  0.13908  0.73467  0.20413  1.0000
  N   N5        1.0  0.88627  0.35022  0.33707  1.0000
  N   N6        1.0  0.16555  0.75538  0.33814  1.0000
  N   N7        1.0  0.17287  0.49892  0.28673  1.0000
  N   N8        1.0  0.88186  0.60835  0.28621  1.0000
  H   H27       1.0  0.87376  0.60305  0.22768  1.0000
  H   H28       1.0  0.15940  0.76428  0.31770  1.0000
  H   H29       1.0  0.18076  0.50432  0.22796  1.0000
  H   H30       1.0  0.89210  0.34115  0.31594  1.0000
  C   C53       1.0  0.57748  0.61753  0.29123  1.0000
  C   C54       1.0  0.58863  0.60745  0.29287  1.0000
  C   C55       1.0  0.57502  0.58658  0.30945  1.0000
  N   N9        1.0  0.55613  0.58470  0.31634  1.0000
  C   C56       1.0  0.55683  0.60305  0.30742  1.0000
  C   C57       1.0  0.54067  0.60767  0.31496  1.0000
  C   C58       1.0  0.51950  0.59269  0.32256  1.0000
  N   N10       1.0  0.51087  0.57204  0.31617  1.0000
  C   C59       1.0  0.49019  0.56241  0.32475  1.0000
  C   C60       1.0  0.48521  0.57787  0.33721  1.0000
  C   C61       1.0  0.50332  0.59657  0.33559  1.0000
  C   C62       1.0  0.47609  0.54096  0.31945  1.0000
  C   C63       1.0  0.48187  0.52567  0.31028  1.0000
  N   N11       1.0  0.50076  0.52753  0.31706  1.0000
  C   C64       1.0  0.50004  0.50919  0.30805  1.0000
  C   C65       1.0  0.47935  0.49473  0.29225  1.0000
  C   C66       1.0  0.46820  0.50482  0.29391  1.0000
  C   C67       1.0  0.51622  0.50457  0.31515  1.0000
  C   C68       1.0  0.53742  0.51954  0.32239  1.0000
  N   N12       1.0  0.54603  0.54020  0.31591  1.0000
  C   C69       1.0  0.56673  0.54981  0.32433  1.0000
  C   C70       1.0  0.57173  0.53434  0.33679  1.0000
  C   C71       1.0  0.55362  0.51564  0.33533  1.0000
  C   C72       1.0  0.58082  0.57128  0.31881  1.0000
  C   C73       1.0  0.60224  0.57794  0.32248  1.0000
  C   C74       1.0  0.64538  0.59227  0.32956  1.0000
  C   C75       1.0  0.63375  0.58320  0.25120  1.0000
  C   C76       1.0  0.61249  0.57617  0.24749  1.0000
  C   C77       1.0  0.66697  0.59935  0.33342  1.0000
  C   C78       1.0  0.68006  0.61003  0.26081  1.0000
  C   C79       1.0  0.70119  0.61646  0.26380  1.0000
  C   C80       1.0  0.70988  0.61263  0.34016  1.0000
  C   C81       1.0  0.51083  0.48346  0.31342  1.0000
  C   C82       1.0  0.49836  0.44089  0.30708  1.0000
  C   C83       1.0  0.50778  0.45384  0.23260  1.0000
  C   C84       1.0  0.51380  0.47486  0.23542  1.0000
  C   C85       1.0  0.49203  0.41960  0.30360  1.0000
  C   C86       1.0  0.47944  0.37700  0.29573  1.0000
  C   C87       1.0  0.49993  0.39214  0.27543  1.0000
  C   C88       1.0  0.50611  0.41319  0.27860  1.0000
  C   C89       1.0  0.45468  0.53428  0.32346  1.0000
  C   C90       1.0  0.44417  0.53596  0.24836  1.0000
  C   C91       1.0  0.42288  0.52871  0.25214  1.0000
  C   C92       1.0  0.41148  0.51951  0.33067  1.0000
  C   C93       1.0  0.38983  0.51211  0.33447  1.0000
  C   C94       1.0  0.34677  0.49807  0.34118  1.0000
  C   C95       1.0  0.35545  0.49445  0.26509  1.0000
  C   C96       1.0  0.37666  0.50127  0.26211  1.0000
  C   C97       1.0  0.54604  0.62877  0.31296  1.0000
  C   C98       1.0  0.54281  0.63743  0.23496  1.0000
  C   C99       1.0  0.55805  0.67125  0.30668  1.0000
  C   C100      1.0  0.54862  0.65840  0.23214  1.0000
  C   C101      1.0  0.56400  0.69245  0.30341  1.0000
  C   C102      1.0  0.54962  0.69857  0.27836  1.0000
  C   C103      1.0  0.55541  0.71952  0.27543  1.0000
  C   C104      1.0  0.57581  0.73489  0.29605  1.0000
  H   H31       1.0  0.54473  0.72358  0.25740  1.0000
  H   H32       1.0  0.53470  0.68780  0.26342  1.0000
  H   H33       1.0  0.54628  0.66431  0.17442  1.0000
  H   H34       1.0  0.53634  0.62857  0.17956  1.0000
  H   H35       1.0  0.58375  0.63303  0.28145  1.0000
  H   H36       1.0  0.60421  0.61449  0.28393  1.0000
  H   H37       1.0  0.54403  0.57222  0.33499  1.0000
  H   H38       1.0  0.51294  0.54003  0.33477  1.0000
  H   H39       1.0  0.50429  0.61058  0.34305  1.0000
  H   H40       1.0  0.47089  0.57607  0.34563  1.0000
  H   H41       1.0  0.45194  0.54240  0.19044  1.0000
  H   H42       1.0  0.41584  0.53050  0.19691  1.0000
  H   H43       1.0  0.45261  0.49780  0.28492  1.0000
  H   H44       1.0  0.47306  0.47926  0.28214  1.0000
  H   H45       1.0  0.58607  0.53612  0.34522  1.0000
  H   H46       1.0  0.55267  0.50162  0.34292  1.0000
  H   H47       1.0  0.52019  0.48379  0.17994  1.0000
  H   H48       1.0  0.50987  0.44796  0.17478  1.0000
  H   H49       1.0  0.52107  0.42379  0.26384  1.0000
  H   H50       1.0  0.51039  0.38786  0.25749  1.0000
  H   H51       1.0  0.60456  0.56976  0.18978  1.0000
  H   H52       1.0  0.64059  0.58131  0.19613  1.0000
  H   H53       1.0  0.71024  0.62390  0.21000  1.0000
  H   H54       1.0  0.67436  0.61331  0.20483  1.0000
  H   H55       1.0  0.38237  0.49812  0.20637  1.0000
  H   H56       1.0  0.34635  0.48689  0.21150  1.0000
  N   N13       1.0  0.73080  0.61784  0.34454  1.0000
  N   N14       1.0  0.32575  0.49246  0.34549  1.0000
  N   N15       1.0  0.58213  0.75612  0.29228  1.0000
  N   N16       1.0  0.47273  0.35569  0.29183  1.0000
  H   H57       1.0  0.47803  0.35304  0.23329  1.0000
  H   H58       1.0  0.31681  0.47748  0.32489  1.0000
  H   H59       1.0  0.57674  0.75877  0.23350  1.0000
  H   H60       1.0  0.73992  0.63278  0.32322  1.0000
  C   C105      1.0  0.46353  0.04207  0.29808  1.0000
  C   C106      1.0  0.47360  0.06330  0.29986  1.0000
  C   C107      1.0  0.49447  0.07051  0.31653  1.0000
  N   N17       1.0  0.49635  0.05349  0.32361  1.0000
  C   C108      1.0  0.47802  0.03586  0.31424  1.0000
  C   C109      1.0  0.47342  0.01506  0.32136  1.0000
  C   C110      1.0  0.48841  0.00887  0.32922  1.0000
  N   N18       1.0  0.50906  0.02093  0.32304  1.0000
  C   C111      1.0  0.51870  0.00985  0.33181  1.0000
  C   C112      1.0  0.50326  0.98939  0.34418  1.0000
  C   C113      1.0  0.48454  0.98877  0.34224  1.0000
  C   C114      1.0  0.54015  0.01723  0.32632  1.0000
  C   C115      1.0  0.55541  0.03832  0.31656  1.0000
  N   N19       1.0  0.55353  0.05533  0.32336  1.0000
  C   C116      1.0  0.57185  0.07297  0.31402  1.0000
  C   C117      1.0  0.58629  0.06679  0.29752  1.0000
  C   C118      1.0  0.57624  0.04556  0.29958  1.0000
  C   C119      1.0  0.57649  0.09376  0.32128  1.0000
  C   C120      1.0  0.56152  0.09995  0.32887  1.0000
  N   N20       1.0  0.54085  0.08790  0.32257  1.0000
  C   C121      1.0  0.53124  0.09897  0.33110  1.0000
  C   C122      1.0  0.54671  0.11940  0.34351  1.0000
  C   C123      1.0  0.56541  0.12002  0.34190  1.0000
  C   C124      1.0  0.50977  0.09160  0.32570  1.0000
  C   C125      1.0  0.50310  0.10634  0.32921  1.0000
  C   C126      1.0  0.48876  0.13513  0.33592  1.0000
  C   C127      1.0  0.49786  0.13278  0.25767  1.0000
  C   C128      1.0  0.50489  0.11856  0.25414  1.0000
  C   C129      1.0  0.48168  0.14963  0.33960  1.0000
  C   C130      1.0  0.47103  0.15224  0.26687  1.0000
  C   C131      1.0  0.46459  0.16693  0.26970  1.0000
  C   C132      1.0  0.46841  0.17925  0.34601  1.0000
  C   C133      1.0  0.59758  0.10948  0.31873  1.0000
  C   C134      1.0  0.64014  0.13960  0.31042  1.0000
  C   C135      1.0  0.62699  0.13624  0.23666  1.0000
  C   C136      1.0  0.60598  0.12124  0.24045  1.0000
  C   C137      1.0  0.66141  0.15455  0.30588  1.0000
  C   C138      1.0  0.70399  0.18454  0.29533  1.0000
  C   C139      1.0  0.68880  0.18994  0.27631  1.0000
  C   C140      1.0  0.66776  0.17509  0.28077  1.0000
  C   C141      1.0  0.54685  0.00251  0.33020  1.0000
  C   C142      1.0  0.54513  0.99052  0.25510  1.0000
  C   C143      1.0  0.55239  0.97648  0.25873  1.0000
  C   C144      1.0  0.56165  0.97408  0.33713  1.0000
  C   C145      1.0  0.56906  0.95983  0.34079  1.0000
  C   C146      1.0  0.58308  0.93077  0.34718  1.0000
  C   C147      1.0  0.58666  0.94327  0.27110  1.0000
  C   C148      1.0  0.57985  0.95768  0.26827  1.0000
  C   C149      1.0  0.45233  0.99931  0.31847  1.0000
  C   C150      1.0  0.44389  0.98774  0.24005  1.0000
  C   C151      1.0  0.40988  0.96887  0.31004  1.0000
  C   C152      1.0  0.42293  0.97258  0.23619  1.0000
  C   C153      1.0  0.38868  0.95365  0.30562  1.0000
  C   C154      1.0  0.38262  0.93325  0.28020  1.0000
  C   C155      1.0  0.36167  0.91813  0.27588  1.0000
  C   C156      1.0  0.34626  0.92311  0.29548  1.0000
  H   H61       1.0  0.35765  0.90347  0.25755  1.0000
  H   H62       1.0  0.39342  0.92914  0.26596  1.0000
  H   H63       1.0  0.41717  0.96458  0.17814  1.0000
  H   H64       1.0  0.45289  0.99036  0.18508  1.0000
  H   H65       1.0  0.44805  0.03287  0.28780  1.0000
  H   H66       1.0  0.46656  0.07186  0.29064  1.0000
  H   H67       1.0  0.50888  0.05385  0.34154  1.0000
  H   H68       1.0  0.54111  0.05497  0.34233  1.0000
  H   H69       1.0  0.47054  0.97571  0.34959  1.0000
  H   H70       1.0  0.50505  0.97684  0.35257  1.0000
  H   H71       1.0  0.53864  0.99197  0.19727  1.0000
  H   H72       1.0  0.55057  0.96779  0.20351  1.0000
  H   H73       1.0  0.58326  0.03701  0.29051  1.0000
  H   H74       1.0  0.60176  0.07600  0.28734  1.0000
  H   H75       1.0  0.54492  0.13194  0.35203  1.0000
  H   H76       1.0  0.57943  0.13306  0.34938  1.0000
  H   H77       1.0  0.59690  0.11882  0.18546  1.0000
  H   H78       1.0  0.63270  0.14434  0.17866  1.0000
  H   H79       1.0  0.65713  0.17950  0.26689  1.0000
  H   H80       1.0  0.69304  0.20472  0.25821  1.0000
  H   H81       1.0  0.51131  0.11718  0.19648  1.0000
  H   H82       1.0  0.49976  0.14165  0.20253  1.0000
  H   H83       1.0  0.45717  0.16868  0.21584  1.0000
  H   H84       1.0  0.46776  0.14340  0.21094  1.0000
  H   H85       1.0  0.58296  0.96667  0.21252  1.0000
  H   H86       1.0  0.59417  0.94185  0.21739  1.0000
  N   N21       1.0  0.46319  0.19494  0.35024  1.0000
  N   N22       1.0  0.58867  0.91533  0.35134  1.0000
  N   N23       1.0  0.32503  0.90826  0.29014  1.0000
  N   N24       1.0  0.72529  0.19912  0.28985  1.0000
  H   H87       1.0  0.72772  0.20703  0.23090  1.0000
  H   H88       1.0  0.60364  0.92142  0.33064  1.0000
  H   H89       1.0  0.32258  0.90056  0.23095  1.0000
  H   H90       1.0  0.44826  0.18918  0.32885  1.0000
  C   C157      1.0  0.29994  0.50388  0.30947  1.0000
  C   C158      1.0  0.29546  0.51841  0.27031  1.0000
  C   C159      1.0  0.27639  0.51758  0.28336  1.0000
  C   C160      1.0  0.22650  0.49078  0.28447  1.0000
  C   C161      1.0  0.20830  0.49174  0.28922  1.0000
  H   H91       1.0  0.22900  0.48440  0.22919  1.0000
  H   H92       1.0  0.19804  0.48572  0.23770  1.0000
  H   H93       1.0  0.30654  0.53008  0.23256  1.0000
  C   C162      1.0  0.27297  0.53387  0.24313  1.0000
  H   H94       1.0  0.28636  0.54547  0.20671  1.0000
  H   H95       1.0  0.26953  0.54175  0.29534  1.0000
  H   H96       1.0  0.26003  0.52694  0.19659  1.0000
  C   C163      1.0  0.32068  0.50637  0.29385  1.0000
  H   H97       1.0  0.32215  0.50443  0.22255  1.0000
  C   C164      1.0  0.57722  0.87820  0.31526  1.0000
  C   C165      1.0  0.56267  0.85930  0.27610  1.0000
  C   C166      1.0  0.56348  0.84101  0.28908  1.0000
  C   C167      1.0  0.59026  0.81790  0.29005  1.0000
  C   C168      1.0  0.58930  0.79872  0.29476  1.0000
  H   H98       1.0  0.59665  0.82693  0.23477  1.0000
  H   H99       1.0  0.59531  0.79462  0.24323  1.0000
  H   H100      1.0  0.55099  0.85882  0.23840  1.0000
  C   C169      1.0  0.54719  0.82143  0.24885  1.0000
  H   H101      1.0  0.53559  0.82333  0.21248  1.0000
  H   H102      1.0  0.53930  0.80995  0.30105  1.0000
  H   H103      1.0  0.55411  0.81554  0.20227  1.0000
  C   C170      1.0  0.57474  0.89650  0.29973  1.0000
  H   H104      1.0  0.57665  0.90011  0.22844  1.0000
  C   C171      1.0  0.20269  0.78127  0.30294  1.0000
  C   C172      1.0  0.22165  0.78584  0.26408  1.0000
  C   C173      1.0  0.23993  0.80485  0.27828  1.0000
  C   C174      1.0  0.26321  0.85474  0.28279  1.0000
  C   C175      1.0  0.28239  0.87289  0.28920  1.0000
  H   H105      1.0  0.25437  0.85248  0.22708  1.0000
  H   H106      1.0  0.28668  0.88336  0.23841  1.0000
  H   H107      1.0  0.22219  0.77485  0.22582  1.0000
  C   C176      1.0  0.25958  0.80835  0.23847  1.0000
  H   H108      1.0  0.25773  0.79506  0.20130  1.0000
  H   H109      1.0  0.27094  0.81159  0.29098  1.0000
  H   H110      1.0  0.26559  0.82144  0.19269  1.0000
  C   C177      1.0  0.18441  0.76056  0.28645  1.0000
  H   H111      1.0  0.18084  0.75925  0.21514  1.0000
  C   C178      1.0  0.75601  0.60575  0.30953  1.0000
  C   C179      1.0  0.76005  0.59096  0.27116  1.0000
  C   C180      1.0  0.77900  0.59145  0.28425  1.0000
  C   C181      1.0  0.82891  0.61760  0.28406  1.0000
  C   C182      1.0  0.84693  0.61629  0.28872  1.0000
  H   H112      1.0  0.82638  0.62407  0.22855  1.0000
  H   H113      1.0  0.85704  0.62215  0.23691  1.0000
  H   H114      1.0  0.74875  0.57937  0.23394  1.0000
  C   C183      1.0  0.78196  0.57493  0.24483  1.0000
  H   H115      1.0  0.76837  0.56344  0.20894  1.0000
  H   H116      1.0  0.78538  0.56694  0.29744  1.0000
  H   H117      1.0  0.79477  0.58165  0.19799  1.0000
  C   C184      1.0  0.73539  0.60364  0.29383  1.0000
  H   H118      1.0  0.73376  0.60554  0.22240  1.0000
  C   C185      1.0  0.47529  0.23235  0.31518  1.0000
  C   C186      1.0  0.49009  0.25128  0.27683  1.0000
  C   C187      1.0  0.48961  0.26971  0.28991  1.0000
  C   C188      1.0  0.46346  0.29348  0.28966  1.0000
  C   C189      1.0  0.46478  0.31280  0.29432  1.0000
  H   H119      1.0  0.45699  0.28463  0.23414  1.0000
  H   H120      1.0  0.45893  0.31719  0.24249  1.0000
  H   H121      1.0  0.50168  0.25167  0.23963  1.0000
  C   C190      1.0  0.50614  0.28930  0.25051  1.0000
  H   H122      1.0  0.51762  0.28729  0.21464  1.0000
  H   H123      1.0  0.51412  0.30056  0.30312  1.0000
  H   H124      1.0  0.49942  0.29553  0.20365  1.0000
  C   C191      1.0  0.47741  0.21387  0.29952  1.0000
  H   H125      1.0  0.47551  0.21054  0.22810  1.0000
  C   C192      1.0  0.84887  0.32492  0.30287  1.0000
  C   C193      1.0  0.82987  0.32077  0.26481  1.0000
  C   C194      1.0  0.81146  0.30189  0.27911  1.0000
  C   C195      1.0  0.78752  0.25196  0.28245  1.0000
  C   C196      1.0  0.76820  0.23398  0.28885  1.0000
  H   H126      1.0  0.79617  0.25425  0.22650  1.0000
  H   H127      1.0  0.76362  0.22366  0.23779  1.0000
  H   H128      1.0  0.82943  0.33198  0.22705  1.0000
  C   C197      1.0  0.79180  0.29883  0.24012  1.0000
  H   H129      1.0  0.79375  0.31232  0.20344  1.0000
  H   H130      1.0  0.78066  0.29562  0.29305  1.0000
  H   H131      1.0  0.78546  0.28587  0.19408  1.0000
  C   C198      1.0  0.86731  0.34551  0.28626  1.0000
  H   H132      1.0  0.87061  0.34697  0.21482  1.0000
  C   C199      1.0  0.97247  0.46741  0.39460  1.0000
  C   C200      1.0  0.95830  0.44615  0.39765  1.0000
  C   C201      1.0  0.90455  0.38390  0.40605  1.0000
  C   C202      1.0  0.91900  0.40508  0.40269  1.0000
  C   C203      1.0  0.96823  0.57949  0.38259  1.0000
  C   C204      1.0  0.95342  0.58578  0.37921  1.0000
  C   C205      1.0  0.93184  0.60954  0.31860  1.0000
  C   C206      1.0  0.91702  0.61582  0.31362  1.0000
  C   C207      1.0  0.09489  0.65890  0.39896  1.0000
  C   C208      1.0  0.08087  0.63761  0.39577  1.0000
  C   C209      1.0  0.13383  0.70028  0.40363  1.0000
  C   C210      1.0  0.14800  0.72154  0.40701  1.0000
  C   C211      1.0  0.08532  0.52575  0.38212  1.0000
  C   C212      1.0  0.10030  0.51970  0.37881  1.0000
  C   C213      1.0  0.13757  0.49077  0.31418  1.0000
  C   C214      1.0  0.12248  0.49668  0.31896  1.0000
  H   H133      1.0  0.13367  0.47592  0.32904  1.0000
  H   H134      1.0  0.10777  0.48583  0.33611  1.0000
  H   H135      1.0  0.10269  0.51312  0.43418  1.0000
  H   H136      1.0  0.07698  0.52320  0.43924  1.0000
  H   H137      1.0  0.07220  0.63039  0.45085  1.0000
  H   H138      1.0  0.09579  0.66659  0.45637  1.0000
  H   H139      1.0  0.97669  0.58192  0.43964  1.0000
  H   H140      1.0  0.95126  0.59238  0.43449  1.0000
  H   H141      1.0  0.92121  0.63073  0.32824  1.0000
  H   H142      1.0  0.94665  0.62017  0.33575  1.0000
  H   H143      1.0  0.91995  0.41396  0.45598  1.0000
  H   H144      1.0  0.89550  0.37789  0.46128  1.0000
  H   H145      1.0  0.95741  0.43829  0.45501  1.0000
  H   H146      1.0  0.98127  0.47444  0.44971  1.0000
  H   H147      1.0  0.13320  0.69137  0.45678  1.0000
  H   H148      1.0  0.15719  0.72755  0.46205  1.0000
  C   C215      1.0  0.61363  0.58692  0.40094  1.0000
  C   C216      1.0  0.63489  0.59400  0.40425  1.0000
  C   C217      1.0  0.69711  0.60238  0.41340  1.0000
  C   C218      1.0  0.67593  0.59570  0.40980  1.0000
  C   C219      1.0  0.50166  0.47065  0.38835  1.0000
  C   C220      1.0  0.49538  0.44958  0.38498  1.0000
  C   C221      1.0  0.47157  0.40439  0.32444  1.0000
  C   C222      1.0  0.46528  0.38330  0.31941  1.0000
  C   C223      1.0  0.42222  0.51792  0.40555  1.0000
  C   C224      1.0  0.44351  0.52520  0.40214  1.0000
  C   C225      1.0  0.38087  0.51554  0.41058  1.0000
  C   C226      1.0  0.35962  0.50849  0.41413  1.0000
  C   C227      1.0  0.55529  0.64148  0.38785  1.0000
  C   C228      1.0  0.56133  0.66251  0.38451  1.0000
  C   C229      1.0  0.59028  0.72889  0.31983  1.0000
  C   C230      1.0  0.58438  0.70789  0.32457  1.0000
  H   H149      1.0  0.60512  0.73980  0.33472  1.0000
  H   H150      1.0  0.59522  0.70397  0.34184  1.0000
  H   H151      1.0  0.56791  0.67134  0.43989  1.0000
  H   H152      1.0  0.55783  0.63554  0.44502  1.0000
  H   H153      1.0  0.45076  0.52363  0.45719  1.0000
  H   H154      1.0  0.41457  0.51103  0.46310  1.0000
  H   H155      1.0  0.49927  0.47654  0.44548  1.0000
  H   H156      1.0  0.48881  0.44066  0.44031  1.0000
  H   H157      1.0  0.45038  0.37255  0.33407  1.0000
  H   H158      1.0  0.46094  0.40853  0.34159  1.0000
  H   H159      1.0  0.66702  0.58762  0.46300  1.0000
  H   H160      1.0  0.70306  0.59912  0.46861  1.0000
  H   H161      1.0  0.64270  0.60078  0.46170  1.0000
  H   H162      1.0  0.60656  0.58853  0.45595  1.0000
  H   H163      1.0  0.38982  0.52369  0.46361  1.0000
  H   H164      1.0  0.35365  0.51156  0.46919  1.0000
  C   C231      1.0  0.49410  0.10855  0.40756  1.0000
  C   C232      1.0  0.48703  0.12273  0.41071  1.0000
  C   C233      1.0  0.47865  0.17655  0.41932  1.0000
  C   C234      1.0  0.48532  0.16205  0.41591  1.0000
  C   C235      1.0  0.61059  0.11294  0.39295  1.0000
  C   C236      1.0  0.63166  0.12775  0.38859  1.0000
  C   C237      1.0  0.67668  0.14924  0.32545  1.0000
  C   C238      1.0  0.69775  0.16403  0.31913  1.0000
  C   C239      1.0  0.56329  0.98623  0.41200  1.0000
  C   C240      1.0  0.55600  0.00024  0.40874  1.0000
  C   C241      1.0  0.56568  0.94724  0.41690  1.0000
  C   C242      1.0  0.57272  0.93302  0.42031  1.0000
  C   C243      1.0  0.43942  0.99554  0.39272  1.0000
  C   C244      1.0  0.41840  0.98057  0.38829  1.0000
  C   C245      1.0  0.35220  0.94348  0.31964  1.0000
  C   C246      1.0  0.37320  0.95853  0.32575  1.0000
  H   H165      1.0  0.34125  0.94737  0.33375  1.0000
  H   H166      1.0  0.37707  0.97322  0.34320  1.0000
  H   H167      1.0  0.40942  0.97809  0.44320  1.0000
  H   H168      1.0  0.44521  0.00380  0.45015  1.0000
  H   H169      1.0  0.55760  0.00891  0.46379  1.0000
  H   H170      1.0  0.57022  0.98531  0.46947  1.0000
  H   H171      1.0  0.60485  0.10453  0.45023  1.0000
  H   H172      1.0  0.64073  0.12996  0.44340  1.0000
  H   H173      1.0  0.70854  0.15983  0.33287  1.0000
  H   H174      1.0  0.67258  0.13444  0.34263  1.0000
  H   H175      1.0  0.49338  0.16108  0.46919  1.0000
  H   H176      1.0  0.48188  0.18561  0.47452  1.0000
  H   H177      1.0  0.48022  0.12360  0.46808  1.0000
  H   H178      1.0  0.49248  0.09973  0.46264  1.0000
  H   H179      1.0  0.55754  0.94789  0.47000  1.0000
  H   H180      1.0  0.56965  0.92381  0.47531  1.0000
  C   C247      1.0  0.26112  0.50130  0.33600  1.0000
  C   C248      1.0  0.26537  0.48659  0.37460  1.0000
  C   C249      1.0  0.28458  0.48797  0.36211  1.0000
  H   H181      1.0  0.28714  0.47715  0.39190  1.0000
  C   C250      1.0  0.24169  0.49963  0.35176  1.0000
  C   C251      1.0  0.20490  0.50183  0.36075  1.0000
  C   C252      1.0  0.21960  0.50951  0.43057  1.0000
  C   C253      1.0  0.23802  0.50865  0.42742  1.0000
  H   H182      1.0  0.21721  0.51671  0.48308  1.0000
  H   H183      1.0  0.25456  0.47485  0.41300  1.0000
  C   C254      1.0  0.25334  0.51776  0.50111  1.0000
  H   H184      1.0  0.26788  0.53022  0.47549  1.0000
  H   H185      1.0  0.25602  0.50596  0.53063  1.0000
  H   H186      1.0  0.24822  0.52405  0.55407  1.0000
  H   H187      1.0  0.33201  0.52228  0.31131  1.0000
  C   C255      1.0  0.18736  0.50591  0.36393  1.0000
  H   H188      1.0  0.19402  0.52257  0.37179  1.0000
  H   H189      1.0  0.17844  0.49841  0.42382  1.0000
  C   C256      1.0  0.57977  0.84187  0.34166  1.0000
  C   C257      1.0  0.59450  0.86071  0.38026  1.0000
  C   C258      1.0  0.59313  0.87859  0.36783  1.0000
  H   H190      1.0  0.60395  0.89188  0.39763  1.0000
  C   C259      1.0  0.58142  0.82405  0.35736  1.0000
  C   C260      1.0  0.57922  0.78503  0.36630  1.0000
  C   C261      1.0  0.57154  0.79186  0.43614  1.0000
  C   C262      1.0  0.57241  0.81115  0.43303  1.0000
  H   H191      1.0  0.56435  0.78212  0.48866  1.0000
  H   H192      1.0  0.60623  0.86152  0.41861  1.0000
  C   C263      1.0  0.56331  0.81715  0.50674  1.0000
  H   H193      1.0  0.55085  0.81932  0.48116  1.0000
  H   H194      1.0  0.57512  0.83156  0.53627  1.0000
  H   H195      1.0  0.55702  0.80560  0.55970  1.0000
  H   H196      1.0  0.55883  0.89189  0.31730  1.0000
  C   C264      1.0  0.57514  0.76341  0.36947  1.0000
  H   H197      1.0  0.55848  0.75338  0.37730  1.0000
  H   H198      1.0  0.58263  0.76181  0.42937  1.0000
  C   C265      1.0  0.23899  0.81997  0.33176  1.0000
  C   C266      1.0  0.22008  0.81564  0.36994  1.0000
  C   C267      1.0  0.20221  0.79648  0.35631  1.0000
  H   H199      1.0  0.18888  0.79386  0.38593  1.0000
  C   C268      1.0  0.25681  0.83930  0.34904  1.0000
  C   C269      1.0  0.29582  0.87600  0.36143  1.0000
  C   C270      1.0  0.28874  0.86103  0.43019  1.0000
  C   C271      1.0  0.26944  0.84265  0.42534  1.0000
  H   H200      1.0  0.29829  0.86321  0.48319  1.0000
  H   H201      1.0  0.21921  0.82634  0.40895  1.0000
  C   C272      1.0  0.26318  0.82705  0.49796  1.0000
  H   H202      1.0  0.26106  0.81259  0.47144  1.0000
  H   H203      1.0  0.24869  0.82429  0.52691  1.0000
  H   H204      1.0  0.27456  0.83193  0.55156  1.0000
  H   H205      1.0  0.18904  0.74919  0.30327  1.0000
  C   C273      1.0  0.31744  0.89350  0.36640  1.0000
  H   H206      1.0  0.32742  0.88680  0.37449  1.0000
  H   H207      1.0  0.31882  0.90223  0.42671  1.0000
  C   C274      1.0  0.79458  0.60763  0.33613  1.0000
  C   C275      1.0  0.79077  0.62259  0.37399  1.0000
  C   C276      1.0  0.77167  0.62155  0.36145  1.0000
  H   H208      1.0  0.76944  0.63254  0.39068  1.0000
  C   C277      1.0  0.81392  0.60898  0.35177  1.0000
  C   C278      1.0  0.85034  0.60606  0.36059  1.0000
  C   C279      1.0  0.83586  0.59861  0.43082  1.0000
  C   C280      1.0  0.81762  0.59983  0.42776  1.0000
  H   H209      1.0  0.83826  0.59132  0.48357  1.0000
  H   H210      1.0  0.80181  0.63426  0.41182  1.0000
  C   C281      1.0  0.80252  0.59096  0.50189  1.0000
  H   H211      1.0  0.78780  0.57865  0.47685  1.0000
  H   H212      1.0  0.80018  0.60293  0.53094  1.0000
  H   H213      1.0  0.80765  0.58454  0.55508  1.0000
  H   H214      1.0  0.72390  0.58782  0.31216  1.0000
  C   C282      1.0  0.86763  0.60159  0.36377  1.0000
  H   H215      1.0  0.86073  0.58491  0.37226  1.0000
  H   H216      1.0  0.87680  0.60900  0.42332  1.0000
  C   C283      1.0  0.47342  0.26897  0.34175  1.0000
  C   C284      1.0  0.45846  0.25009  0.37958  1.0000
  C   C285      1.0  0.45949  0.23207  0.36707  1.0000
  H   H217      1.0  0.44849  0.21876  0.39628  1.0000
  C   C286      1.0  0.47208  0.28692  0.35738  1.0000
  C   C287      1.0  0.47501  0.32623  0.36620  1.0000
  C   C288      1.0  0.48245  0.31901  0.43644  1.0000
  C   C289      1.0  0.48122  0.29955  0.43338  1.0000
  H   H218      1.0  0.48974  0.32855  0.48920  1.0000
  H   H219      1.0  0.44678  0.24936  0.41738  1.0000
  C   C290      1.0  0.49009  0.29312  0.50753  1.0000
  H   H220      1.0  0.50240  0.29077  0.48252  1.0000
  H   H221      1.0  0.47810  0.27872  0.53656  1.0000
  H   H222      1.0  0.49650  0.30451  0.56073  1.0000
  H   H223      1.0  0.49322  0.21816  0.31789  1.0000
  C   C291      1.0  0.47949  0.34799  0.36938  1.0000
  H   H224      1.0  0.49618  0.35775  0.37785  1.0000
  H   H225      1.0  0.47208  0.34959  0.42893  1.0000
  C   C292      1.0  0.81228  0.28646  0.33185  1.0000
  C   C293      1.0  0.83122  0.29036  0.36927  1.0000
  C   C294      1.0  0.84923  0.30940  0.35556  1.0000
  H   H226      1.0  0.86259  0.31171  0.38460  1.0000
  C   C295      1.0  0.79433  0.26722  0.34908  1.0000
  C   C296      1.0  0.75504  0.23088  0.36144  1.0000
  C   C297      1.0  0.76252  0.24563  0.43057  1.0000
  C   C298      1.0  0.78197  0.26384  0.42574  1.0000
  H   H227      1.0  0.75317  0.24346  0.48382  1.0000
  H   H228      1.0  0.83201  0.27943  0.40775  1.0000
  C   C299      1.0  0.78867  0.27924  0.49875  1.0000
  H   H229      1.0  0.79096  0.29387  0.47278  1.0000
  H   H230      1.0  0.80315  0.28167  0.52721  1.0000
  H   H231      1.0  0.77745  0.27436  0.55261  1.0000
  H   H232      1.0  0.86303  0.35703  0.30389  1.0000
  C   C300      1.0  0.73330  0.21362  0.36647  1.0000
  H   H233      1.0  0.72358  0.22056  0.37524  1.0000
  H   H234      1.0  0.73192  0.20464  0.42643  1.0000
