data_image0
_chemical_formula_structural       C4OC4OH4N2C4OC4OH4N2C4OC4OH4N3C2HCHNC2HCHNC2HCHNC2HCHNC2HCHNC2HCHC2HC2HN2C2HC2HN2C2HC2HN2CNC2OH3CHCNC2OH3CHCNC2OH3CHCNC2OH3CHCNC2OH3CHCNC2OH3CH
_chemical_formula_sum              "C78 O12 H54 N24"
_cell_length_a       32.0809
_cell_length_b       32.0809
_cell_length_c       15.2152
_cell_angle_alpha    90
_cell_angle_beta     90
_cell_angle_gamma    120

_space_group_name_H-M_alt    "P 1"
_space_group_IT_number       1

loop_
  _space_group_symop_operation_xyz
  'x, y, z'

loop_
  _atom_site_type_symbol
  _atom_site_label
  _atom_site_symmetry_multiplicity
  _atom_site_fract_x
  _atom_site_fract_y
  _atom_site_fract_z
  _atom_site_occupancy
  C   C1        1.0  0.96364  0.47716  0.31707  1.0000
  C   C2        1.0  0.85901  0.41931  0.31085  1.0000
  C   C3        1.0  0.88765  0.39668  0.31599  1.0000
  C   C4        1.0  0.93867  0.42554  0.31563  1.0000
  O   O1        1.0  0.80990  0.39989  0.32149  1.0000
  C   C5        1.0  0.01507  0.50848  0.31718  1.0000
  C   C6        1.0  0.04005  0.56019  0.31558  1.0000
  C   C7        1.0  0.09103  0.58909  0.31591  1.0000
  C   C8        1.0  0.11955  0.56649  0.30990  1.0000
  O   O2        1.0  0.16880  0.58622  0.32135  1.0000
  H   H1        1.0  0.79068  0.36529  0.32742  1.0000
  H   H2        1.0  0.18809  0.62078  0.32726  1.0000
  H   H3        1.0  0.95700  0.40732  0.31101  1.0000
  H   H4        1.0  0.02183  0.57852  0.31106  1.0000
  N   N1        1.0  0.11215  0.63782  0.32174  1.0000
  N   N2        1.0  0.86665  0.34797  0.32170  1.0000
  C   C9        1.0  0.50498  0.48284  0.31719  1.0000
  C   C10       1.0  0.56295  0.43636  0.31003  1.0000
  C   C11       1.0  0.58554  0.48748  0.31586  1.0000
  C   C12       1.0  0.55666  0.50958  0.31563  1.0000
  O   O3        1.0  0.58272  0.40687  0.32123  1.0000
  C   C13       1.0  0.47380  0.50308  0.31720  1.0000
  C   C14       1.0  0.42211  0.47633  0.31559  1.0000
  C   C15       1.0  0.39322  0.49841  0.31591  1.0000
  C   C16       1.0  0.41583  0.54952  0.30990  1.0000
  O   O4        1.0  0.39610  0.57904  0.32135  1.0000
  H   H5        1.0  0.61726  0.42213  0.32739  1.0000
  H   H6        1.0  0.36154  0.56378  0.32725  1.0000
  H   H7        1.0  0.57494  0.54613  0.31104  1.0000
  H   H8        1.0  0.40384  0.43977  0.31105  1.0000
  N   N3        1.0  0.34450  0.47079  0.32174  1.0000
  N   N4        1.0  0.63426  0.51507  0.32169  1.0000
  C   C17       1.0  0.49945  0.01860  0.31717  1.0000
  C   C18       1.0  0.54599  0.12305  0.31006  1.0000
  C   C19       1.0  0.49485  0.09454  0.31586  1.0000
  C   C20       1.0  0.47274  0.04356  0.31562  1.0000
  O   O5        1.0  0.57551  0.17232  0.32126  1.0000
  C   C21       1.0  0.47924  0.96719  0.31720  1.0000
  C   C22       1.0  0.50599  0.94225  0.31559  1.0000
  C   C23       1.0  0.48391  0.89128  0.31591  1.0000
  C   C24       1.0  0.43280  0.86277  0.30990  1.0000
  O   O6        1.0  0.40328  0.81352  0.32135  1.0000
  H   H9        1.0  0.56023  0.19159  0.32737  1.0000
  H   H10       1.0  0.41855  0.79423  0.32725  1.0000
  H   H11       1.0  0.43618  0.02529  0.31104  1.0000
  H   H12       1.0  0.54255  0.96052  0.31105  1.0000
  N   N5        1.0  0.51153  0.87017  0.32174  1.0000
  N   N6        1.0  0.46725  0.11566  0.32169  1.0000
  N   N7        1.0  0.21707  0.50593  0.26203  1.0000
  C   C25       1.0  0.25739  0.50480  0.24007  1.0000
  C   C26       1.0  0.27697  0.48559  0.30017  1.0000
  H   H13       1.0  0.27001  0.51369  0.17705  1.0000
  C   C27       1.0  0.31624  0.48114  0.27112  1.0000
  H   H14       1.0  0.33146  0.49815  0.21276  1.0000
  N   N8        1.0  0.47639  0.70761  0.26203  1.0000
  C   C28       1.0  0.47752  0.74905  0.24007  1.0000
  C   C29       1.0  0.49674  0.78785  0.30017  1.0000
  H   H15       1.0  0.46863  0.75278  0.17705  1.0000
  C   C30       1.0  0.50118  0.83156  0.27112  1.0000
  H   H16       1.0  0.48417  0.82978  0.21276  1.0000
  N   N9        1.0  0.27472  0.76525  0.26204  1.0000
  C   C31       1.0  0.23327  0.72494  0.24008  1.0000
  C   C32       1.0  0.19447  0.70535  0.30017  1.0000
  H   H17       1.0  0.22954  0.71231  0.17705  1.0000
  C   C33       1.0  0.15077  0.66608  0.27112  1.0000
  H   H18       1.0  0.15255  0.65086  0.21276  1.0000
  N   N10       1.0  0.76142  0.47963  0.26184  1.0000
  C   C34       1.0  0.72134  0.48111  0.23992  1.0000
  C   C35       1.0  0.70176  0.50029  0.30013  1.0000
  H   H19       1.0  0.70873  0.47224  0.17691  1.0000
  C   C36       1.0  0.66251  0.50471  0.27106  1.0000
  H   H20       1.0  0.64727  0.48769  0.21272  1.0000
  N   N11       1.0  0.50240  0.27823  0.26204  1.0000
  C   C37       1.0  0.50126  0.23679  0.24007  1.0000
  C   C38       1.0  0.48204  0.19798  0.30015  1.0000
  H   H21       1.0  0.51018  0.23307  0.17707  1.0000
  C   C39       1.0  0.47762  0.15428  0.27109  1.0000
  H   H22       1.0  0.49464  0.15607  0.21274  1.0000
  N   N12       1.0  0.70408  0.22066  0.26202  1.0000
  C   C40       1.0  0.74554  0.26095  0.24005  1.0000
  C   C41       1.0  0.78434  0.28053  0.30015  1.0000
  H   H23       1.0  0.74927  0.27358  0.17703  1.0000
  C   C42       1.0  0.82803  0.31979  0.27108  1.0000
  H   H24       1.0  0.82625  0.33504  0.21275  1.0000
  C   C43       1.0  0.93333  0.49716  0.31872  1.0000
  C   C44       1.0  0.88342  0.46965  0.30980  1.0000
  H   H25       1.0  0.94715  0.53301  0.32963  1.0000
  C   C45       1.0  0.09531  0.51623  0.31038  1.0000
  C   C46       1.0  0.04537  0.48831  0.31965  1.0000
  H   H26       1.0  0.03205  0.45256  0.33072  1.0000
  N   N13       1.0  0.12113  0.49552  0.33042  1.0000
  N   N14       1.0  0.86092  0.49336  0.33208  1.0000
  C   C47       1.0  0.48480  0.43238  0.31963  1.0000
  C   C48       1.0  0.51267  0.41034  0.31055  1.0000
  H   H27       1.0  0.44904  0.40997  0.33067  1.0000
  C   C49       1.0  0.46609  0.57555  0.31037  1.0000
  C   C50       1.0  0.49401  0.55355  0.31965  1.0000
  H   H28       1.0  0.52977  0.57597  0.33072  1.0000
  N   N15       1.0  0.48680  0.62207  0.33043  1.0000
  N   N16       1.0  0.49198  0.36385  0.33067  1.0000
  C   C51       1.0  0.54990  0.04884  0.31955  1.0000
  C   C52       1.0  0.57198  0.09875  0.31054  1.0000
  H   H29       1.0  0.57230  0.03548  0.33060  1.0000
  C   C53       1.0  0.40677  0.88700  0.31038  1.0000
  C   C54       1.0  0.42878  0.93693  0.31965  1.0000
  H   H30       1.0  0.40636  0.95027  0.33072  1.0000
  N   N17       1.0  0.36025  0.86118  0.33042  1.0000
  N   N18       1.0  0.61846  0.12447  0.33077  1.0000
  C   C55       1.0  0.19676  0.49336  0.34346  1.0000
  N   N19       1.0  0.25844  0.47638  0.38343  1.0000
  C   C56       1.0  0.21951  0.48015  0.40930  1.0000
  C   C57       1.0  0.20284  0.46768  0.50345  1.0000
  O   O7        1.0  0.16050  0.46723  0.53774  1.0000
  H   H31       1.0  0.23294  0.49169  0.54567  1.0000
  H   H32       1.0  0.19628  0.43130  0.51459  1.0000
  H   H33       1.0  0.16601  0.50026  0.53663  1.0000
  C   C58       1.0  0.14701  0.47501  0.35034  1.0000
  H   H34       1.0  0.12797  0.44547  0.38876  1.0000
  C   C59       1.0  0.48896  0.69987  0.34346  1.0000
  N   N20       1.0  0.50594  0.77853  0.38343  1.0000
  C   C60       1.0  0.50217  0.73582  0.40930  1.0000
  C   C61       1.0  0.51465  0.73163  0.50345  1.0000
  O   O8        1.0  0.51510  0.68974  0.53774  1.0000
  H   H35       1.0  0.49063  0.73771  0.54567  1.0000
  H   H36       1.0  0.55102  0.76144  0.51459  1.0000
  H   H37       1.0  0.48206  0.66221  0.53663  1.0000
  C   C62       1.0  0.50731  0.66847  0.35034  1.0000
  H   H38       1.0  0.53685  0.67897  0.38876  1.0000
  C   C63       1.0  0.28246  0.78556  0.34346  1.0000
  N   N21       1.0  0.20380  0.72388  0.38343  1.0000
  C   C64       1.0  0.24650  0.76282  0.40930  1.0000
  C   C65       1.0  0.25070  0.77948  0.50345  1.0000
  O   O9        1.0  0.29259  0.82182  0.53774  1.0000
  H   H39       1.0  0.24461  0.74939  0.54567  1.0000
  H   H40       1.0  0.22088  0.78604  0.51459  1.0000
  H   H41       1.0  0.32012  0.81632  0.53663  1.0000
  C   C66       1.0  0.31385  0.83531  0.35034  1.0000
  H   H42       1.0  0.30336  0.85435  0.38877  1.0000
  C   C67       1.0  0.78134  0.49170  0.34341  1.0000
  N   N22       1.0  0.72026  0.50956  0.38341  1.0000
  C   C68       1.0  0.75907  0.50562  0.40928  1.0000
  C   C69       1.0  0.77589  0.51816  0.50349  1.0000
  O   O10       1.0  0.81827  0.51865  0.53773  1.0000
  H   H43       1.0  0.74582  0.49418  0.54579  1.0000
  H   H44       1.0  0.78248  0.55455  0.51466  1.0000
  H   H45       1.0  0.81275  0.48560  0.53679  1.0000
  C   C70       1.0  0.83079  0.50907  0.35110  1.0000
  H   H46       1.0  0.84883  0.53965  0.38715  1.0000
  C   C71       1.0  0.48982  0.28593  0.34346  1.0000
  N   N23       1.0  0.47282  0.20728  0.38342  1.0000
  C   C72       1.0  0.47656  0.24997  0.40930  1.0000
  C   C73       1.0  0.46413  0.25421  0.50346  1.0000
  O   O11       1.0  0.46368  0.29611  0.53772  1.0000
  H   H47       1.0  0.48815  0.24813  0.54566  1.0000
  H   H48       1.0  0.42776  0.22440  0.51465  1.0000
  H   H49       1.0  0.49672  0.32363  0.53663  1.0000
  C   C74       1.0  0.47167  0.31748  0.35057  1.0000
  H   H50       1.0  0.44200  0.30680  0.38868  1.0000
  C   C75       1.0  0.69635  0.20039  0.34347  1.0000
  N   N24       1.0  0.77505  0.26200  0.38341  1.0000
  C   C76       1.0  0.73235  0.22308  0.40928  1.0000
  C   C77       1.0  0.72812  0.20639  0.50346  1.0000
  O   O12       1.0  0.68622  0.16404  0.53772  1.0000
  H   H51       1.0  0.73419  0.23649  0.54567  1.0000
  H   H52       1.0  0.75792  0.19983  0.51464  1.0000
  H   H53       1.0  0.65869  0.16955  0.53663  1.0000
  C   C78       1.0  0.66482  0.15067  0.35067  1.0000
  H   H54       1.0  0.67563  0.13173  0.38861  1.0000
