data_image0
_chemical_formula_structural       C2OHCHC3HCNHC2HCNHC2HC2NHCHCHC2NHC3OHC6O2H2C6O2H2CNH2CNC4H2NH2C3HNHCNC4H2NH2CNC4H2NH2CNC4H2NH2C3H2C3H2C3H2C3H2C3H2C3HNHC4HCNHNH2CNH2C4HCNHNH2C4HCNHNH2C4HCNHNH2
_chemical_formula_sum              "C96 O6 H66 N24"
_cell_length_a       31.6214
_cell_length_b       31.6214
_cell_length_c       14.7457
_cell_angle_alpha    90
_cell_angle_beta     90
_cell_angle_gamma    120

_space_group_name_H-M_alt    "P 1"
_space_group_IT_number       1

loop_
  _space_group_symop_operation_xyz
  'x, y, z'

loop_
  _atom_site_type_symbol
  _atom_site_label
  _atom_site_symmetry_multiplicity
  _atom_site_fract_x
  _atom_site_fract_y
  _atom_site_fract_z
  _atom_site_occupancy
  C   C1        1.0  0.03977  0.52293  0.34950  1.0000
  C   C2        1.0  0.06694  0.57423  0.37019  1.0000
  O   O1        1.0  0.04424  0.59753  0.40575  1.0000
  H   H1        1.0  0.04733  0.62217  0.36137  1.0000
  C   C3        1.0  0.06804  0.50065  0.32598  1.0000
  H   H2        1.0  0.05121  0.46508  0.30576  1.0000
  C   C4        1.0  0.11890  0.60124  0.36669  1.0000
  C   C5        1.0  0.18683  0.52207  0.24961  1.0000
  C   C6        1.0  0.14904  0.50366  0.31505  1.0000
  H   H3        1.0  0.18630  0.54430  0.19955  1.0000
  C   C7        1.0  0.15417  0.68407  0.30425  1.0000
  N   N1        1.0  0.19526  0.72843  0.29700  1.0000
  H   H4        1.0  0.13095  0.67142  0.25001  1.0000
  C   C8        1.0  0.14410  0.57635  0.34522  1.0000
  C   C9        1.0  0.11968  0.52607  0.32614  1.0000
  H   H5        1.0  0.18160  0.59540  0.34445  1.0000
  C   C10       1.0  0.15277  0.47603  0.38651  1.0000
  N   N2        1.0  0.19312  0.47145  0.39427  1.0000
  H   H6        1.0  0.12837  0.46420  0.43898  1.0000
  C   C11       1.0  0.14845  0.65305  0.37770  1.0000
  C   C12       1.0  0.18512  0.67227  0.44528  1.0000
  H   H7        1.0  0.18321  0.64967  0.49691  1.0000
  C   C13       1.0  0.23115  0.49038  0.33470  1.0000
  C   C14       1.0  0.22853  0.51660  0.25818  1.0000
  N   N3        1.0  0.26539  0.53994  0.19708  1.0000
  H   H8        1.0  0.26275  0.55859  0.14705  1.0000
  C   C15       1.0  0.27645  0.79053  0.33404  1.0000
  H   H9        1.0  0.26117  0.72557  0.20168  1.0000
  C   C16       1.0  0.27427  0.48923  0.35935  1.0000
  H   H10       1.0  0.25917  0.53596  0.49726  1.0000
  C   C17       1.0  0.23219  0.74743  0.35886  1.0000
  C   C18       1.0  0.22752  0.71904  0.43740  1.0000
  N   N4        1.0  0.26314  0.73251  0.50114  1.0000
  H   H11       1.0  0.25914  0.71155  0.55264  1.0000
  C   C19       1.0  0.98612  0.49427  0.34947  1.0000
  C   C20       1.0  0.90698  0.41596  0.36662  1.0000
  C   C21       1.0  0.95893  0.44299  0.37027  1.0000
  O   O2        1.0  0.98163  0.41972  0.40602  1.0000
  H   H12       1.0  0.97854  0.39503  0.36176  1.0000
  C   C22       1.0  0.52725  0.49612  0.34890  1.0000
  C   C23       1.0  0.60551  0.49523  0.36615  1.0000
  C   C24       1.0  0.57852  0.52019  0.36978  1.0000
  C   C25       1.0  0.49863  0.52115  0.34886  1.0000
  C   C26       1.0  0.44738  0.49709  0.36982  1.0000
  C   C27       1.0  0.42039  0.52206  0.36616  1.0000
  O   O3        1.0  0.60179  0.56619  0.40539  1.0000
  O   O4        1.0  0.42412  0.45115  0.40567  1.0000
  H   H13       1.0  0.62649  0.58774  0.36112  1.0000
  H   H14       1.0  0.39940  0.42954  0.36148  1.0000
  C   C28       1.0  0.52545  0.03546  0.34862  1.0000
  C   C29       1.0  0.52632  0.11462  0.36561  1.0000
  C   C30       1.0  0.50137  0.06267  0.36933  1.0000
  C   C31       1.0  0.50043  0.98181  0.34869  1.0000
  C   C32       1.0  0.52452  0.95462  0.36944  1.0000
  C   C33       1.0  0.49955  0.90265  0.36595  1.0000
  O   O5        1.0  0.45539  0.04000  0.40503  1.0000
  O   O6        1.0  0.57052  0.97729  0.40505  1.0000
  H   H15       1.0  0.43383  0.04312  0.36074  1.0000
  H   H16       1.0  0.59206  0.97416  0.36073  1.0000
  C   C34       1.0  0.33758  0.47462  0.30430  1.0000
  N   N5        1.0  0.29320  0.47133  0.29729  1.0000
  H   H17       1.0  0.35019  0.46406  0.24996  1.0000
  H   H18       1.0  0.29612  0.54034  0.20257  1.0000
  C   C35       1.0  0.54678  0.86725  0.30337  1.0000
  N   N6        1.0  0.55006  0.82617  0.29603  1.0000
  C   C36       1.0  0.53120  0.74506  0.33320  1.0000
  C   C37       1.0  0.50496  0.71621  0.25673  1.0000
  C   C38       1.0  0.49948  0.66903  0.24820  1.0000
  C   C39       1.0  0.51792  0.64964  0.31354  1.0000
  H   H19       1.0  0.47719  0.64625  0.19827  1.0000
  H   H20       1.0  0.55722  0.89042  0.24906  1.0000
  N   N7        1.0  0.48157  0.72970  0.19569  1.0000
  H   H21       1.0  0.48118  0.76004  0.20114  1.0000
  H   H22       1.0  0.46291  0.70840  0.14568  1.0000
  C   C40       1.0  0.30519  0.79310  0.25739  1.0000
  C   C41       1.0  0.35242  0.83472  0.24880  1.0000
  C   C42       1.0  0.37186  0.87253  0.31414  1.0000
  H   H23       1.0  0.37508  0.83531  0.19851  1.0000
  N   N8        1.0  0.29154  0.75626  0.19621  1.0000
  H   H24       1.0  0.31279  0.75888  0.14610  1.0000
  C   C43       1.0  0.68840  0.54268  0.30405  1.0000
  N   N9        1.0  0.73278  0.54599  0.29704  1.0000
  C   C44       1.0  0.79474  0.52677  0.33442  1.0000
  C   C45       1.0  0.79740  0.50066  0.25774  1.0000
  C   C46       1.0  0.83910  0.49517  0.24914  1.0000
  C   C47       1.0  0.87681  0.51347  0.31466  1.0000
  H   H25       1.0  0.83969  0.47310  0.19884  1.0000
  H   H26       1.0  0.67586  0.55348  0.24996  1.0000
  N   N10       1.0  0.76064  0.47756  0.19638  1.0000
  H   H27       1.0  0.72986  0.47704  0.20203  1.0000
  H   H28       1.0  0.76326  0.45887  0.14639  1.0000
  C   C48       1.0  0.47908  0.15007  0.30328  1.0000
  N   N11       1.0  0.47577  0.19114  0.29611  1.0000
  C   C49       1.0  0.49463  0.27220  0.33353  1.0000
  C   C50       1.0  0.52095  0.30109  0.25712  1.0000
  C   C51       1.0  0.52643  0.34827  0.24855  1.0000
  C   C52       1.0  0.50794  0.36757  0.31396  1.0000
  H   H29       1.0  0.54873  0.37107  0.19863  1.0000
  H   H30       1.0  0.46865  0.12694  0.24890  1.0000
  N   N12       1.0  0.54440  0.28763  0.19616  1.0000
  H   H31       1.0  0.54481  0.25731  0.20166  1.0000
  H   H32       1.0  0.56311  0.30896  0.14621  1.0000
  C   C53       1.0  0.87170  0.33326  0.30429  1.0000
  N   N13       1.0  0.83060  0.28891  0.29699  1.0000
  C   C54       1.0  0.74943  0.22678  0.33398  1.0000
  C   C55       1.0  0.72070  0.22420  0.25732  1.0000
  C   C56       1.0  0.67352  0.18253  0.24859  1.0000
  C   C57       1.0  0.65400  0.14469  0.31391  1.0000
  H   H33       1.0  0.65083  0.18205  0.19847  1.0000
  H   H34       1.0  0.89491  0.34595  0.25003  1.0000
  N   N14       1.0  0.73432  0.26109  0.19623  1.0000
  H   H35       1.0  0.76465  0.29180  0.20182  1.0000
  H   H36       1.0  0.71310  0.25846  0.14608  1.0000
  C   C58       1.0  0.95784  0.51653  0.32577  1.0000
  C   C59       1.0  0.90620  0.49111  0.32587  1.0000
  C   C60       1.0  0.88178  0.44083  0.34506  1.0000
  H   H37       1.0  0.97467  0.55210  0.30553  1.0000
  H   H38       1.0  0.84428  0.42179  0.34431  1.0000
  C   C61       1.0  0.50494  0.44558  0.32522  1.0000
  C   C62       1.0  0.53034  0.41934  0.32532  1.0000
  C   C63       1.0  0.58061  0.44516  0.34452  1.0000
  H   H39       1.0  0.46937  0.42688  0.30494  1.0000
  H   H40       1.0  0.59965  0.42670  0.34373  1.0000
  C   C64       1.0  0.44528  0.57212  0.34445  1.0000
  C   C65       1.0  0.49554  0.59792  0.32515  1.0000
  C   C66       1.0  0.52092  0.57166  0.32499  1.0000
  H   H41       1.0  0.42625  0.59059  0.34369  1.0000
  H   H42       1.0  0.55648  0.59035  0.30465  1.0000
  C   C67       1.0  0.57600  0.06371  0.32499  1.0000
  C   C68       1.0  0.60225  0.11535  0.32514  1.0000
  C   C69       1.0  0.57641  0.13980  0.34420  1.0000
  H   H43       1.0  0.59472  0.04686  0.30480  1.0000
  H   H44       1.0  0.59488  0.17730  0.34348  1.0000
  C   C70       1.0  0.44946  0.87747  0.34453  1.0000
  C   C71       1.0  0.42362  0.90190  0.32537  1.0000
  C   C72       1.0  0.44987  0.95355  0.32515  1.0000
  H   H45       1.0  0.43099  0.83996  0.34383  1.0000
  H   H46       1.0  0.43115  0.97038  0.30486  1.0000
  C   C73       1.0  0.36862  0.49990  0.37777  1.0000
  C   C74       1.0  0.30275  0.51298  0.43777  1.0000
  C   C75       1.0  0.34951  0.51732  0.44553  1.0000
  H   H47       1.0  0.37223  0.53811  0.49693  1.0000
  N   N15       1.0  0.28932  0.53513  0.50159  1.0000
  H   H48       1.0  0.31032  0.55209  0.55305  1.0000
  C   C76       1.0  0.52173  0.87305  0.37722  1.0000
  C   C77       1.0  0.53230  0.78929  0.35799  1.0000
  C   C78       1.0  0.50873  0.79402  0.43672  1.0000
  C   C79       1.0  0.50451  0.83648  0.44491  1.0000
  H   H49       1.0  0.48380  0.83835  0.49652  1.0000
  C   C80       1.0  0.54564  0.68107  0.38492  1.0000
  N   N16       1.0  0.55015  0.72597  0.39273  1.0000
  H   H50       1.0  0.55737  0.66852  0.43759  1.0000
  N   N17       1.0  0.48675  0.75843  0.50058  1.0000
  H   H51       1.0  0.46982  0.76242  0.55215  1.0000
  H   H52       1.0  0.48568  0.72735  0.49581  1.0000
  C   C81       1.0  0.34063  0.86883  0.38586  1.0000
  N   N18       1.0  0.29566  0.82854  0.39367  1.0000
  H   H53       1.0  0.35321  0.89327  0.43827  1.0000
  H   H54       1.0  0.29414  0.76264  0.49668  1.0000
  C   C82       1.0  0.65729  0.51743  0.37744  1.0000
  C   C83       1.0  0.75161  0.52793  0.35897  1.0000
  C   C84       1.0  0.72310  0.50415  0.43736  1.0000
  C   C85       1.0  0.67639  0.49992  0.44515  1.0000
  H   H55       1.0  0.65367  0.47917  0.49657  1.0000
  C   C86       1.0  0.87301  0.54090  0.38644  1.0000
  N   N19       1.0  0.83270  0.54555  0.39416  1.0000
  H   H56       1.0  0.89740  0.55273  0.43894  1.0000
  N   N20       1.0  0.73647  0.48194  0.50116  1.0000
  H   H57       1.0  0.71542  0.46492  0.55252  1.0000
  H   H58       1.0  0.76654  0.48096  0.49672  1.0000
  C   C87       1.0  0.50414  0.14422  0.37705  1.0000
  C   C88       1.0  0.49348  0.22794  0.35824  1.0000
  C   C89       1.0  0.51705  0.22317  0.43690  1.0000
  C   C90       1.0  0.52139  0.18076  0.44480  1.0000
  H   H59       1.0  0.54206  0.17880  0.49640  1.0000
  C   C91       1.0  0.48018  0.33619  0.38529  1.0000
  N   N21       1.0  0.47560  0.29125  0.39299  1.0000
  H   H60       1.0  0.46827  0.34872  0.43769  1.0000
  N   N22       1.0  0.53904  0.25870  0.50085  1.0000
  H   H61       1.0  0.55588  0.25464  0.55247  1.0000
  H   H62       1.0  0.53989  0.28969  0.49644  1.0000
  C   C92       1.0  0.87739  0.36417  0.37795  1.0000
  C   C93       1.0  0.79367  0.26987  0.35886  1.0000
  C   C94       1.0  0.79835  0.29823  0.43747  1.0000
  C   C95       1.0  0.84082  0.34492  0.44564  1.0000
  H   H63       1.0  0.84266  0.36755  0.49714  1.0000
  C   C96       1.0  0.68529  0.14838  0.38552  1.0000
  N   N23       1.0  0.73020  0.18874  0.39352  1.0000
  H   H64       1.0  0.67264  0.12410  0.43818  1.0000
  N   N24       1.0  0.76273  0.28468  0.50123  1.0000
  H   H65       1.0  0.76669  0.30563  0.55273  1.0000
  H   H66       1.0  0.73165  0.25466  0.49649  1.0000
