data_image0
_chemical_formula_structural       HCNHC5NH3C6N2H4C6N2H4CNCHNHCNCHNHCNCHNHCNCHNHCNCHNHCNCHNHC3H2C3HC3H2C3H2C3H2C3H2C4HC6H3C4HC6H3C4HC6H3C4HC6H3C4HC6H3C4HC6H3
_chemical_formula_sum              "H60 C108 N18"
_cell_length_a       31.4207
_cell_length_b       31.4207
_cell_length_c       14.9554
_cell_angle_alpha    90
_cell_angle_beta     90
_cell_angle_gamma    120

_space_group_name_H-M_alt    "P 1"
_space_group_IT_number       1

loop_
  _space_group_symop_operation_xyz
  'x, y, z'

loop_
  _atom_site_type_symbol
  _atom_site_label
  _atom_site_symmetry_multiplicity
  _atom_site_fract_x
  _atom_site_fract_y
  _atom_site_fract_z
  _atom_site_occupancy
  H   H1        1.0  0.00637  0.57325  0.22197  1.0000
  C   C1        1.0  0.02909  0.51571  0.31697  1.0000
  N   N1        1.0  0.03753  0.59153  0.25313  1.0000
  H   H2        1.0  0.03771  0.45587  0.36213  1.0000
  C   C2        1.0  0.97537  0.48722  0.31706  1.0000
  C   C3        1.0  0.89625  0.40844  0.32085  1.0000
  C   C4        1.0  0.94713  0.43537  0.29745  1.0000
  C   C5        1.0  0.05730  0.56758  0.29758  1.0000
  C   C6        1.0  0.10819  0.59451  0.32091  1.0000
  N   N2        1.0  0.96696  0.41147  0.25298  1.0000
  H   H3        1.0  0.99792  0.42990  0.22134  1.0000
  H   H4        1.0  0.94722  0.37710  0.23630  1.0000
  H   H5        1.0  0.05699  0.62603  0.23714  1.0000
  C   C7        1.0  0.51651  0.48891  0.31707  1.0000
  C   C8        1.0  0.59530  0.48858  0.32063  1.0000
  C   C9        1.0  0.56836  0.51254  0.29738  1.0000
  C   C10       1.0  0.48802  0.51413  0.31711  1.0000
  C   C11       1.0  0.43616  0.49050  0.29762  1.0000
  C   C12       1.0  0.40924  0.51447  0.32101  1.0000
  N   N3        1.0  0.59225  0.55630  0.25298  1.0000
  N   N4        1.0  0.41221  0.44681  0.25311  1.0000
  H   H6        1.0  0.57380  0.56884  0.22143  1.0000
  H   H7        1.0  0.62660  0.57093  0.23622  1.0000
  H   H8        1.0  0.37772  0.43179  0.23709  1.0000
  H   H9        1.0  0.43049  0.43393  0.22194  1.0000
  C   C13       1.0  0.51488  0.02835  0.31706  1.0000
  C   C14       1.0  0.51520  0.10746  0.32098  1.0000
  C   C15       1.0  0.49124  0.05658  0.29760  1.0000
  C   C16       1.0  0.48965  0.97463  0.31708  1.0000
  C   C17       1.0  0.51329  0.94641  0.29746  1.0000
  C   C18       1.0  0.48932  0.89551  0.32071  1.0000
  N   N5        1.0  0.44749  0.03680  0.25322  1.0000
  N   N6        1.0  0.55706  0.96626  0.25311  1.0000
  H   H10       1.0  0.43487  0.00577  0.22171  1.0000
  H   H11       1.0  0.43263  0.05636  0.23683  1.0000
  H   H12       1.0  0.57169  0.94655  0.23631  1.0000
  H   H13       1.0  0.56951  0.99721  0.22144  1.0000
  C   C19       1.0  0.32922  0.48873  0.24915  1.0000
  N   N7        1.0  0.28355  0.48275  0.25847  1.0000
  C   C20       1.0  0.15349  0.48651  0.27099  1.0000
  H   H14       1.0  0.34439  0.49494  0.18669  1.0000
  N   N8        1.0  0.19353  0.48088  0.26981  1.0000
  H   H15       1.0  0.14033  0.49090  0.21121  1.0000
  C   C21       1.0  0.51504  0.84117  0.24884  1.0000
  N   N9        1.0  0.52095  0.80144  0.25834  1.0000
  C   C22       1.0  0.51718  0.66762  0.27140  1.0000
  H   H16       1.0  0.50875  0.85006  0.18638  1.0000
  N   N10       1.0  0.52280  0.71328  0.27005  1.0000
  H   H17       1.0  0.51279  0.65003  0.21166  1.0000
  C   C23       1.0  0.16246  0.67454  0.24909  1.0000
  N   N11       1.0  0.20217  0.72020  0.25843  1.0000
  C   C24       1.0  0.33602  0.85022  0.27101  1.0000
  H   H18       1.0  0.15349  0.65938  0.18662  1.0000
  N   N12       1.0  0.29034  0.81019  0.26981  1.0000
  H   H19       1.0  0.35355  0.86338  0.21121  1.0000
  C   C25       1.0  0.67540  0.51428  0.24873  1.0000
  N   N13       1.0  0.72103  0.52017  0.25825  1.0000
  C   C26       1.0  0.85106  0.51637  0.27142  1.0000
  H   H20       1.0  0.66024  0.50799  0.18626  1.0000
  N   N14       1.0  0.81102  0.52200  0.27002  1.0000
  H   H21       1.0  0.86427  0.51198  0.21169  1.0000
  C   C27       1.0  0.48947  0.16176  0.24915  1.0000
  N   N15       1.0  0.48351  0.20147  0.25849  1.0000
  C   C28       1.0  0.48733  0.33531  0.27109  1.0000
  H   H22       1.0  0.49568  0.15280  0.18669  1.0000
  N   N16       1.0  0.48168  0.28963  0.26987  1.0000
  H   H23       1.0  0.49171  0.35285  0.21129  1.0000
  C   C29       1.0  0.84191  0.32840  0.24887  1.0000
  N   N17       1.0  0.80218  0.28275  0.25831  1.0000
  C   C30       1.0  0.66838  0.15269  0.27115  1.0000
  H   H24       1.0  0.85080  0.34360  0.18643  1.0000
  N   N18       1.0  0.71404  0.19273  0.26987  1.0000
  H   H25       1.0  0.65079  0.13952  0.21139  1.0000
  C   C31       1.0  0.94884  0.51059  0.34618  1.0000
  C   C32       1.0  0.89724  0.48557  0.35114  1.0000
  C   C33       1.0  0.87175  0.43428  0.34284  1.0000
  H   H26       1.0  0.96680  0.54703  0.36259  1.0000
  H   H27       1.0  0.83424  0.41547  0.35094  1.0000
  C   C34       1.0  0.13272  0.56868  0.34268  1.0000
  C   C35       1.0  0.10725  0.51738  0.35080  1.0000
  C   C36       1.0  0.05565  0.49234  0.34593  1.0000
  H   H28       1.0  0.17022  0.58750  0.35082  1.0000
  C   C37       1.0  0.49315  0.43898  0.34603  1.0000
  C   C38       1.0  0.51819  0.41242  0.35078  1.0000
  C   C39       1.0  0.56948  0.43822  0.34240  1.0000
  H   H29       1.0  0.45671  0.42049  0.36246  1.0000
  H   H30       1.0  0.58830  0.41953  0.35045  1.0000
  C   C40       1.0  0.43508  0.56481  0.34291  1.0000
  C   C41       1.0  0.48638  0.59063  0.35104  1.0000
  C   C42       1.0  0.51141  0.56406  0.34611  1.0000
  H   H31       1.0  0.41628  0.58350  0.35113  1.0000
  H   H32       1.0  0.54786  0.58255  0.36243  1.0000
  C   C43       1.0  0.56480  0.05490  0.34607  1.0000
  C   C44       1.0  0.59137  0.10650  0.35083  1.0000
  C   C45       1.0  0.56555  0.13198  0.34279  1.0000
  H   H33       1.0  0.58332  0.03696  0.36232  1.0000
  H   H34       1.0  0.58425  0.16948  0.35092  1.0000
  C   C46       1.0  0.43895  0.87098  0.34246  1.0000
  C   C47       1.0  0.41315  0.89646  0.35066  1.0000
  C   C48       1.0  0.43971  0.94806  0.34597  1.0000
  H   H35       1.0  0.42026  0.83347  0.35049  1.0000
  H   H36       1.0  0.42120  0.96600  0.36236  1.0000
  C   C49       1.0  0.35708  0.49193  0.32553  1.0000
  C   C50       1.0  0.26173  0.47900  0.33902  1.0000
  C   C51       1.0  0.28758  0.48100  0.41829  1.0000
  C   C52       1.0  0.33488  0.48655  0.41029  1.0000
  H   H37       1.0  0.35533  0.49184  0.46692  1.0000
  C   C53       1.0  0.21689  0.47917  0.34498  1.0000
  C   C54       1.0  0.13517  0.49327  0.35285  1.0000
  C   C55       1.0  0.15783  0.49068  0.43261  1.0000
  C   C56       1.0  0.19850  0.48299  0.42975  1.0000
  C   C57       1.0  0.22368  0.48328  0.50808  1.0000
  C   C58       1.0  0.26758  0.48177  0.50244  1.0000
  H   H38       1.0  0.21139  0.48662  0.56961  1.0000
  H   H39       1.0  0.28630  0.48427  0.56003  1.0000
  H   H40       1.0  0.14710  0.49824  0.49241  1.0000
  C   C59       1.0  0.51187  0.86589  0.32512  1.0000
  C   C60       1.0  0.52471  0.78345  0.33899  1.0000
  C   C61       1.0  0.52272  0.80737  0.41816  1.0000
  C   C62       1.0  0.51715  0.84910  0.41000  1.0000
  H   H41       1.0  0.51198  0.86442  0.46655  1.0000
  C   C63       1.0  0.52456  0.73846  0.34511  1.0000
  C   C64       1.0  0.51054  0.64265  0.35338  1.0000
  C   C65       1.0  0.51311  0.66798  0.43301  1.0000
  C   C66       1.0  0.52076  0.71633  0.42995  1.0000
  C   C67       1.0  0.52046  0.74129  0.50819  1.0000
  C   C68       1.0  0.52203  0.78672  0.50240  1.0000
  H   H42       1.0  0.51711  0.72571  0.56977  1.0000
  H   H43       1.0  0.51943  0.80293  0.55992  1.0000
  H   H44       1.0  0.50548  0.64974  0.49284  1.0000
  C   C69       1.0  0.13780  0.64668  0.32546  1.0000
  C   C70       1.0  0.22024  0.74200  0.33899  1.0000
  C   C71       1.0  0.19638  0.71614  0.41825  1.0000
  C   C72       1.0  0.15463  0.66885  0.41024  1.0000
  H   H45       1.0  0.13946  0.64839  0.46685  1.0000
  C   C73       1.0  0.26526  0.78683  0.34496  1.0000
  C   C74       1.0  0.36113  0.86858  0.35285  1.0000
  C   C75       1.0  0.33584  0.84586  0.43258  1.0000
  C   C76       1.0  0.28747  0.80520  0.42973  1.0000
  C   C77       1.0  0.26258  0.78001  0.50806  1.0000
  C   C78       1.0  0.21716  0.73613  0.50241  1.0000
  H   H46       1.0  0.27822  0.79229  0.56959  1.0000
  H   H47       1.0  0.20094  0.71740  0.55999  1.0000
  H   H48       1.0  0.35413  0.85658  0.49237  1.0000
  C   C79       1.0  0.64748  0.51114  0.32495  1.0000
  C   C80       1.0  0.74275  0.52392  0.33890  1.0000
  C   C81       1.0  0.71684  0.52194  0.41805  1.0000
  C   C82       1.0  0.66955  0.51639  0.40984  1.0000
  H   H49       1.0  0.64907  0.51124  0.46638  1.0000
  C   C83       1.0  0.78759  0.52376  0.34506  1.0000
  C   C84       1.0  0.86937  0.50973  0.35342  1.0000
  C   C85       1.0  0.84659  0.51230  0.43302  1.0000
  C   C86       1.0  0.80590  0.51995  0.42993  1.0000
  C   C87       1.0  0.78063  0.51967  0.50814  1.0000
  C   C88       1.0  0.73677  0.52124  0.50231  1.0000
  H   H50       1.0  0.79285  0.51631  0.56974  1.0000
  H   H51       1.0  0.71796  0.51865  0.55982  1.0000
  H   H52       1.0  0.85719  0.50467  0.49287  1.0000
  C   C89       1.0  0.49265  0.13708  0.32551  1.0000
  C   C90       1.0  0.47976  0.21952  0.33905  1.0000
  C   C91       1.0  0.48175  0.19566  0.41830  1.0000
  C   C92       1.0  0.48728  0.15390  0.41029  1.0000
  H   H53       1.0  0.49257  0.13873  0.46691  1.0000
  C   C93       1.0  0.47995  0.26454  0.34503  1.0000
  C   C94       1.0  0.49407  0.36040  0.35294  1.0000
  C   C95       1.0  0.49148  0.33511  0.43265  1.0000
  C   C96       1.0  0.48378  0.28674  0.42979  1.0000
  C   C97       1.0  0.48405  0.26184  0.50812  1.0000
  C   C98       1.0  0.48252  0.21642  0.50247  1.0000
  H   H54       1.0  0.48740  0.27747  0.56965  1.0000
  H   H55       1.0  0.48502  0.20019  0.56005  1.0000
  H   H56       1.0  0.49904  0.35339  0.49246  1.0000
  C   C99       1.0  0.86661  0.35626  0.32519  1.0000
  C   C100      1.0  0.78418  0.26098  0.33892  1.0000
  C   C101      1.0  0.80807  0.28685  0.41813  1.0000
  C   C102      1.0  0.84980  0.33415  0.41004  1.0000
  H   H57       1.0  0.86511  0.35462  0.46661  1.0000
  C   C103      1.0  0.73919  0.21612  0.34498  1.0000
  C   C104      1.0  0.64341  0.13438  0.35311  1.0000
  C   C105      1.0  0.66869  0.15706  0.43281  1.0000
  C   C106      1.0  0.71703  0.19776  0.42981  1.0000
  C   C107      1.0  0.74198  0.22299  0.50808  1.0000
  C   C108      1.0  0.78741  0.26686  0.50235  1.0000
  H   H58       1.0  0.72638  0.21073  0.56964  1.0000
  H   H59       1.0  0.80360  0.28565  0.55990  1.0000
  H   H60       1.0  0.65042  0.14642  0.49263  1.0000
