data_image0
_chemical_formula_structural       C3OHCHCHC3HCHCHC3OHCHCHC3HCHCHCHCH2C3HC3HCHCH2C3HC3HC3OHC3OHC2H2CHC2HC3H2C2H2C5OHC3OHC2H2CHC2HC3H2C2H2C5OHC3OHC3OHC2H2C2H2C2H2C3H2C2HCHC3H2C6H2C2H2C4H2C3OHC3OHC3OHC2H2C2H2C2H2C3H2C2HCHC3H2C6H2C2H2C4H2C6O2H2C6O2H2C6O2H2C2H2C2H2C2H2C2H2C2H2C2H2C3H2C3H2C3H2C3H2C3H2C3H2C4H2C4H2C4H2C4H2C4H2C4H2C6O2H2C6O2H2C6O2H2C2H2C2H2C2H2C2H2C2H2C2H2C3H2C3H2C3H2C3H2C3H2C3H2C4H2C4H2C4H2C4H2C4H2C4H2
_chemical_formula_sum              "C288 O24 H168"
_cell_length_a       46.4719
_cell_length_b       46.4719
_cell_length_c       14.8403
_cell_angle_alpha    90
_cell_angle_beta     90
_cell_angle_gamma    120

_space_group_name_H-M_alt    "P 1"
_space_group_IT_number       1

loop_
  _space_group_symop_operation_xyz
  'x, y, z'

loop_
  _atom_site_type_symbol
  _atom_site_label
  _atom_site_symmetry_multiplicity
  _atom_site_fract_x
  _atom_site_fract_y
  _atom_site_fract_z
  _atom_site_occupancy
  C   C1        1.0  0.02624  0.26451  0.31122  1.0000
  C   C2        1.0  0.04650  0.30037  0.30917  1.0000
  C   C3        1.0  0.07927  0.31762  0.34564  1.0000
  O   O1        1.0  0.03558  0.32043  0.27542  1.0000
  H   H1        1.0  0.03202  0.31566  0.21052  1.0000
  C   C4        1.0  0.10770  0.23740  0.28497  1.0000
  H   H2        1.0  0.09529  0.23435  0.22556  1.0000
  C   C5        1.0  0.11020  0.37478  0.28156  1.0000
  H   H3        1.0  0.09920  0.36623  0.22015  1.0000
  C   C6        1.0  0.09404  0.29847  0.36852  1.0000
  C   C7        1.0  0.07854  0.26409  0.35268  1.0000
  C   C8        1.0  0.04492  0.24787  0.32521  1.0000
  H   H4        1.0  0.03374  0.22278  0.32662  1.0000
  C   C9        1.0  0.09815  0.24855  0.36235  1.0000
  H   H5        1.0  0.11291  0.26469  0.49679  1.0000
  C   C10       1.0  0.09989  0.35275  0.35618  1.0000
  H   H6        1.0  0.11208  0.35003  0.49269  1.0000
  C   C11       1.0  0.02624  0.76451  0.31122  1.0000
  C   C12       1.0  0.04650  0.80038  0.30917  1.0000
  C   C13       1.0  0.07927  0.81762  0.34564  1.0000
  O   O2        1.0  0.03558  0.82043  0.27542  1.0000
  H   H7        1.0  0.03202  0.81566  0.21052  1.0000
  C   C14       1.0  0.10770  0.73740  0.28497  1.0000
  H   H8        1.0  0.09529  0.73435  0.22556  1.0000
  C   C15       1.0  0.11020  0.87478  0.28156  1.0000
  H   H9        1.0  0.09920  0.86623  0.22015  1.0000
  C   C16       1.0  0.09404  0.79847  0.36852  1.0000
  C   C17       1.0  0.07854  0.76409  0.35268  1.0000
  C   C18       1.0  0.04492  0.74787  0.32521  1.0000
  H   H10       1.0  0.03374  0.72278  0.32662  1.0000
  C   C19       1.0  0.09815  0.74855  0.36235  1.0000
  H   H11       1.0  0.11291  0.76468  0.49679  1.0000
  C   C20       1.0  0.09989  0.85275  0.35618  1.0000
  H   H12       1.0  0.11208  0.85003  0.49269  1.0000
  C   C21       1.0  0.13855  0.23804  0.28185  1.0000
  H   H13       1.0  0.14690  0.23528  0.22045  1.0000
  C   C22       1.0  0.14050  0.40555  0.28427  1.0000
  H   H14       1.0  0.14980  0.41781  0.22462  1.0000
  H   H15       1.0  0.11872  0.31065  0.38607  1.0000
  C   C23       1.0  0.14850  0.25585  0.43734  1.0000
  C   C24       1.0  0.11816  0.25553  0.44021  1.0000
  C   C25       1.0  0.16070  0.24976  0.35617  1.0000
  H   H16       1.0  0.16364  0.26485  0.49267  1.0000
  C   C26       1.0  0.11819  0.36512  0.43727  1.0000
  C   C27       1.0  0.14818  0.39549  0.43987  1.0000
  C   C28       1.0  0.16115  0.41534  0.36178  1.0000
  H   H17       1.0  0.16265  0.40085  0.49637  1.0000
  C   C29       1.0  0.13855  0.73804  0.28185  1.0000
  H   H18       1.0  0.14690  0.73528  0.22045  1.0000
  C   C30       1.0  0.14050  0.90555  0.28427  1.0000
  H   H19       1.0  0.14979  0.91781  0.22462  1.0000
  H   H20       1.0  0.11872  0.81065  0.38607  1.0000
  C   C31       1.0  0.14850  0.75585  0.43734  1.0000
  C   C32       1.0  0.11816  0.75553  0.44021  1.0000
  C   C33       1.0  0.16069  0.74976  0.35617  1.0000
  H   H21       1.0  0.16364  0.76485  0.49267  1.0000
  C   C34       1.0  0.11819  0.86512  0.43727  1.0000
  C   C35       1.0  0.14818  0.89549  0.43987  1.0000
  C   C36       1.0  0.16115  0.91534  0.36178  1.0000
  H   H22       1.0  0.16265  0.90085  0.49637  1.0000
  C   C37       1.0  0.24894  0.26436  0.31127  1.0000
  C   C38       1.0  0.21307  0.24875  0.30920  1.0000
  C   C39       1.0  0.19582  0.26432  0.34534  1.0000
  O   O3        1.0  0.19300  0.21774  0.27568  1.0000
  H   H23       1.0  0.19772  0.21890  0.21076  1.0000
  C   C40       1.0  0.25150  0.04380  0.30917  1.0000
  C   C41       1.0  0.24906  0.48727  0.31096  1.0000
  C   C42       1.0  0.24908  0.43417  0.34464  1.0000
  O   O4        1.0  0.22053  0.03288  0.27532  1.0000
  H   H24       1.0  0.22178  0.02933  0.21043  1.0000
  C   C43       1.0  0.24018  0.13781  0.28475  1.0000
  C   C44       1.0  0.24083  0.10760  0.28177  1.0000
  H   H25       1.0  0.23720  0.14719  0.22529  1.0000
  H   H26       1.0  0.23813  0.09650  0.22039  1.0000
  C   C45       1.0  0.25057  0.21102  0.32511  1.0000
  H   H27       1.0  0.22547  0.19709  0.32658  1.0000
  C   C46       1.0  0.21496  0.29829  0.36786  1.0000
  C   C47       1.0  0.24933  0.31714  0.35193  1.0000
  H   H28       1.0  0.20274  0.31078  0.38510  1.0000
  C   C48       1.0  0.21510  0.41929  0.36691  1.0000
  C   C49       1.0  0.19627  0.43487  0.35156  1.0000
  C   C50       1.0  0.21374  0.46859  0.32496  1.0000
  H   H29       1.0  0.20257  0.39458  0.38414  1.0000
  H   H30       1.0  0.19986  0.47981  0.32699  1.0000
  C   C51       1.0  0.25758  0.39535  0.43654  1.0000
  C   C52       1.0  0.25801  0.36539  0.43963  1.0000
  H   H31       1.0  0.24895  0.35107  0.49640  1.0000
  H   H32       1.0  0.24873  0.40162  0.49194  1.0000
  C   C53       1.0  0.25127  0.15847  0.36221  1.0000
  C   C54       1.0  0.25245  0.09713  0.35622  1.0000
  C   C55       1.0  0.24894  0.76436  0.31127  1.0000
  C   C56       1.0  0.21307  0.74875  0.30920  1.0000
  C   C57       1.0  0.19582  0.76432  0.34534  1.0000
  O   O5        1.0  0.19300  0.71773  0.27568  1.0000
  H   H33       1.0  0.19772  0.71890  0.21076  1.0000
  C   C58       1.0  0.25150  0.54380  0.30917  1.0000
  C   C59       1.0  0.24906  0.98726  0.31096  1.0000
  C   C60       1.0  0.24908  0.93417  0.34464  1.0000
  O   O6        1.0  0.22053  0.53288  0.27532  1.0000
  H   H34       1.0  0.22178  0.52933  0.21043  1.0000
  C   C61       1.0  0.24018  0.63780  0.28475  1.0000
  C   C62       1.0  0.24083  0.60760  0.28177  1.0000
  H   H35       1.0  0.23720  0.64719  0.22529  1.0000
  H   H36       1.0  0.23813  0.59650  0.22039  1.0000
  C   C63       1.0  0.25057  0.71102  0.32511  1.0000
  H   H37       1.0  0.22547  0.69709  0.32658  1.0000
  C   C64       1.0  0.21496  0.79829  0.36786  1.0000
  C   C65       1.0  0.24933  0.81714  0.35193  1.0000
  H   H38       1.0  0.20274  0.81078  0.38510  1.0000
  C   C66       1.0  0.21510  0.91929  0.36691  1.0000
  C   C67       1.0  0.19627  0.93487  0.35156  1.0000
  C   C68       1.0  0.21374  0.96860  0.32496  1.0000
  H   H39       1.0  0.20258  0.89458  0.38414  1.0000
  H   H40       1.0  0.19986  0.97981  0.32699  1.0000
  C   C69       1.0  0.25758  0.89535  0.43654  1.0000
  C   C70       1.0  0.25800  0.86539  0.43963  1.0000
  H   H41       1.0  0.24895  0.85107  0.49640  1.0000
  H   H42       1.0  0.24873  0.90162  0.49194  1.0000
  C   C71       1.0  0.25126  0.65847  0.36221  1.0000
  C   C72       1.0  0.25245  0.59713  0.35622  1.0000
  C   C73       1.0  0.48996  0.24628  0.31119  1.0000
  C   C74       1.0  0.43689  0.19317  0.34539  1.0000
  C   C75       1.0  0.46969  0.21041  0.30910  1.0000
  O   O7        1.0  0.48062  0.19035  0.27541  1.0000
  H   H43       1.0  0.48417  0.19511  0.21050  1.0000
  C   C76       1.0  0.26719  0.24634  0.31123  1.0000
  C   C77       1.0  0.32031  0.24642  0.34540  1.0000
  C   C78       1.0  0.30306  0.26195  0.30911  1.0000
  O   O8        1.0  0.32311  0.29293  0.27533  1.0000
  H   H44       1.0  0.31833  0.29169  0.21043  1.0000
  C   C79       1.0  0.26711  0.02354  0.31121  1.0000
  C   C80       1.0  0.26702  0.07657  0.34563  1.0000
  C   C81       1.0  0.26466  0.46700  0.30867  1.0000
  O   O9        1.0  0.29568  0.47797  0.27520  1.0000
  H   H45       1.0  0.29453  0.48157  0.21030  1.0000
  C   C82       1.0  0.27576  0.37283  0.28414  1.0000
  C   C83       1.0  0.27532  0.40314  0.28097  1.0000
  H   H46       1.0  0.27874  0.36346  0.22464  1.0000
  H   H47       1.0  0.27781  0.41408  0.21944  1.0000
  C   C84       1.0  0.40841  0.27331  0.28477  1.0000
  C   C85       1.0  0.37755  0.27266  0.28177  1.0000
  H   H48       1.0  0.42060  0.27612  0.22510  1.0000
  H   H49       1.0  0.36914  0.27519  0.22021  1.0000
  C   C86       1.0  0.37557  0.10515  0.28465  1.0000
  C   C87       1.0  0.40588  0.13591  0.28161  1.0000
  H   H50       1.0  0.36621  0.09282  0.22512  1.0000
  H   H51       1.0  0.41684  0.14437  0.22012  1.0000
  C   C88       1.0  0.47127  0.26290  0.32515  1.0000
  C   C89       1.0  0.43760  0.24668  0.35220  1.0000
  C   C90       1.0  0.42210  0.21231  0.36821  1.0000
  H   H52       1.0  0.48244  0.28800  0.32640  1.0000
  H   H53       1.0  0.39739  0.20010  0.38542  1.0000
  C   C91       1.0  0.26680  0.19361  0.35242  1.0000
  C   C92       1.0  0.30118  0.21249  0.36833  1.0000
  H   H54       1.0  0.31337  0.19999  0.38573  1.0000
  C   C93       1.0  0.26556  0.29968  0.32518  1.0000
  H   H55       1.0  0.29066  0.31361  0.32627  1.0000
  C   C94       1.0  0.30241  0.04223  0.32524  1.0000
  C   C95       1.0  0.31984  0.07588  0.35244  1.0000
  C   C96       1.0  0.30096  0.09137  0.36850  1.0000
  H   H56       1.0  0.31636  0.03108  0.32640  1.0000
  H   H57       1.0  0.31345  0.11607  0.38576  1.0000
  C   C97       1.0  0.26488  0.35227  0.36185  1.0000
  C   C98       1.0  0.26366  0.41361  0.35532  1.0000
  C   C99       1.0  0.36774  0.25502  0.43732  1.0000
  C   C100      1.0  0.39809  0.25537  0.44011  1.0000
  C   C101      1.0  0.41804  0.26224  0.36221  1.0000
  C   C102      1.0  0.35543  0.26099  0.35619  1.0000
  H   H58       1.0  0.40337  0.24624  0.49670  1.0000
  H   H59       1.0  0.35264  0.24606  0.49274  1.0000
  C   C103      1.0  0.25850  0.11543  0.43736  1.0000
  C   C104      1.0  0.25818  0.14546  0.44019  1.0000
  H   H60       1.0  0.26731  0.15988  0.49676  1.0000
  H   H61       1.0  0.26744  0.10928  0.49279  1.0000
  C   C105      1.0  0.39803  0.14580  0.43718  1.0000
  C   C106      1.0  0.36805  0.11543  0.44017  1.0000
  C   C107      1.0  0.35498  0.09549  0.36228  1.0000
  C   C108      1.0  0.41632  0.15804  0.35601  1.0000
  H   H62       1.0  0.35371  0.11015  0.49692  1.0000
  H   H63       1.0  0.40429  0.16090  0.49264  1.0000
  C   C109      1.0  0.48996  0.74628  0.31119  1.0000
  C   C110      1.0  0.43689  0.69317  0.34539  1.0000
  C   C111      1.0  0.46969  0.71041  0.30910  1.0000
  O   O10       1.0  0.48062  0.69035  0.27541  1.0000
  H   H64       1.0  0.48417  0.69511  0.21050  1.0000
  C   C112      1.0  0.26719  0.74634  0.31123  1.0000
  C   C113      1.0  0.32031  0.74642  0.34540  1.0000
  C   C114      1.0  0.30306  0.76195  0.30911  1.0000
  O   O11       1.0  0.32311  0.79293  0.27533  1.0000
  H   H65       1.0  0.31833  0.79169  0.21043  1.0000
  C   C115      1.0  0.26711  0.52354  0.31121  1.0000
  C   C116      1.0  0.26702  0.57657  0.34563  1.0000
  C   C117      1.0  0.26466  0.96700  0.30867  1.0000
  O   O12       1.0  0.29569  0.97798  0.27520  1.0000
  H   H66       1.0  0.29454  0.98157  0.21030  1.0000
  C   C118      1.0  0.27576  0.87283  0.28414  1.0000
  C   C119      1.0  0.27533  0.90314  0.28097  1.0000
  H   H67       1.0  0.27874  0.86346  0.22464  1.0000
  H   H68       1.0  0.27781  0.91408  0.21944  1.0000
  C   C120      1.0  0.40841  0.77331  0.28477  1.0000
  C   C121      1.0  0.37755  0.77266  0.28177  1.0000
  H   H69       1.0  0.42060  0.77612  0.22510  1.0000
  H   H70       1.0  0.36914  0.77519  0.22021  1.0000
  C   C122      1.0  0.37556  0.60515  0.28465  1.0000
  C   C123      1.0  0.40588  0.63590  0.28161  1.0000
  H   H71       1.0  0.36621  0.59282  0.22512  1.0000
  H   H72       1.0  0.41684  0.64437  0.22012  1.0000
  C   C124      1.0  0.47127  0.76290  0.32515  1.0000
  C   C125      1.0  0.43760  0.74668  0.35220  1.0000
  C   C126      1.0  0.42209  0.71231  0.36820  1.0000
  H   H73       1.0  0.48244  0.78800  0.32640  1.0000
  H   H74       1.0  0.39739  0.70011  0.38542  1.0000
  C   C127      1.0  0.26680  0.69361  0.35242  1.0000
  C   C128      1.0  0.30118  0.71249  0.36833  1.0000
  H   H75       1.0  0.31337  0.69999  0.38573  1.0000
  C   C129      1.0  0.26556  0.79968  0.32518  1.0000
  H   H76       1.0  0.29066  0.81361  0.32627  1.0000
  C   C130      1.0  0.30242  0.54223  0.32524  1.0000
  C   C131      1.0  0.31984  0.57589  0.35244  1.0000
  C   C132      1.0  0.30096  0.59137  0.36850  1.0000
  H   H77       1.0  0.31636  0.53108  0.32640  1.0000
  H   H78       1.0  0.31345  0.61607  0.38576  1.0000
  C   C133      1.0  0.26488  0.85227  0.36185  1.0000
  C   C134      1.0  0.26366  0.91361  0.35532  1.0000
  C   C135      1.0  0.36774  0.75502  0.43732  1.0000
  C   C136      1.0  0.39809  0.75537  0.44011  1.0000
  C   C137      1.0  0.41804  0.76223  0.36221  1.0000
  C   C138      1.0  0.35543  0.76100  0.35619  1.0000
  H   H79       1.0  0.40337  0.74624  0.49670  1.0000
  H   H80       1.0  0.35264  0.74606  0.49274  1.0000
  C   C139      1.0  0.25849  0.61543  0.43736  1.0000
  C   C140      1.0  0.25818  0.64546  0.44019  1.0000
  H   H81       1.0  0.26731  0.65988  0.49676  1.0000
  H   H82       1.0  0.26744  0.60928  0.49279  1.0000
  C   C141      1.0  0.39803  0.64580  0.43718  1.0000
  C   C142      1.0  0.36805  0.61543  0.44017  1.0000
  C   C143      1.0  0.35498  0.59549  0.36228  1.0000
  C   C144      1.0  0.41632  0.65803  0.35601  1.0000
  H   H83       1.0  0.35371  0.61015  0.49692  1.0000
  H   H84       1.0  0.40429  0.66090  0.49264  1.0000
  C   C145      1.0  0.98996  0.24628  0.31119  1.0000
  C   C146      1.0  0.93690  0.19317  0.34539  1.0000
  C   C147      1.0  0.96969  0.21041  0.30910  1.0000
  C   C148      1.0  0.52624  0.26451  0.31122  1.0000
  C   C149      1.0  0.54650  0.30037  0.30917  1.0000
  C   C150      1.0  0.57927  0.31762  0.34564  1.0000
  O   O13       1.0  0.98062  0.19035  0.27541  1.0000
  O   O14       1.0  0.53558  0.32043  0.27542  1.0000
  H   H85       1.0  0.98418  0.19511  0.21050  1.0000
  H   H86       1.0  0.53202  0.31566  0.21052  1.0000
  C   C151      1.0  0.76719  0.24634  0.31123  1.0000
  C   C152      1.0  0.82031  0.24642  0.34540  1.0000
  C   C153      1.0  0.80305  0.26195  0.30911  1.0000
  C   C154      1.0  0.74894  0.26436  0.31127  1.0000
  C   C155      1.0  0.71307  0.24875  0.30920  1.0000
  C   C156      1.0  0.69582  0.26432  0.34534  1.0000
  O   O15       1.0  0.82311  0.29293  0.27533  1.0000
  O   O16       1.0  0.69300  0.21774  0.27568  1.0000
  H   H87       1.0  0.81833  0.29169  0.21043  1.0000
  H   H88       1.0  0.69772  0.21890  0.21076  1.0000
  C   C157      1.0  0.76711  0.02354  0.31121  1.0000
  C   C158      1.0  0.76702  0.07657  0.34563  1.0000
  C   C159      1.0  0.75150  0.04380  0.30917  1.0000
  C   C160      1.0  0.74906  0.48727  0.31096  1.0000
  C   C161      1.0  0.76466  0.46700  0.30867  1.0000
  C   C162      1.0  0.74908  0.43417  0.34464  1.0000
  O   O17       1.0  0.72053  0.03288  0.27532  1.0000
  O   O18       1.0  0.79568  0.47797  0.27520  1.0000
  H   H89       1.0  0.72178  0.02933  0.21043  1.0000
  H   H90       1.0  0.79453  0.48157  0.21030  1.0000
  C   C163      1.0  0.60770  0.23740  0.28497  1.0000
  C   C164      1.0  0.63855  0.23804  0.28185  1.0000
  H   H91       1.0  0.59529  0.23435  0.22556  1.0000
  H   H92       1.0  0.64690  0.23528  0.22045  1.0000
  C   C165      1.0  0.77576  0.37283  0.28414  1.0000
  C   C166      1.0  0.77532  0.40314  0.28097  1.0000
  H   H93       1.0  0.77874  0.36346  0.22464  1.0000
  H   H94       1.0  0.77781  0.41408  0.21944  1.0000
  C   C167      1.0  0.64050  0.40555  0.28427  1.0000
  C   C168      1.0  0.61020  0.37478  0.28156  1.0000
  H   H95       1.0  0.64980  0.41781  0.22462  1.0000
  H   H96       1.0  0.59920  0.36623  0.22015  1.0000
  C   C169      1.0  0.90841  0.27331  0.28477  1.0000
  C   C170      1.0  0.87755  0.27266  0.28177  1.0000
  H   H97       1.0  0.92060  0.27612  0.22510  1.0000
  H   H98       1.0  0.86914  0.27519  0.22021  1.0000
  C   C171      1.0  0.74018  0.13781  0.28475  1.0000
  C   C172      1.0  0.74082  0.10760  0.28177  1.0000
  H   H99       1.0  0.73720  0.14719  0.22529  1.0000
  H   H100      1.0  0.73813  0.09650  0.22039  1.0000
  C   C173      1.0  0.87557  0.10515  0.28465  1.0000
  C   C174      1.0  0.90588  0.13591  0.28161  1.0000
  H   H101      1.0  0.86621  0.09282  0.22512  1.0000
  H   H102      1.0  0.91684  0.14437  0.22012  1.0000
  C   C175      1.0  0.97127  0.26290  0.32515  1.0000
  C   C176      1.0  0.93760  0.24668  0.35220  1.0000
  C   C177      1.0  0.92209  0.21231  0.36821  1.0000
  H   H103      1.0  0.98244  0.28800  0.32640  1.0000
  H   H104      1.0  0.89739  0.20010  0.38542  1.0000
  C   C178      1.0  0.59404  0.29847  0.36852  1.0000
  C   C179      1.0  0.57854  0.26409  0.35268  1.0000
  C   C180      1.0  0.54492  0.24787  0.32521  1.0000
  H   H105      1.0  0.61872  0.31065  0.38607  1.0000
  H   H106      1.0  0.53374  0.22278  0.32662  1.0000
  C   C181      1.0  0.75057  0.21102  0.32511  1.0000
  C   C182      1.0  0.76680  0.19361  0.35242  1.0000
  C   C183      1.0  0.80118  0.21249  0.36833  1.0000
  H   H107      1.0  0.72547  0.19709  0.32658  1.0000
  H   H108      1.0  0.81337  0.19999  0.38573  1.0000
  C   C184      1.0  0.71496  0.29829  0.36786  1.0000
  C   C185      1.0  0.74933  0.31714  0.35193  1.0000
  C   C186      1.0  0.76557  0.29968  0.32518  1.0000
  H   H109      1.0  0.70274  0.31078  0.38510  1.0000
  H   H110      1.0  0.79066  0.31361  0.32627  1.0000
  C   C187      1.0  0.80241  0.04223  0.32524  1.0000
  C   C188      1.0  0.81985  0.07588  0.35244  1.0000
  C   C189      1.0  0.80096  0.09137  0.36850  1.0000
  H   H111      1.0  0.81636  0.03108  0.32640  1.0000
  H   H112      1.0  0.81345  0.11607  0.38576  1.0000
  C   C190      1.0  0.71510  0.41929  0.36691  1.0000
  C   C191      1.0  0.69627  0.43487  0.35156  1.0000
  C   C192      1.0  0.71374  0.46859  0.32496  1.0000
  H   H113      1.0  0.70257  0.39458  0.38414  1.0000
  H   H114      1.0  0.69986  0.47981  0.32699  1.0000
  C   C193      1.0  0.64850  0.25585  0.43734  1.0000
  C   C194      1.0  0.61816  0.25553  0.44021  1.0000
  C   C195      1.0  0.59815  0.24855  0.36235  1.0000
  C   C196      1.0  0.66070  0.24976  0.35617  1.0000
  H   H115      1.0  0.61291  0.26469  0.49679  1.0000
  H   H116      1.0  0.66364  0.26485  0.49267  1.0000
  C   C197      1.0  0.75758  0.39535  0.43654  1.0000
  C   C198      1.0  0.75801  0.36539  0.43963  1.0000
  C   C199      1.0  0.76488  0.35227  0.36185  1.0000
  C   C200      1.0  0.76366  0.41361  0.35532  1.0000
  H   H117      1.0  0.74895  0.35107  0.49640  1.0000
  H   H118      1.0  0.74873  0.40162  0.49194  1.0000
  C   C201      1.0  0.61819  0.36512  0.43727  1.0000
  C   C202      1.0  0.64818  0.39549  0.43987  1.0000
  C   C203      1.0  0.66115  0.41534  0.36178  1.0000
  C   C204      1.0  0.59989  0.35275  0.35618  1.0000
  H   H119      1.0  0.66265  0.40085  0.49637  1.0000
  H   H120      1.0  0.61208  0.35003  0.49269  1.0000
  C   C205      1.0  0.86774  0.25502  0.43732  1.0000
  C   C206      1.0  0.89809  0.25537  0.44011  1.0000
  C   C207      1.0  0.91804  0.26224  0.36221  1.0000
  C   C208      1.0  0.85543  0.26099  0.35619  1.0000
  H   H121      1.0  0.90337  0.24624  0.49670  1.0000
  H   H122      1.0  0.85264  0.24606  0.49274  1.0000
  C   C209      1.0  0.75850  0.11543  0.43736  1.0000
  C   C210      1.0  0.75818  0.14546  0.44019  1.0000
  C   C211      1.0  0.75126  0.15847  0.36221  1.0000
  C   C212      1.0  0.75245  0.09713  0.35622  1.0000
  H   H123      1.0  0.76731  0.15988  0.49676  1.0000
  H   H124      1.0  0.76744  0.10928  0.49279  1.0000
  C   C213      1.0  0.89803  0.14580  0.43718  1.0000
  C   C214      1.0  0.86805  0.11543  0.44017  1.0000
  C   C215      1.0  0.85498  0.09549  0.36228  1.0000
  C   C216      1.0  0.91632  0.15804  0.35601  1.0000
  H   H125      1.0  0.85371  0.11015  0.49692  1.0000
  H   H126      1.0  0.90429  0.16090  0.49264  1.0000
  C   C217      1.0  0.98996  0.74628  0.31119  1.0000
  C   C218      1.0  0.93690  0.69317  0.34539  1.0000
  C   C219      1.0  0.96969  0.71041  0.30910  1.0000
  C   C220      1.0  0.52624  0.76451  0.31122  1.0000
  C   C221      1.0  0.54650  0.80038  0.30917  1.0000
  C   C222      1.0  0.57926  0.81762  0.34564  1.0000
  O   O19       1.0  0.98062  0.69035  0.27541  1.0000
  O   O20       1.0  0.53558  0.82043  0.27542  1.0000
  H   H127      1.0  0.98417  0.69511  0.21050  1.0000
  H   H128      1.0  0.53202  0.81566  0.21052  1.0000
  C   C223      1.0  0.76719  0.74634  0.31123  1.0000
  C   C224      1.0  0.82031  0.74642  0.34540  1.0000
  C   C225      1.0  0.80305  0.76195  0.30911  1.0000
  C   C226      1.0  0.74894  0.76436  0.31127  1.0000
  C   C227      1.0  0.71307  0.74875  0.30920  1.0000
  C   C228      1.0  0.69582  0.76432  0.34534  1.0000
  O   O21       1.0  0.82310  0.79293  0.27533  1.0000
  O   O22       1.0  0.69300  0.71773  0.27568  1.0000
  H   H129      1.0  0.81833  0.79169  0.21043  1.0000
  H   H130      1.0  0.69772  0.71890  0.21076  1.0000
  C   C229      1.0  0.76710  0.52354  0.31121  1.0000
  C   C230      1.0  0.76702  0.57657  0.34563  1.0000
  C   C231      1.0  0.75150  0.54380  0.30917  1.0000
  C   C232      1.0  0.74906  0.98726  0.31096  1.0000
  C   C233      1.0  0.76466  0.96700  0.30867  1.0000
  C   C234      1.0  0.74908  0.93417  0.34464  1.0000
  O   O23       1.0  0.72053  0.53288  0.27532  1.0000
  O   O24       1.0  0.79568  0.97798  0.27520  1.0000
  H   H131      1.0  0.72178  0.52933  0.21043  1.0000
  H   H132      1.0  0.79453  0.98157  0.21030  1.0000
  C   C235      1.0  0.60770  0.73740  0.28497  1.0000
  C   C236      1.0  0.63855  0.73804  0.28185  1.0000
  H   H133      1.0  0.59529  0.73435  0.22556  1.0000
  H   H134      1.0  0.64690  0.73528  0.22045  1.0000
  C   C237      1.0  0.77576  0.87283  0.28414  1.0000
  C   C238      1.0  0.77533  0.90314  0.28097  1.0000
  H   H135      1.0  0.77874  0.86346  0.22464  1.0000
  H   H136      1.0  0.77781  0.91408  0.21944  1.0000
  C   C239      1.0  0.64050  0.90555  0.28427  1.0000
  C   C240      1.0  0.61020  0.87478  0.28156  1.0000
  H   H137      1.0  0.64979  0.91781  0.22462  1.0000
  H   H138      1.0  0.59920  0.86623  0.22015  1.0000
  C   C241      1.0  0.90841  0.77331  0.28477  1.0000
  C   C242      1.0  0.87755  0.77266  0.28177  1.0000
  H   H139      1.0  0.92060  0.77612  0.22510  1.0000
  H   H140      1.0  0.86913  0.77519  0.22021  1.0000
  C   C243      1.0  0.74018  0.63780  0.28475  1.0000
  C   C244      1.0  0.74082  0.60760  0.28177  1.0000
  H   H141      1.0  0.73720  0.64719  0.22529  1.0000
  H   H142      1.0  0.73812  0.59650  0.22039  1.0000
  C   C245      1.0  0.87556  0.60515  0.28465  1.0000
  C   C246      1.0  0.90588  0.63590  0.28161  1.0000
  H   H143      1.0  0.86621  0.59282  0.22512  1.0000
  H   H144      1.0  0.91684  0.64437  0.22012  1.0000
  C   C247      1.0  0.97127  0.76290  0.32515  1.0000
  C   C248      1.0  0.93760  0.74668  0.35220  1.0000
  C   C249      1.0  0.92209  0.71231  0.36820  1.0000
  H   H145      1.0  0.98244  0.78800  0.32640  1.0000
  H   H146      1.0  0.89739  0.70011  0.38542  1.0000
  C   C250      1.0  0.59404  0.79847  0.36852  1.0000
  C   C251      1.0  0.57854  0.76409  0.35268  1.0000
  C   C252      1.0  0.54492  0.74787  0.32521  1.0000
  H   H147      1.0  0.61872  0.81065  0.38607  1.0000
  H   H148      1.0  0.53374  0.72278  0.32662  1.0000
  C   C253      1.0  0.75057  0.71102  0.32511  1.0000
  C   C254      1.0  0.76680  0.69361  0.35242  1.0000
  C   C255      1.0  0.80118  0.71249  0.36833  1.0000
  H   H149      1.0  0.72547  0.69709  0.32658  1.0000
  H   H150      1.0  0.81337  0.69999  0.38573  1.0000
  C   C256      1.0  0.71496  0.79829  0.36786  1.0000
  C   C257      1.0  0.74933  0.81714  0.35193  1.0000
  C   C258      1.0  0.76556  0.79968  0.32518  1.0000
  H   H151      1.0  0.70274  0.81078  0.38510  1.0000
  H   H152      1.0  0.79066  0.81361  0.32627  1.0000
  C   C259      1.0  0.80241  0.54223  0.32524  1.0000
  C   C260      1.0  0.81984  0.57589  0.35244  1.0000
  C   C261      1.0  0.80096  0.59137  0.36850  1.0000
  H   H153      1.0  0.81636  0.53108  0.32640  1.0000
  H   H154      1.0  0.81345  0.61607  0.38576  1.0000
  C   C262      1.0  0.71510  0.91929  0.36691  1.0000
  C   C263      1.0  0.69627  0.93487  0.35156  1.0000
  C   C264      1.0  0.71374  0.96860  0.32496  1.0000
  H   H155      1.0  0.70258  0.89458  0.38414  1.0000
  H   H156      1.0  0.69986  0.97981  0.32699  1.0000
  C   C265      1.0  0.64850  0.75585  0.43734  1.0000
  C   C266      1.0  0.61816  0.75553  0.44021  1.0000
  C   C267      1.0  0.59815  0.74855  0.36235  1.0000
  C   C268      1.0  0.66070  0.74976  0.35617  1.0000
  H   H157      1.0  0.61291  0.76468  0.49679  1.0000
  H   H158      1.0  0.66364  0.76485  0.49267  1.0000
  C   C269      1.0  0.75758  0.89535  0.43654  1.0000
  C   C270      1.0  0.75801  0.86539  0.43963  1.0000
  C   C271      1.0  0.76488  0.85227  0.36185  1.0000
  C   C272      1.0  0.76365  0.91361  0.35532  1.0000
  H   H159      1.0  0.74895  0.85107  0.49640  1.0000
  H   H160      1.0  0.74873  0.90162  0.49194  1.0000
  C   C273      1.0  0.61819  0.86512  0.43727  1.0000
  C   C274      1.0  0.64818  0.89549  0.43987  1.0000
  C   C275      1.0  0.66115  0.91534  0.36178  1.0000
  C   C276      1.0  0.59989  0.85275  0.35618  1.0000
  H   H161      1.0  0.66264  0.90085  0.49637  1.0000
  H   H162      1.0  0.61208  0.85003  0.49269  1.0000
  C   C277      1.0  0.86774  0.75502  0.43732  1.0000
  C   C278      1.0  0.89808  0.75537  0.44011  1.0000
  C   C279      1.0  0.91804  0.76223  0.36221  1.0000
  C   C280      1.0  0.85543  0.76100  0.35619  1.0000
  H   H163      1.0  0.90337  0.74624  0.49670  1.0000
  H   H164      1.0  0.85264  0.74606  0.49274  1.0000
  C   C281      1.0  0.75849  0.61543  0.43736  1.0000
  C   C282      1.0  0.75818  0.64546  0.44019  1.0000
  C   C283      1.0  0.75126  0.65847  0.36221  1.0000
  C   C284      1.0  0.75245  0.59713  0.35622  1.0000
  H   H165      1.0  0.76731  0.65988  0.49676  1.0000
  H   H166      1.0  0.76744  0.60928  0.49279  1.0000
  C   C285      1.0  0.89802  0.64580  0.43718  1.0000
  C   C286      1.0  0.86805  0.61543  0.44017  1.0000
  C   C287      1.0  0.85498  0.59549  0.36228  1.0000
  C   C288      1.0  0.91632  0.65803  0.35601  1.0000
  H   H167      1.0  0.85371  0.61015  0.49692  1.0000
  H   H168      1.0  0.90429  0.66090  0.49264  1.0000
