data_image0
_chemical_formula_structural       C4OC4OH4N2C4OC4OH4N2C4OC4OH4N3C2HCHNC2HCHNC2HCHNC2HCHNC2HCHNC2HCHC2HC2HN2C2HC2HN2C2HC2HN2CNCOCH3CHCNCOCH3CHCNCOCH3CHCNCOCH3CHCNCOCH3CHCNCOCH3CH
_chemical_formula_sum              "C78 O12 H54 N24"
_cell_length_a       31.6657
_cell_length_b       31.6657
_cell_length_c       15.0176
_cell_angle_alpha    90
_cell_angle_beta     90
_cell_angle_gamma    120

_space_group_name_H-M_alt    "P 1"
_space_group_IT_number       1

loop_
  _space_group_symop_operation_xyz
  'x, y, z'

loop_
  _atom_site_type_symbol
  _atom_site_label
  _atom_site_symmetry_multiplicity
  _atom_site_fract_x
  _atom_site_fract_y
  _atom_site_fract_z
  _atom_site_occupancy
  C   C1        1.0  0.97307  0.48475  0.32231  1.0000
  C   C2        1.0  0.86895  0.42653  0.32600  1.0000
  C   C3        1.0  0.89783  0.40412  0.33237  1.0000
  C   C4        1.0  0.94881  0.43360  0.33876  1.0000
  O   O1        1.0  0.81928  0.39886  0.32509  1.0000
  C   C5        1.0  0.02517  0.51409  0.32225  1.0000
  C   C6        1.0  0.04943  0.56524  0.33865  1.0000
  C   C7        1.0  0.10041  0.59473  0.33226  1.0000
  C   C8        1.0  0.12929  0.57231  0.32586  1.0000
  O   O2        1.0  0.17896  0.59997  0.32499  1.0000
  H   H1        1.0  0.80908  0.38600  0.38573  1.0000
  H   H2        1.0  0.18915  0.61282  0.38565  1.0000
  H   H3        1.0  0.96798  0.41632  0.35235  1.0000
  H   H4        1.0  0.03027  0.58251  0.35238  1.0000
  N   N1        1.0  0.12180  0.64373  0.34096  1.0000
  N   N2        1.0  0.87646  0.35512  0.34102  1.0000
  C   C9        1.0  0.51378  0.48803  0.32231  1.0000
  C   C10       1.0  0.57200  0.44213  0.32600  1.0000
  C   C11       1.0  0.59441  0.49342  0.33237  1.0000
  C   C12       1.0  0.56493  0.51492  0.33876  1.0000
  O   O3        1.0  0.59967  0.42012  0.32509  1.0000
  C   C13       1.0  0.48444  0.51079  0.32225  1.0000
  C   C14       1.0  0.43329  0.48389  0.33865  1.0000
  C   C15       1.0  0.40380  0.50539  0.33226  1.0000
  C   C16       1.0  0.42622  0.55668  0.32586  1.0000
  O   O4        1.0  0.39856  0.57869  0.32499  1.0000
  H   H5        1.0  0.61253  0.42278  0.38573  1.0000
  H   H6        1.0  0.38571  0.57604  0.38565  1.0000
  H   H7        1.0  0.58220  0.55136  0.35235  1.0000
  H   H8        1.0  0.41602  0.44747  0.35238  1.0000
  N   N3        1.0  0.35480  0.47778  0.34096  1.0000
  N   N4        1.0  0.64341  0.52105  0.34102  1.0000
  C   C17       1.0  0.51050  0.02546  0.32231  1.0000
  C   C18       1.0  0.55640  0.12958  0.32600  1.0000
  C   C19       1.0  0.50511  0.10070  0.33237  1.0000
  C   C20       1.0  0.48362  0.04972  0.33876  1.0000
  O   O5        1.0  0.57840  0.17925  0.32509  1.0000
  C   C21       1.0  0.48775  0.97337  0.32225  1.0000
  C   C22       1.0  0.51463  0.94910  0.33865  1.0000
  C   C23       1.0  0.49314  0.89812  0.33226  1.0000
  C   C24       1.0  0.44185  0.86925  0.32586  1.0000
  O   O6        1.0  0.41984  0.81958  0.32499  1.0000
  H   H9        1.0  0.57575  0.18946  0.38573  1.0000
  H   H10       1.0  0.42249  0.80938  0.38565  1.0000
  H   H11       1.0  0.44717  0.03055  0.35235  1.0000
  H   H12       1.0  0.55106  0.96826  0.35238  1.0000
  N   N5        1.0  0.52075  0.87673  0.34096  1.0000
  N   N6        1.0  0.47748  0.12207  0.34102  1.0000
  N   N7        1.0  0.20686  0.47674  0.26923  1.0000
  C   C25       1.0  0.24293  0.46815  0.24347  1.0000
  C   C26       1.0  0.27786  0.47252  0.30673  1.0000
  H   H13       1.0  0.24590  0.46164  0.17774  1.0000
  C   C27       1.0  0.32248  0.47706  0.28115  1.0000
  H   H14       1.0  0.33383  0.48749  0.21685  1.0000
  N   N8        1.0  0.52179  0.72982  0.26923  1.0000
  C   C28       1.0  0.53038  0.77448  0.24347  1.0000
  C   C29       1.0  0.52601  0.80505  0.30673  1.0000
  H   H15       1.0  0.53689  0.78396  0.17774  1.0000
  C   C30       1.0  0.52147  0.84512  0.28115  1.0000
  H   H16       1.0  0.51104  0.84605  0.21685  1.0000
  N   N9        1.0  0.26871  0.79167  0.26923  1.0000
  C   C31       1.0  0.22405  0.75561  0.24347  1.0000
  C   C32       1.0  0.19348  0.72067  0.30673  1.0000
  H   H17       1.0  0.21457  0.75263  0.17774  1.0000
  C   C33       1.0  0.15341  0.67605  0.28115  1.0000
  H   H18       1.0  0.15248  0.66470  0.21685  1.0000
  N   N10       1.0  0.79135  0.52207  0.26930  1.0000
  C   C34       1.0  0.75528  0.53065  0.24353  1.0000
  C   C35       1.0  0.72035  0.52630  0.30678  1.0000
  H   H19       1.0  0.75230  0.53715  0.17780  1.0000
  C   C36       1.0  0.67573  0.52175  0.28120  1.0000
  H   H20       1.0  0.66437  0.51129  0.21692  1.0000
  N   N11       1.0  0.47646  0.26899  0.26930  1.0000
  C   C37       1.0  0.46788  0.22434  0.24353  1.0000
  C   C38       1.0  0.47223  0.19376  0.30678  1.0000
  H   H21       1.0  0.46138  0.21486  0.17780  1.0000
  C   C39       1.0  0.47678  0.15369  0.28120  1.0000
  H   H22       1.0  0.48723  0.15278  0.21692  1.0000
  N   N12       1.0  0.72954  0.20718  0.26930  1.0000
  C   C40       1.0  0.77420  0.24325  0.24353  1.0000
  C   C41       1.0  0.80477  0.27818  0.30678  1.0000
  H   H23       1.0  0.78367  0.24623  0.17780  1.0000
  C   C42       1.0  0.84484  0.32280  0.28120  1.0000
  H   H24       1.0  0.84575  0.33416  0.21692  1.0000
  C   C43       1.0  0.94253  0.50518  0.30725  1.0000
  C   C44       1.0  0.89145  0.47765  0.31613  1.0000
  H   H25       1.0  0.95725  0.54148  0.29406  1.0000
  C   C45       1.0  0.10679  0.52119  0.31597  1.0000
  C   C46       1.0  0.05570  0.49367  0.30704  1.0000
  H   H26       1.0  0.04098  0.45735  0.29404  1.0000
  N   N13       1.0  0.13194  0.49687  0.31727  1.0000
  N   N14       1.0  0.86629  0.50196  0.31737  1.0000
  C   C47       1.0  0.49335  0.43706  0.30725  1.0000
  C   C48       1.0  0.52088  0.41350  0.31613  1.0000
  H   H27       1.0  0.45705  0.41548  0.29406  1.0000
  C   C49       1.0  0.47734  0.58530  0.31597  1.0000
  C   C50       1.0  0.50486  0.56174  0.30704  1.0000
  H   H28       1.0  0.54118  0.58334  0.29404  1.0000
  N   N15       1.0  0.50166  0.63477  0.31727  1.0000
  N   N16       1.0  0.49657  0.36403  0.31737  1.0000
  C   C51       1.0  0.56147  0.05600  0.30725  1.0000
  C   C52       1.0  0.58503  0.10708  0.31613  1.0000
  H   H29       1.0  0.58305  0.04128  0.29406  1.0000
  C   C53       1.0  0.41323  0.89175  0.31597  1.0000
  C   C54       1.0  0.43679  0.94283  0.30704  1.0000
  H   H30       1.0  0.41519  0.95755  0.29404  1.0000
  N   N17       1.0  0.36375  0.86660  0.31727  1.0000
  N   N18       1.0  0.63450  0.13224  0.31737  1.0000
  C   C55       1.0  0.20236  0.48920  0.35387  1.0000
  N   N19       1.0  0.27247  0.48353  0.39189  1.0000
  C   C56       1.0  0.23590  0.49124  0.41853  1.0000
  O   O7        1.0  0.23683  0.50653  0.50405  1.0000
  C   C57       1.0  0.20957  0.46696  0.56474  1.0000
  H   H31       1.0  0.21235  0.48229  0.63094  1.0000
  H   H32       1.0  0.22428  0.44227  0.56785  1.0000
  H   H33       1.0  0.17100  0.44644  0.54652  1.0000
  C   C58       1.0  0.17036  0.50679  0.37030  1.0000
  H   H34       1.0  0.17523  0.52684  0.42682  1.0000
  C   C59       1.0  0.50932  0.71286  0.35387  1.0000
  N   N20       1.0  0.51500  0.78865  0.39189  1.0000
  C   C60       1.0  0.50729  0.74437  0.41853  1.0000
  O   O8        1.0  0.49200  0.73000  0.50405  1.0000
  C   C61       1.0  0.53157  0.74231  0.56474  1.0000
  H   H35       1.0  0.51624  0.72977  0.63094  1.0000
  H   H36       1.0  0.55626  0.78171  0.56785  1.0000
  H   H37       1.0  0.55209  0.72426  0.54652  1.0000
  C   C62       1.0  0.49174  0.66328  0.37030  1.0000
  H   H38       1.0  0.47169  0.64810  0.42682  1.0000
  C   C63       1.0  0.28567  0.79617  0.35387  1.0000
  N   N21       1.0  0.20988  0.72606  0.39189  1.0000
  C   C64       1.0  0.25416  0.76263  0.41853  1.0000
  O   O9        1.0  0.26853  0.76170  0.50405  1.0000
  C   C65       1.0  0.25622  0.78896  0.56474  1.0000
  H   H39       1.0  0.26876  0.78618  0.63094  1.0000
  H   H40       1.0  0.21682  0.77425  0.56785  1.0000
  H   H41       1.0  0.27427  0.82753  0.54652  1.0000
  C   C66       1.0  0.33525  0.82817  0.37030  1.0000
  H   H42       1.0  0.35043  0.82330  0.42682  1.0000
  C   C67       1.0  0.79585  0.50961  0.35394  1.0000
  N   N22       1.0  0.72574  0.51530  0.39195  1.0000
  C   C68       1.0  0.76231  0.50759  0.41860  1.0000
  O   O10       1.0  0.76139  0.49231  0.50412  1.0000
  C   C69       1.0  0.78866  0.53189  0.56480  1.0000
  H   H43       1.0  0.78587  0.51657  0.63100  1.0000
  H   H44       1.0  0.77395  0.55658  0.56789  1.0000
  H   H45       1.0  0.82723  0.55241  0.54656  1.0000
  C   C70       1.0  0.82785  0.49203  0.37039  1.0000
  H   H46       1.0  0.82298  0.47199  0.42692  1.0000
  C   C71       1.0  0.48891  0.28595  0.35394  1.0000
  N   N23       1.0  0.48323  0.21015  0.39195  1.0000
  C   C72       1.0  0.49094  0.25443  0.41860  1.0000
  O   O11       1.0  0.50622  0.26878  0.50412  1.0000
  C   C73       1.0  0.46664  0.25647  0.56480  1.0000
  H   H47       1.0  0.48196  0.26901  0.63100  1.0000
  H   H48       1.0  0.44195  0.21707  0.56789  1.0000
  H   H49       1.0  0.44612  0.27453  0.54656  1.0000
  C   C74       1.0  0.50649  0.33552  0.37039  1.0000
  H   H50       1.0  0.52654  0.35070  0.42692  1.0000
  C   C75       1.0  0.71259  0.20267  0.35394  1.0000
  N   N24       1.0  0.78838  0.27278  0.39195  1.0000
  C   C76       1.0  0.74410  0.23622  0.41860  1.0000
  O   O12       1.0  0.72975  0.23714  0.50412  1.0000
  C   C77       1.0  0.74206  0.20987  0.56480  1.0000
  H   H51       1.0  0.72952  0.21266  0.63100  1.0000
  H   H52       1.0  0.78146  0.22459  0.56789  1.0000
  H   H53       1.0  0.72401  0.17130  0.54656  1.0000
  C   C78       1.0  0.66301  0.17068  0.37039  1.0000
  H   H54       1.0  0.64783  0.17555  0.42692  1.0000
