data_image0
_chemical_formula_structural       C3NC3NC5NC5NC20H18N4C3NC3NC5NC5NC20H18N4C3NC3NC5NC5NC20H18N4C3NC3NC5NC5NC20H18N4C3NC3NC5NC5NC20H18N4C3NC3NC5NC5NC20H18N4C3H2CHC3H2CHC3H2CHC3H2CHC2H2CHC2H2CHC3H2CHC3H2CHC3H2CHC3H2CHC3H2CHC3H2CHC8H8C8H8C8H8C8H8C8H8C8H8C3N2O4CHC3N2O4CHC3N2O4CHC3N2O4CHC4N2O4CHC4N2O4CHC3N2O4CHC3N2O4CHC3N2O4CHC3N2O4CHC3N2O4CHC3N2O4CH
_chemical_formula_sum              "C360 N72 H204 O48"
_cell_length_a       69.3322
_cell_length_b       69.3321
_cell_length_c       14.8743
_cell_angle_alpha    90.0046
_cell_angle_beta     89.9098
_cell_angle_gamma    120

_space_group_name_H-M_alt    "P 1"
_space_group_IT_number       1

loop_
  _space_group_symop_operation_xyz
  'x, y, z'

loop_
  _atom_site_type_symbol
  _atom_site_label
  _atom_site_symmetry_multiplicity
  _atom_site_fract_x
  _atom_site_fract_y
  _atom_site_fract_z
  _atom_site_occupancy
  C   C1        1.0  0.21355  0.37838  0.31833  1.0000
  C   C2        1.0  0.23347  0.37830  0.32039  1.0000
  C   C3        1.0  0.25094  0.40033  0.32260  1.0000
  N   N1        1.0  0.24086  0.41286  0.32223  1.0000
  C   C4        1.0  0.21825  0.40046  0.31992  1.0000
  C   C5        1.0  0.20196  0.40733  0.31946  1.0000
  C   C6        1.0  0.20710  0.42995  0.32165  1.0000
  N   N2        1.0  0.22740  0.44858  0.32067  1.0000
  C   C7        1.0  0.22602  0.46736  0.32370  1.0000
  C   C8        1.0  0.20334  0.46038  0.32688  1.0000
  C   C9        1.0  0.19172  0.43739  0.32571  1.0000
  C   C10       1.0  0.24368  0.48981  0.32325  1.0000
  C   C11       1.0  0.26671  0.49646  0.32106  1.0000
  N   N3        1.0  0.27664  0.48386  0.32225  1.0000
  C   C12       1.0  0.29918  0.49632  0.32108  1.0000
  C   C13       1.0  0.30398  0.51844  0.31778  1.0000
  C   C14       1.0  0.28414  0.51853  0.31806  1.0000
  C   C15       1.0  0.31544  0.48952  0.32323  1.0000
  C   C16       1.0  0.31046  0.46701  0.32448  1.0000
  N   N4        1.0  0.29019  0.44833  0.32324  1.0000
  C   C17       1.0  0.29167  0.42960  0.32540  1.0000
  C   C18       1.0  0.31445  0.43684  0.32769  1.0000
  C   C19       1.0  0.32600  0.45983  0.32732  1.0000
  C   C20       1.0  0.27404  0.40704  0.32509  1.0000
  C   C21       1.0  0.28039  0.39028  0.32872  1.0000
  C   C22       1.0  0.30021  0.36260  0.33554  1.0000
  C   C23       1.0  0.29426  0.36813  0.25241  1.0000
  C   C24       1.0  0.28462  0.38187  0.24904  1.0000
  C   C25       1.0  0.33831  0.50663  0.32528  1.0000
  C   C26       1.0  0.38217  0.54440  0.32744  1.0000
  C   C27       1.0  0.37231  0.53339  0.24610  1.0000
  C   C28       1.0  0.35059  0.51483  0.24474  1.0000
  C   C29       1.0  0.23811  0.50704  0.32613  1.0000
  C   C30       1.0  0.23630  0.51695  0.24593  1.0000
  C   C31       1.0  0.23372  0.53584  0.24899  1.0000
  C   C32       1.0  0.23293  0.54530  0.33230  1.0000
  C   C33       1.0  0.17877  0.39069  0.31728  1.0000
  C   C34       1.0  0.16626  0.38670  0.23748  1.0000
  C   C35       1.0  0.13120  0.36293  0.31821  1.0000
  C   C36       1.0  0.14286  0.37312  0.23818  1.0000
  H   H1        1.0  0.13428  0.37118  0.17979  1.0000
  H   H2        1.0  0.17402  0.39449  0.17893  1.0000
  H   H3        1.0  0.19817  0.36438  0.31644  1.0000
  H   H4        1.0  0.23475  0.36423  0.31999  1.0000
  H   H5        1.0  0.24890  0.42885  0.32435  1.0000
  H   H6        1.0  0.26859  0.46790  0.32653  1.0000
  H   H7        1.0  0.17475  0.42789  0.32840  1.0000
  H   H8        1.0  0.19620  0.47018  0.32991  1.0000
  H   H9        1.0  0.23773  0.51099  0.18477  1.0000
  H   H10       1.0  0.23328  0.54310  0.18981  1.0000
  H   H11       1.0  0.28298  0.53265  0.31659  1.0000
  H   H12       1.0  0.31932  0.53249  0.31615  1.0000
  H   H13       1.0  0.32179  0.42721  0.32939  1.0000
  H   H14       1.0  0.34296  0.46951  0.32882  1.0000
  H   H15       1.0  0.34357  0.50774  0.18434  1.0000
  H   H16       1.0  0.38064  0.53926  0.18651  1.0000
  H   H17       1.0  0.28149  0.38640  0.18769  1.0000
  H   H18       1.0  0.29771  0.36297  0.19329  1.0000
  N   N5        1.0  0.40238  0.56250  0.32280  1.0000
  N   N6        1.0  0.23204  0.56397  0.34071  1.0000
  N   N7        1.0  0.10887  0.35157  0.31494  1.0000
  N   N8        1.0  0.31069  0.35089  0.34449  1.0000
  C   C37       1.0  0.69283  0.83727  0.31959  1.0000
  C   C38       1.0  0.69291  0.85727  0.32158  1.0000
  C   C39       1.0  0.67087  0.85270  0.32371  1.0000
  N   N9        1.0  0.65834  0.83010  0.32337  1.0000
  C   C40       1.0  0.67074  0.81988  0.32114  1.0000
  C   C41       1.0  0.66388  0.79673  0.32071  1.0000
  C   C42       1.0  0.64126  0.77925  0.32288  1.0000
  N   N10       1.0  0.62263  0.78092  0.32198  1.0000
  C   C43       1.0  0.60385  0.76075  0.32490  1.0000
  C   C44       1.0  0.61083  0.74506  0.32792  1.0000
  C   C45       1.0  0.63382  0.75643  0.32686  1.0000
  C   C46       1.0  0.58140  0.75595  0.32451  1.0000
  C   C47       1.0  0.57474  0.77233  0.32247  1.0000
  N   N11       1.0  0.58733  0.79486  0.32354  1.0000
  C   C48       1.0  0.57487  0.80494  0.32237  1.0000
  C   C49       1.0  0.55275  0.78761  0.31952  1.0000
  C   C50       1.0  0.55267  0.76769  0.31985  1.0000
  C   C51       1.0  0.58167  0.82801  0.32417  1.0000
  C   C52       1.0  0.60419  0.84554  0.32531  1.0000
  N   N12       1.0  0.62287  0.84395  0.32424  1.0000
  C   C53       1.0  0.64159  0.86416  0.32623  1.0000
  C   C54       1.0  0.63435  0.87970  0.32827  1.0000
  C   C55       1.0  0.61135  0.86825  0.32787  1.0000
  C   C56       1.0  0.66416  0.86909  0.32600  1.0000
  C   C57       1.0  0.68091  0.89220  0.32953  1.0000
  C   C58       1.0  0.70859  0.93970  0.33608  1.0000
  C   C59       1.0  0.70312  0.92818  0.25303  1.0000
  C   C60       1.0  0.68940  0.90480  0.24978  1.0000
  C   C61       1.0  0.56457  0.83377  0.32605  1.0000
  C   C62       1.0  0.52679  0.83985  0.32792  1.0000
  C   C63       1.0  0.53786  0.84097  0.24663  1.0000
  C   C64       1.0  0.55642  0.83781  0.24543  1.0000
  C   C65       1.0  0.56417  0.73315  0.32735  1.0000
  C   C66       1.0  0.55427  0.72146  0.24715  1.0000
  C   C67       1.0  0.53538  0.69998  0.25022  1.0000
  C   C68       1.0  0.52592  0.68970  0.33353  1.0000
  C   C69       1.0  0.68052  0.79019  0.31851  1.0000
  C   C70       1.0  0.68458  0.78169  0.23867  1.0000
  C   C71       1.0  0.70830  0.77040  0.31938  1.0000
  C   C72       1.0  0.69815  0.77186  0.23938  1.0000
  H   H19       1.0  0.70014  0.76523  0.18095  1.0000
  H   H20       1.0  0.67682  0.78165  0.18013  1.0000
  H   H21       1.0  0.70683  0.83590  0.31773  1.0000
  H   H22       1.0  0.70697  0.87261  0.32112  1.0000
  H   H23       1.0  0.64235  0.82215  0.32541  1.0000
  H   H24       1.0  0.60331  0.80279  0.32696  1.0000
  H   H25       1.0  0.64332  0.74896  0.32932  1.0000
  H   H26       1.0  0.60103  0.72812  0.33084  1.0000
  H   H27       1.0  0.56022  0.72887  0.18600  1.0000
  H   H28       1.0  0.52811  0.69231  0.19105  1.0000
  H   H29       1.0  0.53855  0.75240  0.31857  1.0000
  H   H30       1.0  0.53870  0.78890  0.31794  1.0000
  H   H31       1.0  0.64397  0.89667  0.32980  1.0000
  H   H32       1.0  0.60167  0.87554  0.32922  1.0000
  H   H33       1.0  0.56355  0.83785  0.18506  1.0000
  H   H34       1.0  0.53203  0.84339  0.18699  1.0000
  H   H35       1.0  0.68491  0.89710  0.18848  1.0000
  H   H36       1.0  0.70837  0.93677  0.19386  1.0000
  N   N13       1.0  0.50870  0.84196  0.32314  1.0000
  N   N14       1.0  0.50723  0.67015  0.34197  1.0000
  N   N15       1.0  0.71963  0.75939  0.31610  1.0000
  N   N16       1.0  0.72029  0.96190  0.34488  1.0000
  C   C73       1.0  0.23396  0.85767  0.31753  1.0000
  C   C74       1.0  0.21395  0.83775  0.31951  1.0000
  C   C75       1.0  0.21852  0.82028  0.32168  1.0000
  N   N17       1.0  0.24113  0.83036  0.32139  1.0000
  C   C76       1.0  0.25134  0.85297  0.31916  1.0000
  C   C77       1.0  0.27450  0.86926  0.31880  1.0000
  C   C78       1.0  0.29198  0.86412  0.32104  1.0000
  N   N18       1.0  0.29030  0.84382  0.32012  1.0000
  C   C79       1.0  0.31047  0.84520  0.32319  1.0000
  C   C80       1.0  0.32616  0.86787  0.32632  1.0000
  C   C81       1.0  0.31479  0.87950  0.32514  1.0000
  C   C82       1.0  0.31526  0.82754  0.32282  1.0000
  C   C83       1.0  0.29888  0.80451  0.32069  1.0000
  N   N19       1.0  0.27635  0.79458  0.32165  1.0000
  C   C84       1.0  0.26627  0.77203  0.32049  1.0000
  C   C85       1.0  0.28360  0.76723  0.31769  1.0000
  C   C86       1.0  0.30352  0.78708  0.31810  1.0000
  C   C87       1.0  0.24320  0.75577  0.32223  1.0000
  C   C88       1.0  0.22567  0.76076  0.32332  1.0000
  N   N20       1.0  0.22726  0.78103  0.32223  1.0000
  C   C89       1.0  0.20706  0.77955  0.32422  1.0000
  C   C90       1.0  0.19151  0.75676  0.32627  1.0000
  C   C91       1.0  0.20295  0.74521  0.32587  1.0000
  C   C92       1.0  0.20213  0.79717  0.32401  1.0000
  C   C93       1.0  0.17902  0.79082  0.32754  1.0000
  C   C94       1.0  0.13151  0.77102  0.33437  1.0000
  C   C95       1.0  0.14305  0.77699  0.25123  1.0000
  C   C96       1.0  0.16643  0.78665  0.24786  1.0000
  C   C97       1.0  0.23744  0.73290  0.32418  1.0000
  C   C98       1.0  0.23133  0.68903  0.32625  1.0000
  C   C99       1.0  0.23031  0.69898  0.24489  1.0000
  C   C100      1.0  0.23347  0.72070  0.24359  1.0000
  C   C101      1.0  0.33805  0.83311  0.32588  1.0000
  C   C102      1.0  0.34985  0.83491  0.24583  1.0000
  C   C103      1.0  0.37133  0.83752  0.24915  1.0000
  C   C104      1.0  0.38149  0.83830  0.33259  1.0000
  C   C105      1.0  0.28104  0.89245  0.31670  1.0000
  C   C106      1.0  0.28964  0.90504  0.23695  1.0000
  C   C107      1.0  0.30082  0.94002  0.31780  1.0000
  C   C108      1.0  0.29945  0.92843  0.23776  1.0000
  H   H37       1.0  0.30612  0.93706  0.17937  1.0000
  H   H38       1.0  0.28971  0.89732  0.17837  1.0000
  H   H39       1.0  0.23533  0.87305  0.31564  1.0000
  H   H40       1.0  0.19861  0.83647  0.31898  1.0000
  H   H41       1.0  0.24907  0.82231  0.32358  1.0000
  H   H42       1.0  0.26842  0.80262  0.32504  1.0000
  H   H43       1.0  0.32226  0.89646  0.32772  1.0000
  H   H44       1.0  0.34309  0.87501  0.32935  1.0000
  H   H45       1.0  0.34255  0.83352  0.18459  1.0000
  H   H46       1.0  0.37909  0.83795  0.19008  1.0000
  H   H47       1.0  0.31881  0.78824  0.31689  1.0000
  H   H48       1.0  0.28231  0.75189  0.31615  1.0000
  H   H49       1.0  0.17454  0.74942  0.32781  1.0000
  H   H50       1.0  0.19567  0.72824  0.32723  1.0000
  H   H51       1.0  0.23352  0.72779  0.18317  1.0000
  H   H52       1.0  0.22796  0.69072  0.18526  1.0000
  H   H53       1.0  0.17414  0.78981  0.18651  1.0000
  H   H54       1.0  0.13447  0.77360  0.19210  1.0000
  N   N21       1.0  0.22923  0.66883  0.32157  1.0000
  N   N22       1.0  0.40102  0.83915  0.34126  1.0000
  N   N23       1.0  0.31182  0.96236  0.31464  1.0000
  N   N24       1.0  0.10932  0.76054  0.34332  1.0000
  C   C109      1.0  0.87999  0.67048  0.31909  1.0000
  C   C110      1.0  0.86007  0.67057  0.32131  1.0000
  C   C111      1.0  0.84260  0.64853  0.32378  1.0000
  N   N25       1.0  0.85268  0.63601  0.32344  1.0000
  C   C112      1.0  0.87529  0.64840  0.32094  1.0000
  C   C113      1.0  0.89158  0.64154  0.32053  1.0000
  C   C114      1.0  0.88644  0.61891  0.32290  1.0000
  N   N26       1.0  0.86614  0.60029  0.32213  1.0000
  C   C115      1.0  0.86753  0.58151  0.32523  1.0000
  C   C116      1.0  0.89020  0.58849  0.32824  1.0000
  C   C117      1.0  0.90182  0.61148  0.32694  1.0000
  C   C118      1.0  0.84987  0.55906  0.32499  1.0000
  C   C119      1.0  0.82684  0.55240  0.32299  1.0000
  N   N27       1.0  0.81691  0.56500  0.32414  1.0000
  C   C120      1.0  0.79436  0.55254  0.32306  1.0000
  C   C121      1.0  0.78956  0.53042  0.32003  1.0000
  C   C122      1.0  0.80941  0.53034  0.32024  1.0000
  C   C123      1.0  0.77810  0.55934  0.32505  1.0000
  C   C124      1.0  0.78309  0.58186  0.32617  1.0000
  N   N28       1.0  0.80335  0.60054  0.32485  1.0000
  C   C125      1.0  0.80187  0.61926  0.32688  1.0000
  C   C126      1.0  0.77908  0.61202  0.32920  1.0000
  C   C127      1.0  0.76754  0.58903  0.32893  1.0000
  C   C128      1.0  0.81950  0.64182  0.32643  1.0000
  C   C129      1.0  0.81315  0.65858  0.32988  1.0000
  C   C130      1.0  0.79333  0.68627  0.33652  1.0000
  C   C131      1.0  0.79934  0.68074  0.25343  1.0000
  C   C132      1.0  0.80901  0.66703  0.25015  1.0000
  C   C133      1.0  0.75523  0.54224  0.32713  1.0000
  C   C134      1.0  0.71137  0.50446  0.32932  1.0000
  C   C135      1.0  0.72130  0.51551  0.24797  1.0000
  C   C136      1.0  0.74302  0.53406  0.24660  1.0000
  C   C137      1.0  0.85544  0.54183  0.32785  1.0000
  C   C138      1.0  0.85729  0.53193  0.24766  1.0000
  C   C139      1.0  0.85986  0.51303  0.25076  1.0000
  C   C140      1.0  0.86062  0.50357  0.33409  1.0000
  C   C141      1.0  0.91477  0.65818  0.31808  1.0000
  C   C142      1.0  0.92732  0.66214  0.23820  1.0000
  C   C143      1.0  0.96235  0.68593  0.31854  1.0000
  C   C144      1.0  0.95071  0.67572  0.23866  1.0000
  H   H55       1.0  0.95931  0.67765  0.18018  1.0000
  H   H56       1.0  0.91957  0.65434  0.17973  1.0000
  H   H57       1.0  0.89537  0.68448  0.31712  1.0000
  H   H58       1.0  0.85879  0.68463  0.32079  1.0000
  H   H59       1.0  0.84464  0.62002  0.32596  1.0000
  H   H60       1.0  0.82495  0.58097  0.32791  1.0000
  H   H61       1.0  0.91879  0.62098  0.32941  1.0000
  H   H62       1.0  0.89734  0.57869  0.33126  1.0000
  H   H63       1.0  0.85592  0.53791  0.18650  1.0000
  H   H64       1.0  0.86036  0.50579  0.19160  1.0000
  H   H65       1.0  0.81057  0.51621  0.31889  1.0000
  H   H66       1.0  0.77422  0.51637  0.31847  1.0000
  H   H67       1.0  0.77175  0.62165  0.33082  1.0000
  H   H68       1.0  0.75057  0.57935  0.33048  1.0000
  H   H69       1.0  0.75009  0.54116  0.18618  1.0000
  H   H70       1.0  0.71303  0.50964  0.18837  1.0000
  H   H71       1.0  0.81217  0.66247  0.18883  1.0000
  H   H72       1.0  0.79595  0.68592  0.19427  1.0000
  N   N29       1.0  0.69117  0.48637  0.32467  1.0000
  N   N30       1.0  0.86149  0.48489  0.34254  1.0000
  N   N31       1.0  0.98468  0.69728  0.31505  1.0000
  N   N32       1.0  0.78282  0.69796  0.34536  1.0000
  C   C145      1.0  0.40073  0.21160  0.31989  1.0000
  C   C146      1.0  0.40065  0.19159  0.32190  1.0000
  C   C147      1.0  0.42269  0.19616  0.32426  1.0000
  N   N33       1.0  0.43521  0.21877  0.32402  1.0000
  C   C148      1.0  0.42282  0.22898  0.32166  1.0000
  C   C149      1.0  0.42968  0.25214  0.32133  1.0000
  C   C150      1.0  0.45230  0.26962  0.32380  1.0000
  N   N34       1.0  0.47092  0.26795  0.32303  1.0000
  C   C151      1.0  0.48970  0.28811  0.32629  1.0000
  C   C152      1.0  0.48271  0.30380  0.32943  1.0000
  C   C153      1.0  0.45972  0.29243  0.32798  1.0000
  C   C154      1.0  0.51216  0.29291  0.32606  1.0000
  C   C155      1.0  0.51881  0.27654  0.32389  1.0000
  N   N35       1.0  0.50621  0.25401  0.32497  1.0000
  C   C156      1.0  0.51868  0.24393  0.32377  1.0000
  C   C157      1.0  0.54080  0.26125  0.32061  1.0000
  C   C158      1.0  0.54088  0.28117  0.32098  1.0000
  C   C159      1.0  0.51188  0.22086  0.32572  1.0000
  C   C160      1.0  0.48936  0.20333  0.32671  1.0000
  N   N36       1.0  0.47068  0.20492  0.32539  1.0000
  C   C161      1.0  0.45196  0.18471  0.32724  1.0000
  C   C162      1.0  0.45920  0.16916  0.32941  1.0000
  C   C163      1.0  0.48219  0.18061  0.32928  1.0000
  C   C164      1.0  0.42939  0.17977  0.32674  1.0000
  C   C165      1.0  0.41264  0.15666  0.33017  1.0000
  C   C166      1.0  0.38496  0.10914  0.33634  1.0000
  C   C167      1.0  0.39041  0.12074  0.25342  1.0000
  C   C168      1.0  0.40416  0.14413  0.25036  1.0000
  C   C169      1.0  0.52899  0.21510  0.32772  1.0000
  C   C170      1.0  0.56676  0.20902  0.32971  1.0000
  C   C171      1.0  0.55574  0.20788  0.24842  1.0000
  C   C172      1.0  0.53718  0.21104  0.24715  1.0000
  C   C173      1.0  0.52938  0.31571  0.32904  1.0000
  C   C174      1.0  0.53930  0.32748  0.24887  1.0000
  C   C175      1.0  0.55820  0.34895  0.25200  1.0000
  C   C176      1.0  0.56764  0.35915  0.33533  1.0000
  C   C177      1.0  0.41304  0.25868  0.31894  1.0000
  C   C178      1.0  0.40913  0.26728  0.23908  1.0000
  C   C179      1.0  0.38528  0.27850  0.31950  1.0000
  C   C180      1.0  0.39554  0.27708  0.23960  1.0000
  H   H73       1.0  0.39366  0.28377  0.18117  1.0000
  H   H74       1.0  0.41697  0.26734  0.18062  1.0000
  H   H75       1.0  0.38673  0.21297  0.31792  1.0000
  H   H76       1.0  0.38659  0.17625  0.32139  1.0000
  H   H77       1.0  0.45120  0.22671  0.32623  1.0000
  H   H78       1.0  0.49025  0.24608  0.32918  1.0000
  H   H79       1.0  0.45022  0.29989  0.33057  1.0000
  H   H80       1.0  0.49251  0.32074  0.33259  1.0000
  H   H81       1.0  0.53337  0.32014  0.18769  1.0000
  H   H82       1.0  0.56548  0.35669  0.19284  1.0000
  H   H83       1.0  0.55500  0.29646  0.31958  1.0000
  H   H84       1.0  0.55485  0.25996  0.31897  1.0000
  H   H85       1.0  0.44958  0.15219  0.33083  1.0000
  H   H86       1.0  0.49187  0.17333  0.33074  1.0000
  H   H87       1.0  0.53009  0.21098  0.18677  1.0000
  H   H88       1.0  0.56161  0.20544  0.18881  1.0000
  H   H89       1.0  0.40864  0.15188  0.18911  1.0000
  H   H90       1.0  0.38520  0.11221  0.19419  1.0000
  N   N37       1.0  0.58486  0.20691  0.32498  1.0000
  N   N38       1.0  0.58631  0.37870  0.34379  1.0000
  N   N39       1.0  0.37393  0.28948  0.31607  1.0000
  N   N40       1.0  0.37327  0.08694  0.34493  1.0000
  C   C181      1.0  0.85962  0.19122  0.31911  1.0000
  C   C182      1.0  0.87962  0.21115  0.32108  1.0000
  C   C183      1.0  0.87505  0.22861  0.32327  1.0000
  N   N41       1.0  0.85244  0.21853  0.32300  1.0000
  C   C184      1.0  0.84223  0.19591  0.32076  1.0000
  C   C185      1.0  0.81907  0.17962  0.32040  1.0000
  C   C186      1.0  0.80159  0.18476  0.32274  1.0000
  N   N42       1.0  0.80326  0.20506  0.32194  1.0000
  C   C187      1.0  0.78309  0.20366  0.32504  1.0000
  C   C188      1.0  0.76740  0.18099  0.32807  1.0000
  C   C189      1.0  0.77877  0.16937  0.32684  1.0000
  C   C190      1.0  0.77829  0.22132  0.32479  1.0000
  C   C191      1.0  0.79466  0.24435  0.32271  1.0000
  N   N43       1.0  0.81719  0.25429  0.32360  1.0000
  C   C192      1.0  0.82727  0.27684  0.32245  1.0000
  C   C193      1.0  0.80995  0.28163  0.31978  1.0000
  C   C194      1.0  0.79002  0.26179  0.32022  1.0000
  C   C195      1.0  0.85034  0.29310  0.32411  1.0000
  C   C196      1.0  0.86787  0.28812  0.32510  1.0000
  N   N44       1.0  0.86629  0.26785  0.32399  1.0000
  C   C197      1.0  0.88650  0.26934  0.32585  1.0000
  C   C198      1.0  0.90204  0.29213  0.32785  1.0000
  C   C199      1.0  0.89059  0.30367  0.32755  1.0000
  C   C200      1.0  0.89143  0.25171  0.32556  1.0000
  C   C201      1.0  0.91454  0.25807  0.32906  1.0000
  C   C202      1.0  0.96204  0.27788  0.33554  1.0000
  C   C203      1.0  0.95053  0.27185  0.25250  1.0000
  C   C204      1.0  0.92715  0.26219  0.24929  1.0000
  C   C205      1.0  0.85610  0.31597  0.32606  1.0000
  C   C206      1.0  0.86217  0.35982  0.32813  1.0000
  C   C207      1.0  0.86327  0.34991  0.24677  1.0000
  C   C208      1.0  0.86012  0.32820  0.24546  1.0000
  C   C209      1.0  0.75549  0.21574  0.32789  1.0000
  C   C210      1.0  0.74377  0.21397  0.24782  1.0000
  C   C211      1.0  0.72229  0.21138  0.25114  1.0000
  C   C212      1.0  0.71204  0.21054  0.33457  1.0000
  C   C213      1.0  0.81253  0.15644  0.31815  1.0000
  C   C214      1.0  0.80403  0.14391  0.23830  1.0000
  C   C215      1.0  0.79275  0.10887  0.31893  1.0000
  C   C216      1.0  0.79420  0.12052  0.23898  1.0000
  H   H91       1.0  0.78758  0.11194  0.18055  1.0000
  H   H92       1.0  0.80399  0.15167  0.17980  1.0000
  H   H93       1.0  0.85824  0.17584  0.31723  1.0000
  H   H94       1.0  0.89496  0.21243  0.32056  1.0000
  H   H95       1.0  0.84449  0.22657  0.32509  1.0000
  H   H96       1.0  0.82513  0.24625  0.32689  1.0000
  H   H97       1.0  0.77131  0.15240  0.32926  1.0000
  H   H98       1.0  0.75046  0.17384  0.33111  1.0000
  H   H99       1.0  0.75115  0.21544  0.18659  1.0000
  H   H100      1.0  0.71459  0.21099  0.19207  1.0000
  H   H101      1.0  0.77474  0.26062  0.31908  1.0000
  H   H102      1.0  0.81123  0.29697  0.31828  1.0000
  H   H103      1.0  0.91900  0.29947  0.32928  1.0000
  H   H104      1.0  0.89787  0.32063  0.32890  1.0000
  H   H105      1.0  0.86014  0.32113  0.18506  1.0000
  H   H106      1.0  0.86568  0.35820  0.18715  1.0000
  H   H107      1.0  0.91946  0.25899  0.18799  1.0000
  H   H108      1.0  0.95913  0.27520  0.19333  1.0000
  N   N45       1.0  0.86429  0.38003  0.32346  1.0000
  N   N46       1.0  0.69250  0.20969  0.34323  1.0000
  N   N47       1.0  0.78174  0.08653  0.31563  1.0000
  N   N48       1.0  0.98423  0.28836  0.34430  1.0000
  C   C217      1.0  0.22774  0.59494  0.31352  1.0000
  C   C218      1.0  0.23531  0.61219  0.24904  1.0000
  C   C219      1.0  0.23730  0.63285  0.26997  1.0000
  H   H109      1.0  0.24338  0.64500  0.22156  1.0000
  H   H110      1.0  0.23989  0.61005  0.18592  1.0000
  C   C220      1.0  0.22637  0.57494  0.28766  1.0000
  H   H111      1.0  0.22150  0.56943  0.22543  1.0000
  C   C221      1.0  0.47627  0.63489  0.31475  1.0000
  C   C222      1.0  0.45906  0.62521  0.25025  1.0000
  C   C223      1.0  0.43839  0.60656  0.27116  1.0000
  H   H112      1.0  0.42628  0.60047  0.22272  1.0000
  H   H113      1.0  0.46126  0.63192  0.18710  1.0000
  C   C224      1.0  0.49629  0.65352  0.28890  1.0000
  H   H114      1.0  0.50185  0.65414  0.22671  1.0000
  C   C225      1.0  0.43632  0.84347  0.31445  1.0000
  C   C226      1.0  0.44610  0.83598  0.25003  1.0000
  C   C227      1.0  0.46472  0.83395  0.27112  1.0000
  H   H115      1.0  0.47088  0.82796  0.22271  1.0000
  H   H116      1.0  0.43948  0.83151  0.18678  1.0000
  C   C228      1.0  0.41773  0.84487  0.28841  1.0000
  H   H117      1.0  0.41721  0.84987  0.22626  1.0000
  C   C229      1.0  0.86579  0.45392  0.31538  1.0000
  C   C230      1.0  0.85828  0.43670  0.25089  1.0000
  C   C231      1.0  0.85626  0.41603  0.27183  1.0000
  H   H118      1.0  0.85022  0.40390  0.22343  1.0000
  H   H119      1.0  0.85376  0.43887  0.18777  1.0000
  C   C232      1.0  0.86719  0.47394  0.28951  1.0000
  H   H120      1.0  0.87213  0.47947  0.22729  1.0000
  C   C233      1.0  0.63454  0.42369  0.25213  1.0000
  C   C234      1.0  0.65520  0.44233  0.27304  1.0000
  H   H121      1.0  0.66736  0.44842  0.22461  1.0000
  H   H122      1.0  0.63241  0.41699  0.18900  1.0000
  C   C235      1.0  0.59728  0.39537  0.29078  1.0000
  H   H123      1.0  0.59178  0.39477  0.22859  1.0000
  C   C236      1.0  0.64752  0.21290  0.25192  1.0000
  C   C237      1.0  0.62888  0.21493  0.27299  1.0000
  H   H124      1.0  0.62277  0.22094  0.22456  1.0000
  H   H125      1.0  0.65419  0.21739  0.18868  1.0000
  C   C238      1.0  0.67584  0.20398  0.29037  1.0000
  H   H126      1.0  0.67643  0.19902  0.22820  1.0000
  C   C239      1.0  0.02342  0.30463  0.31736  1.0000
  C   C240      1.0  0.03945  0.31328  0.24729  1.0000
  C   C241      1.0  0.06246  0.32409  0.26423  1.0000
  H   H127      1.0  0.07308  0.32949  0.21028  1.0000
  H   H128      1.0  0.03451  0.31151  0.18145  1.0000
  C   C242      1.0  0.00079  0.29295  0.29189  1.0000
  H   H129      1.0  0.99719  0.28775  0.22863  1.0000
  C   C243      1.0  0.76653  0.72085  0.31845  1.0000
  C   C244      1.0  0.75795  0.72825  0.24839  1.0000
  C   C245      1.0  0.74713  0.74044  0.26534  1.0000
  H   H130      1.0  0.74181  0.74571  0.21139  1.0000
  H   H131      1.0  0.75979  0.72511  0.18254  1.0000
  C   C246      1.0  0.77824  0.70991  0.29295  1.0000
  H   H132      1.0  0.78347  0.71150  0.22968  1.0000
  C   C247      1.0  0.35026  0.04780  0.31780  1.0000
  C   C248      1.0  0.34301  0.03187  0.24757  1.0000
  C   C249      1.0  0.33082  0.00884  0.26428  1.0000
  H   H133      1.0  0.32566  0.99828  0.21023  1.0000
  H   H134      1.0  0.34624  0.03690  0.18179  1.0000
  C   C250      1.0  0.36115  0.07046  0.29259  1.0000
  H   H135      1.0  0.35938  0.07414  0.22965  1.0000
  C   C251      1.0  0.07013  0.74420  0.31663  1.0000
  C   C252      1.0  0.05412  0.73556  0.24671  1.0000
  C   C253      1.0  0.03111  0.72476  0.26386  1.0000
  H   H136      1.0  0.02050  0.71937  0.21001  1.0000
  H   H137      1.0  0.05908  0.73734  0.18083  1.0000
  C   C254      1.0  0.09277  0.75585  0.29094  1.0000
  H   H138      1.0  0.09639  0.76096  0.22753  1.0000
  C   C255      1.0  0.32701  0.32800  0.31780  1.0000
  C   C256      1.0  0.33569  0.32064  0.24786  1.0000
  C   C257      1.0  0.34648  0.30843  0.26497  1.0000
  H   H139      1.0  0.35191  0.30321  0.21110  1.0000
  H   H140      1.0  0.33395  0.32382  0.18198  1.0000
  C   C258      1.0  0.31536  0.33898  0.29215  1.0000
  H   H141      1.0  0.31024  0.33744  0.22880  1.0000
  C   C259      1.0  0.74320  0.00109  0.31794  1.0000
  C   C260      1.0  0.75061  0.01710  0.24788  1.0000
  C   C261      1.0  0.76281  0.04011  0.26482  1.0000
  H   H142      1.0  0.76808  0.05072  0.21087  1.0000
  H   H143      1.0  0.74748  0.01214  0.18203  1.0000
  C   C262      1.0  0.73226  0.97845  0.29246  1.0000
  H   H144      1.0  0.73385  0.97484  0.22918  1.0000
  C   C263      1.0  0.28597  0.38445  0.41182  1.0000
  C   C264      1.0  0.29571  0.37083  0.41499  1.0000
  C   C265      1.0  0.34833  0.51720  0.40716  1.0000
  C   C266      1.0  0.37000  0.53580  0.40824  1.0000
  C   C267      1.0  0.23454  0.53522  0.41221  1.0000
  C   C268      1.0  0.23708  0.51631  0.40936  1.0000
  C   C269      1.0  0.16720  0.38038  0.39742  1.0000
  C   C270      1.0  0.14381  0.36666  0.39779  1.0000
  H   H145      1.0  0.13599  0.36026  0.45777  1.0000
  H   H146      1.0  0.17565  0.38356  0.45695  1.0000
  H   H147      1.0  0.23894  0.50981  0.46836  1.0000
  H   H148      1.0  0.23439  0.54191  0.47342  1.0000
  H   H149      1.0  0.33966  0.51181  0.46631  1.0000
  H   H150      1.0  0.37664  0.54317  0.46857  1.0000
  H   H151      1.0  0.30010  0.36746  0.47620  1.0000
  H   H152      1.0  0.28383  0.39086  0.47056  1.0000
  C   C271      1.0  0.68668  0.90365  0.41258  1.0000
  C   C272      1.0  0.70028  0.92701  0.41559  1.0000
  C   C273      1.0  0.55394  0.83326  0.40788  1.0000
  C   C274      1.0  0.53534  0.83632  0.40881  1.0000
  C   C275      1.0  0.53599  0.70138  0.41344  1.0000
  C   C276      1.0  0.55490  0.72282  0.41059  1.0000
  C   C277      1.0  0.69077  0.78890  0.39866  1.0000
  C   C278      1.0  0.70448  0.77923  0.39901  1.0000
  H   H153      1.0  0.71083  0.77780  0.45899  1.0000
  H   H154      1.0  0.68752  0.79414  0.45822  1.0000
  H   H155      1.0  0.56137  0.73117  0.46961  1.0000
  H   H156      1.0  0.52929  0.69453  0.47466  1.0000
  H   H157      1.0  0.55928  0.82999  0.46708  1.0000
  H   H158      1.0  0.52792  0.83562  0.46909  1.0000
  H   H159      1.0  0.70362  0.93480  0.47675  1.0000
  H   H160      1.0  0.68020  0.89512  0.47134  1.0000
  C   C279      1.0  0.16755  0.78520  0.41065  1.0000
  C   C280      1.0  0.14419  0.77546  0.41381  1.0000
  C   C281      1.0  0.23787  0.72279  0.40607  1.0000
  C   C282      1.0  0.23477  0.70111  0.40711  1.0000
  C   C283      1.0  0.36971  0.83666  0.41235  1.0000
  C   C284      1.0  0.34826  0.83412  0.40924  1.0000
  C   C285      1.0  0.28223  0.90395  0.39688  1.0000
  C   C286      1.0  0.29193  0.92734  0.39736  1.0000
  H   H161      1.0  0.29327  0.93510  0.45734  1.0000
  H   H162      1.0  0.27694  0.89545  0.45638  1.0000
  H   H163      1.0  0.33983  0.83224  0.46816  1.0000
  H   H164      1.0  0.37646  0.83677  0.47365  1.0000
  H   H165      1.0  0.24104  0.73139  0.46526  1.0000
  H   H166      1.0  0.23541  0.69440  0.46744  1.0000
  H   H167      1.0  0.13639  0.77105  0.47503  1.0000
  H   H168      1.0  0.17606  0.78729  0.46939  1.0000
  C   C287      1.0  0.80749  0.66440  0.41295  1.0000
  C   C288      1.0  0.79775  0.67802  0.41602  1.0000
  C   C289      1.0  0.74514  0.53164  0.40903  1.0000
  C   C290      1.0  0.72347  0.51304  0.41012  1.0000
  C   C291      1.0  0.85896  0.51364  0.41398  1.0000
  C   C292      1.0  0.85643  0.53256  0.41111  1.0000
  C   C293      1.0  0.92633  0.66848  0.39809  1.0000
  C   C294      1.0  0.94972  0.68220  0.39824  1.0000
  H   H169      1.0  0.95752  0.68862  0.45812  1.0000
  H   H170      1.0  0.91786  0.66532  0.45767  1.0000
  H   H171      1.0  0.85450  0.53902  0.47010  1.0000
  H   H172      1.0  0.85904  0.50693  0.47520  1.0000
  H   H173      1.0  0.75375  0.53702  0.46818  1.0000
  H   H174      1.0  0.71677  0.50565  0.47045  1.0000
  H   H175      1.0  0.79330  0.68137  0.47720  1.0000
  H   H176      1.0  0.80957  0.65797  0.47173  1.0000
  C   C295      1.0  0.40687  0.14512  0.41309  1.0000
  C   C296      1.0  0.39326  0.12175  0.41593  1.0000
  C   C297      1.0  0.53957  0.21564  0.40955  1.0000
  C   C298      1.0  0.55816  0.21257  0.41055  1.0000
  C   C299      1.0  0.55754  0.34739  0.41521  1.0000
  C   C300      1.0  0.53863  0.32595  0.41230  1.0000
  C   C301      1.0  0.40265  0.25989  0.39895  1.0000
  C   C302      1.0  0.38894  0.26957  0.39915  1.0000
  H   H177      1.0  0.38249  0.27094  0.45904  1.0000
  H   H178      1.0  0.40578  0.25459  0.45853  1.0000
  H   H179      1.0  0.53212  0.31755  0.47127  1.0000
  H   H180      1.0  0.56421  0.35418  0.47644  1.0000
  H   H181      1.0  0.53418  0.21890  0.46871  1.0000
  H   H182      1.0  0.56554  0.21328  0.47084  1.0000
  H   H183      1.0  0.38994  0.11390  0.47699  1.0000
  H   H184      1.0  0.41333  0.15358  0.47189  1.0000
  C   C303      1.0  0.92597  0.26372  0.41209  1.0000
  C   C304      1.0  0.94934  0.27348  0.41506  1.0000
  C   C305      1.0  0.85561  0.32605  0.40796  1.0000
  C   C306      1.0  0.85867  0.34771  0.40899  1.0000
  C   C307      1.0  0.72376  0.21213  0.41434  1.0000
  C   C308      1.0  0.74520  0.21467  0.41125  1.0000
  C   C309      1.0  0.81125  0.14487  0.39826  1.0000
  C   C310      1.0  0.80158  0.12148  0.39857  1.0000
  H   H185      1.0  0.80014  0.11367  0.45851  1.0000
  H   H186      1.0  0.81649  0.15332  0.45782  1.0000
  H   H187      1.0  0.75357  0.21653  0.47017  1.0000
  H   H188      1.0  0.71693  0.21198  0.47564  1.0000
  H   H189      1.0  0.85237  0.31742  0.46714  1.0000
  H   H190      1.0  0.85799  0.35440  0.46931  1.0000
  H   H191      1.0  0.95712  0.27791  0.47621  1.0000
  H   H192      1.0  0.91745  0.26166  0.47085  1.0000
  C   C311      1.0  0.23163  0.63704  0.35614  1.0000
  C   C312      1.0  0.22369  0.61975  0.42198  1.0000
  C   C313      1.0  0.22164  0.59873  0.40045  1.0000
  N   N49       1.0  0.21717  0.62214  0.50991  1.0000
  N   N50       1.0  0.21348  0.58103  0.46377  1.0000
  O   O1        1.0  0.20176  0.62669  0.50977  1.0000
  O   O2        1.0  0.22573  0.58585  0.53195  1.0000
  O   O3        1.0  0.23319  0.63610  0.55645  1.0000
  O   O4        1.0  0.19378  0.57460  0.48751  1.0000
  C   C314      1.0  0.23507  0.65817  0.37567  1.0000
  H   H193      1.0  0.24294  0.66541  0.43219  1.0000
  C   C315      1.0  0.43413  0.59670  0.35735  1.0000
  C   C316      1.0  0.45137  0.60605  0.42321  1.0000
  C   C317      1.0  0.47241  0.62502  0.40169  1.0000
  N   N51       1.0  0.44891  0.59715  0.51114  1.0000
  N   N52       1.0  0.49006  0.63455  0.46505  1.0000
  O   O5        1.0  0.44436  0.57718  0.51102  1.0000
  O   O6        1.0  0.48520  0.64199  0.53320  1.0000
  O   O7        1.0  0.43491  0.59921  0.55764  1.0000
  O   O8        1.0  0.49647  0.62128  0.48883  1.0000
  C   C318      1.0  0.41299  0.57902  0.37686  1.0000
  H   H194      1.0  0.40569  0.57967  0.43327  1.0000
  C   C319      1.0  0.47446  0.83951  0.35743  1.0000
  C   C320      1.0  0.46501  0.84735  0.42324  1.0000
  C   C321      1.0  0.44607  0.84943  0.40154  1.0000
  N   N53       1.0  0.47378  0.85374  0.51130  1.0000
  N   N54       1.0  0.43644  0.85751  0.46483  1.0000
  O   O9        1.0  0.49375  0.86916  0.51150  1.0000
  O   O10       1.0  0.42890  0.84516  0.53284  1.0000
  O   O11       1.0  0.47166  0.83766  0.55769  1.0000
  O   O12       1.0  0.44967  0.87717  0.48886  1.0000
  C   C322      1.0  0.49213  0.83605  0.37710  1.0000
  H   H195      1.0  0.49142  0.82810  0.43353  1.0000
  C   C323      1.0  0.86185  0.41180  0.35801  1.0000
  C   C324      1.0  0.86973  0.42907  0.42385  1.0000
  C   C325      1.0  0.87180  0.45009  0.40231  1.0000
  N   N55       1.0  0.87616  0.42663  0.51179  1.0000
  N   N56       1.0  0.87991  0.46777  0.46564  1.0000
  O   O13       1.0  0.89157  0.42208  0.51167  1.0000
  O   O14       1.0  0.86761  0.46293  0.53381  1.0000
  O   O15       1.0  0.86010  0.41265  0.55830  1.0000
  O   O16       1.0  0.89959  0.47418  0.48939  1.0000
  C   C326      1.0  0.85839  0.39067  0.37755  1.0000
  H   H196      1.0  0.85044  0.38339  0.43400  1.0000
  C   C327      1.0  0.61728  0.41398  0.31663  1.0000
  C   C328      1.0  0.65938  0.45215  0.35922  1.0000
  C   C329      1.0  0.64208  0.44277  0.42509  1.0000
  C   C330      1.0  0.62106  0.42382  0.40357  1.0000
  N   N57       1.0  0.64447  0.45165  0.51302  1.0000
  N   N58       1.0  0.60335  0.41426  0.46692  1.0000
  O   O17       1.0  0.64903  0.47161  0.51290  1.0000
  O   O18       1.0  0.60815  0.40679  0.53507  1.0000
  O   O19       1.0  0.65842  0.44956  0.55951  1.0000
  O   O20       1.0  0.59693  0.42752  0.49070  1.0000
  C   C331      1.0  0.68051  0.46982  0.37872  1.0000
  H   H197      1.0  0.68776  0.46916  0.43518  1.0000
  C   C332      1.0  0.65723  0.20539  0.31638  1.0000
  C   C333      1.0  0.61907  0.20936  0.35930  1.0000
  C   C334      1.0  0.62846  0.20148  0.42514  1.0000
  C   C335      1.0  0.64740  0.19940  0.40347  1.0000
  N   N59       1.0  0.61960  0.19506  0.51320  1.0000
  N   N60       1.0  0.65697  0.19130  0.46678  1.0000
  O   O21       1.0  0.59963  0.17965  0.51338  1.0000
  O   O22       1.0  0.66445  0.20362  0.53478  1.0000
  O   O23       1.0  0.62168  0.21113  0.55955  1.0000
  O   O24       1.0  0.64371  0.17163  0.49083  1.0000
  C   C336      1.0  0.60139  0.21281  0.37893  1.0000
  H   H198      1.0  0.60205  0.22075  0.43533  1.0000
  C   C337      1.0  0.07085  0.32694  0.35265  1.0000
  C   C338      1.0  0.05506  0.31874  0.42474  1.0000
  C   C339      1.0  0.03169  0.30776  0.40748  1.0000
  N   N61       1.0  0.06147  0.32108  0.51666  1.0000
  N   N62       1.0  0.01783  0.29995  0.48473  1.0000
  O   O25       1.0  0.07372  0.34100  0.54009  1.0000
  O   O26       1.0  0.00538  0.27917  0.48691  1.0000
  O   O27       1.0  0.07015  0.30958  0.53787  1.0000
  O   O28       1.0  0.00717  0.30990  0.49883  1.0000
  C   C340      1.0  0.09388  0.33682  0.36719  1.0000
  H   H199      1.0  0.09902  0.33208  0.42050  1.0000
  C   C341      1.0  0.74422  0.74598  0.35378  1.0000
  C   C342      1.0  0.75235  0.73837  0.42585  1.0000
  C   C343      1.0  0.76333  0.72597  0.40858  1.0000
  N   N63       1.0  0.74995  0.74243  0.51777  1.0000
  N   N64       1.0  0.77107  0.71990  0.48582  1.0000
  O   O29       1.0  0.73000  0.73478  0.54115  1.0000
  O   O30       1.0  0.79185  0.72824  0.48810  1.0000
  O   O31       1.0  0.76143  0.76260  0.53906  1.0000
  O   O32       1.0  0.76111  0.69927  0.49980  1.0000
  C   C344      1.0  0.73436  0.75916  0.36832  1.0000
  H   H200      1.0  0.73909  0.76905  0.42159  1.0000
  C   C345      1.0  0.32514  0.00033  0.35261  1.0000
  C   C346      1.0  0.33261  0.01603  0.42485  1.0000
  C   C347      1.0  0.34499  0.03943  0.40782  1.0000
  N   N65       1.0  0.32842  0.00952  0.51670  1.0000
  N   N66       1.0  0.35091  0.05320  0.48517  1.0000
  O   O33       1.0  0.33607  0.99724  0.54013  1.0000
  O   O34       1.0  0.34258  0.06566  0.48714  1.0000
  O   O35       1.0  0.30821  0.00079  0.53770  1.0000
  O   O36       1.0  0.37150  0.06384  0.49963  1.0000
  C   C348      1.0  0.31197  0.97728  0.36691  1.0000
  H   H201      1.0  0.30201  0.97209  0.42007  1.0000
  C   C349      1.0  0.02269  0.72191  0.35235  1.0000
  C   C350      1.0  0.03845  0.73010  0.42430  1.0000
  C   C351      1.0  0.06183  0.74107  0.40683  1.0000
  N   N67       1.0  0.03202  0.72774  0.51627  1.0000
  N   N68       1.0  0.07567  0.74884  0.48397  1.0000
  O   O37       1.0  0.01974  0.70781  0.53980  1.0000
  O   O38       1.0  0.08810  0.76962  0.48615  1.0000
  O   O39       1.0  0.02333  0.73924  0.53758  1.0000
  O   O40       1.0  0.08632  0.73887  0.49788  1.0000
  C   C352      1.0  0.99965  0.71204  0.36710  1.0000
  H   H202      1.0  0.99451  0.71680  0.42040  1.0000
  C   C353      1.0  0.34928  0.30286  0.35345  1.0000
  C   C354      1.0  0.34105  0.31043  0.42542  1.0000
  C   C355      1.0  0.33009  0.32284  0.40798  1.0000
  N   N69       1.0  0.34333  0.30634  0.51738  1.0000
  N   N70       1.0  0.32224  0.32888  0.48513  1.0000
  O   O41       1.0  0.36325  0.31399  0.54093  1.0000
  O   O42       1.0  0.30146  0.32054  0.48724  1.0000
  O   O43       1.0  0.33182  0.28616  0.53865  1.0000
  O   O44       1.0  0.33219  0.34950  0.49913  1.0000
  C   C356      1.0  0.35914  0.28969  0.36816  1.0000
  H   H203      1.0  0.35436  0.27979  0.42146  1.0000
  C   C357      1.0  0.76833  0.04852  0.35325  1.0000
  C   C358      1.0  0.76071  0.03275  0.42533  1.0000
  C   C359      1.0  0.74832  0.00937  0.40807  1.0000
  N   N71       1.0  0.76476  0.03918  0.51725  1.0000
  N   N72       1.0  0.74223  0.99553  0.48532  1.0000
  O   O45       1.0  0.75710  0.05146  0.54063  1.0000
  O   O46       1.0  0.75056  0.98308  0.48757  1.0000
  O   O47       1.0  0.78493  0.04785  0.53850  1.0000
  O   O48       1.0  0.72160  0.98487  0.49934  1.0000
  C   C360      1.0  0.78151  0.07155  0.36777  1.0000
  H   H204      1.0  0.79141  0.07669  0.42099  1.0000
