data_image0
_chemical_formula_structural       C2NCNO2C2NCNO2C2NCNO2NCHNCHNCHC2NCNO2C2NCNO2C2NCNO2C2NCNO2C2NCNO2C2NCNO2NCHNCHNCHNCHNCHNCHC2NCNO2C2NCNO2C2NCNO2C2NCNO2C2NCNO2C2NCNO2C6H3C6H3C6H3C6H3C6H3C6H3C6H3C6H3C6H3C6H3C6H3C6H3C6H3C6H3C6H3C6H3NCHNCHNCHC2NCNO2C2NCNO2C2NCNO2NCHNCHNCHNCHNCHNCHC2NCNO2C2NCNO2C2NCNO2C2NCNO2C2NCNO2C2NCNO2NCHNCHNCHNCHNCHNCH
_chemical_formula_sum              "C192 N72 O48 H72"
_cell_length_a       41.9597
_cell_length_b       41.9597
_cell_length_c       14.8637
_cell_angle_alpha    90
_cell_angle_beta     90
_cell_angle_gamma    120

_space_group_name_H-M_alt    "P 1"
_space_group_IT_number       1

loop_
  _space_group_symop_operation_xyz
  'x, y, z'

loop_
  _atom_site_type_symbol
  _atom_site_label
  _atom_site_symmetry_multiplicity
  _atom_site_fract_x
  _atom_site_fract_y
  _atom_site_fract_z
  _atom_site_occupancy
  C   C1        1.0  0.00525  0.14141  0.33558  1.0000
  C   C2        1.0  0.00825  0.07438  0.33981  1.0000
  N   N1        1.0  0.98079  0.07732  0.29873  1.0000
  C   C3        1.0  0.97784  0.10838  0.29387  1.0000
  N   N2        1.0  0.94882  0.10704  0.24314  1.0000
  O   O1        1.0  0.91830  0.08294  0.27404  1.0000
  O   O2        1.0  0.95079  0.09921  0.16255  1.0000
  C   C4        1.0  0.87006  0.86612  0.33559  1.0000
  C   C5        1.0  0.93709  0.93616  0.33978  1.0000
  N   N3        1.0  0.93415  0.90575  0.29877  1.0000
  C   C6        1.0  0.90309  0.87173  0.29393  1.0000
  N   N4        1.0  0.90443  0.84404  0.24327  1.0000
  O   O3        1.0  0.92853  0.83763  0.27423  1.0000
  O   O4        1.0  0.91228  0.85382  0.16267  1.0000
  C   C7        1.0  0.14534  0.00622  0.33561  1.0000
  C   C8        1.0  0.07531  0.00321  0.33980  1.0000
  N   N5        1.0  0.10572  0.03069  0.29878  1.0000
  C   C9        1.0  0.13973  0.03364  0.29393  1.0000
  N   N6        1.0  0.16743  0.06268  0.24331  1.0000
  O   O5        1.0  0.17384  0.09319  0.27428  1.0000
  O   O6        1.0  0.15765  0.06075  0.16270  1.0000
  N   N7        1.0  0.13068  0.33065  0.29236  1.0000
  C   C10       1.0  0.10501  0.29399  0.29124  1.0000
  H   H1        1.0  0.10675  0.27737  0.24361  1.0000
  N   N8        1.0  0.68081  0.80230  0.29228  1.0000
  C   C11       1.0  0.71746  0.81329  0.29117  1.0000
  H   H2        1.0  0.73408  0.83162  0.24350  1.0000
  N   N9        1.0  0.20913  0.88077  0.29233  1.0000
  C   C12       1.0  0.19809  0.90639  0.29133  1.0000
  H   H3        1.0  0.17988  0.90476  0.24340  1.0000
  C   C13       1.0  0.35975  0.12557  0.33902  1.0000
  C   C14       1.0  0.28438  0.07045  0.33529  1.0000
  N   N10       1.0  0.31000  0.06989  0.28018  1.0000
  C   C15       1.0  0.34641  0.09575  0.27744  1.0000
  N   N11       1.0  0.36941  0.09220  0.21388  1.0000
  O   O7        1.0  0.36830  0.06191  0.22357  1.0000
  O   O8        1.0  0.35887  0.09328  0.13547  1.0000
  C   C16       1.0  0.77497  0.65171  0.33904  1.0000
  C   C17       1.0  0.79527  0.72708  0.33530  1.0000
  N   N12       1.0  0.76908  0.70148  0.28020  1.0000
  C   C18       1.0  0.75851  0.66506  0.27747  1.0000
  N   N13       1.0  0.73195  0.64208  0.21391  1.0000
  O   O9        1.0  0.70278  0.64320  0.22361  1.0000
  O   O10       1.0  0.74358  0.65261  0.13550  1.0000
  C   C19       1.0  0.88590  0.23648  0.33907  1.0000
  C   C20       1.0  0.94096  0.21614  0.33521  1.0000
  N   N14       1.0  0.94154  0.24233  0.28013  1.0000
  C   C21       1.0  0.91571  0.25292  0.27745  1.0000
  N   N15       1.0  0.91927  0.27947  0.21388  1.0000
  O   O11       1.0  0.94956  0.30864  0.22353  1.0000
  O   O12       1.0  0.91815  0.26783  0.13547  1.0000
  C   C22       1.0  0.25960  0.45898  0.31959  1.0000
  C   C23       1.0  0.33619  0.49479  0.33566  1.0000
  N   N16       1.0  0.31984  0.50347  0.26887  1.0000
  C   C24       1.0  0.28269  0.48704  0.25803  1.0000
  N   N17       1.0  0.26799  0.49738  0.18575  1.0000
  O   O13       1.0  0.27878  0.53119  0.18923  1.0000
  O   O14       1.0  0.27845  0.49100  0.11221  1.0000
  C   C25       1.0  0.55251  0.80293  0.31943  1.0000
  C   C26       1.0  0.51668  0.84372  0.33558  1.0000
  N   N18       1.0  0.50796  0.81866  0.26886  1.0000
  C   C27       1.0  0.52440  0.79795  0.25800  1.0000
  N   N19       1.0  0.51401  0.77288  0.18578  1.0000
  O   O15       1.0  0.48020  0.74985  0.18942  1.0000
  O   O16       1.0  0.52031  0.78967  0.11219  1.0000
  C   C28       1.0  0.20855  0.75184  0.31974  1.0000
  C   C29       1.0  0.16772  0.67525  0.33561  1.0000
  N   N20       1.0  0.19283  0.69160  0.26900  1.0000
  C   C30       1.0  0.21356  0.72875  0.25825  1.0000
  N   N21       1.0  0.23867  0.74344  0.18610  1.0000
  O   O17       1.0  0.26168  0.73265  0.18979  1.0000
  O   O18       1.0  0.22191  0.73298  0.11246  1.0000
  N   N22       1.0  0.45217  0.27087  0.30215  1.0000
  C   C31       1.0  0.46734  0.30770  0.29127  1.0000
  H   H4        1.0  0.45910  0.31733  0.23820  1.0000
  N   N23       1.0  0.82778  0.55920  0.30195  1.0000
  C   C32       1.0  0.84943  0.54403  0.29115  1.0000
  H   H5        1.0  0.86718  0.55213  0.23784  1.0000
  N   N24       1.0  0.74059  0.18365  0.30208  1.0000
  C   C33       1.0  0.70377  0.16201  0.29127  1.0000
  H   H6        1.0  0.69412  0.14422  0.23803  1.0000
  N   N25       1.0  0.18130  0.51904  0.29190  1.0000
  C   C34       1.0  0.17624  0.54856  0.29190  1.0000
  H   H7        1.0  0.19140  0.57009  0.24945  1.0000
  N   N26       1.0  0.49241  0.66457  0.29192  1.0000
  C   C35       1.0  0.46288  0.62998  0.29194  1.0000
  H   H8        1.0  0.44135  0.62361  0.24950  1.0000
  N   N27       1.0  0.34690  0.83014  0.29200  1.0000
  C   C36       1.0  0.38148  0.83517  0.29214  1.0000
  H   H9        1.0  0.38787  0.82008  0.24950  1.0000
  C   C37       1.0  0.49170  0.15822  0.34905  1.0000
  C   C38       1.0  0.55135  0.14524  0.34033  1.0000
  N   N28       1.0  0.52101  0.12729  0.28710  1.0000
  C   C39       1.0  0.49150  0.13248  0.28714  1.0000
  N   N29       1.0  0.46262  0.11312  0.22536  1.0000
  O   O19       1.0  0.44894  0.07906  0.23616  1.0000
  O   O20       1.0  0.47441  0.12082  0.14612  1.0000
  C   C40       1.0  0.67569  0.51975  0.34901  1.0000
  C   C41       1.0  0.60304  0.46014  0.34041  1.0000
  N   N30       1.0  0.61543  0.49048  0.28718  1.0000
  C   C42       1.0  0.65014  0.51998  0.28719  1.0000
  N   N31       1.0  0.65965  0.54885  0.22542  1.0000
  O   O21       1.0  0.63927  0.56255  0.23627  1.0000
  O   O22       1.0  0.65553  0.53707  0.14618  1.0000
  C   C43       1.0  0.85325  0.33577  0.34906  1.0000
  C   C44       1.0  0.86623  0.40840  0.34035  1.0000
  N   N32       1.0  0.88419  0.39601  0.28714  1.0000
  C   C45       1.0  0.87901  0.36132  0.28719  1.0000
  N   N33       1.0  0.89836  0.35180  0.22541  1.0000
  O   O23       1.0  0.93243  0.37218  0.23621  1.0000
  O   O24       1.0  0.89067  0.35590  0.14616  1.0000
  C   C46       1.0  0.04502  0.56824  0.31556  1.0000
  C   C47       1.0  0.96899  0.53302  0.31879  1.0000
  N   N34       1.0  0.98712  0.52358  0.25853  1.0000
  C   C48       1.0  0.02425  0.54028  0.25185  1.0000
  N   N35       1.0  0.04102  0.52880  0.18659  1.0000
  O   O25       1.0  0.01958  0.49793  0.15222  1.0000
  O   O26       1.0  0.05275  0.55175  0.12350  1.0000
  C   C49       1.0  0.44318  0.47908  0.31571  1.0000
  C   C50       1.0  0.47846  0.43833  0.31901  1.0000
  N   N36       1.0  0.48787  0.46587  0.25869  1.0000
  C   C51       1.0  0.47116  0.48628  0.25201  1.0000
  N   N37       1.0  0.48260  0.51451  0.18668  1.0000
  O   O27       1.0  0.51350  0.52398  0.15241  1.0000
  O   O28       1.0  0.45967  0.50321  0.12356  1.0000
  C   C52       1.0  0.53237  0.96643  0.31589  1.0000
  C   C53       1.0  0.57316  0.04245  0.31904  1.0000
  N   N38       1.0  0.54561  0.02432  0.25872  1.0000
  C   C54       1.0  0.52517  0.98719  0.25213  1.0000
  N   N39       1.0  0.49696  0.97040  0.18678  1.0000
  O   O29       1.0  0.48743  0.99179  0.15262  1.0000
  O   O30       1.0  0.50830  0.95884  0.12358  1.0000
  C   C55       1.0  0.00782  0.03952  0.34058  1.0000
  C   C56       1.0  0.04066  0.03747  0.34031  1.0000
  C   C57       1.0  0.04089  0.00365  0.34059  1.0000
  C   C58       1.0  0.00599  0.97080  0.34030  1.0000
  C   C59       1.0  0.97194  0.97057  0.34057  1.0000
  C   C60       1.0  0.97400  0.00547  0.34031  1.0000
  H   H10       1.0  0.00530  0.94609  0.33923  1.0000
  H   H11       1.0  0.94998  0.00617  0.33923  1.0000
  H   H12       1.0  0.06537  0.06148  0.33926  1.0000
  C   C61       1.0  0.04148  0.24527  0.34298  1.0000
  C   C62       1.0  0.00775  0.24513  0.34046  1.0000
  C   C63       1.0  0.97319  0.21252  0.33894  1.0000
  C   C64       1.0  0.97299  0.17863  0.34091  1.0000
  C   C65       1.0  0.00590  0.17648  0.33769  1.0000
  C   C66       1.0  0.03990  0.21065  0.33930  1.0000
  H   H13       1.0  0.94802  0.15509  0.34416  1.0000
  H   H14       1.0  0.06419  0.21047  0.33942  1.0000
  H   H15       1.0  0.00835  0.26987  0.34093  1.0000
  C   C67       1.0  0.76619  0.79851  0.34297  1.0000
  C   C68       1.0  0.76632  0.76492  0.34046  1.0000
  C   C69       1.0  0.79892  0.76295  0.33898  1.0000
  C   C70       1.0  0.83282  0.79663  0.34095  1.0000
  C   C71       1.0  0.83498  0.83170  0.33772  1.0000
  C   C72       1.0  0.80082  0.83154  0.33930  1.0000
  H   H16       1.0  0.85635  0.79519  0.34420  1.0000
  H   H17       1.0  0.80101  0.85602  0.33943  1.0000
  H   H18       1.0  0.74157  0.74077  0.34097  1.0000
  C   C73       1.0  0.21295  0.96995  0.34296  1.0000
  C   C74       1.0  0.24654  0.00367  0.34042  1.0000
  C   C75       1.0  0.24852  0.03824  0.33895  1.0000
  C   C76       1.0  0.21483  0.03846  0.34094  1.0000
  C   C77       1.0  0.17976  0.00556  0.33772  1.0000
  C   C78       1.0  0.17992  0.97155  0.33932  1.0000
  H   H19       1.0  0.21628  0.06344  0.34421  1.0000
  H   H20       1.0  0.15544  0.94727  0.33944  1.0000
  H   H21       1.0  0.27068  0.00306  0.34092  1.0000
  C   C79       1.0  0.17124  0.45977  0.33809  1.0000
  C   C80       1.0  0.20879  0.47058  0.33166  1.0000
  C   C81       1.0  0.22104  0.44490  0.32516  1.0000
  C   C82       1.0  0.19473  0.40691  0.33187  1.0000
  C   C83       1.0  0.15658  0.39446  0.34054  1.0000
  C   C84       1.0  0.14559  0.42150  0.34035  1.0000
  H   H22       1.0  0.20355  0.38814  0.33092  1.0000
  H   H23       1.0  0.11816  0.41312  0.34005  1.0000
  H   H24       1.0  0.22793  0.49810  0.33374  1.0000
  C   C85       1.0  0.55169  0.71378  0.33809  1.0000
  C   C86       1.0  0.54088  0.74051  0.33163  1.0000
  C   C87       1.0  0.56656  0.77843  0.32506  1.0000
  C   C88       1.0  0.60456  0.79013  0.33176  1.0000
  C   C89       1.0  0.61700  0.76443  0.34048  1.0000
  C   C90       1.0  0.58996  0.72639  0.34035  1.0000
  H   H25       1.0  0.62332  0.81771  0.33076  1.0000
  H   H26       1.0  0.59834  0.70734  0.34009  1.0000
  H   H27       1.0  0.51337  0.73215  0.33369  1.0000
  C   C91       1.0  0.29769  0.84021  0.33813  1.0000
  C   C92       1.0  0.27097  0.80266  0.33178  1.0000
  C   C93       1.0  0.23304  0.79040  0.32530  1.0000
  C   C94       1.0  0.22133  0.81670  0.33187  1.0000
  C   C95       1.0  0.24702  0.85485  0.34052  1.0000
  C   C96       1.0  0.28506  0.86586  0.34036  1.0000
  H   H28       1.0  0.19375  0.80787  0.33090  1.0000
  H   H29       1.0  0.30411  0.89330  0.34006  1.0000
  H   H30       1.0  0.27935  0.78353  0.33392  1.0000
  C   C97       1.0  0.46352  0.16779  0.35438  1.0000
  C   C98       1.0  0.47405  0.20522  0.36219  1.0000
  C   C99       1.0  0.44800  0.21705  0.36662  1.0000
  C   C100      1.0  0.41016  0.19052  0.35787  1.0000
  C   C101      1.0  0.39810  0.15249  0.34885  1.0000
  C   C102      1.0  0.42539  0.14185  0.35022  1.0000
  H   H31       1.0  0.39122  0.19913  0.35726  1.0000
  H   H32       1.0  0.41732  0.11449  0.34953  1.0000
  H   H33       1.0  0.50153  0.22453  0.36140  1.0000
  C   C103      1.0  0.71343  0.54793  0.35433  1.0000
  C   C104      1.0  0.74034  0.53741  0.36213  1.0000
  C   C105      1.0  0.77822  0.56346  0.36651  1.0000
  C   C106      1.0  0.78953  0.60130  0.35777  1.0000
  C   C107      1.0  0.76355  0.61335  0.34879  1.0000
  C   C108      1.0  0.72563  0.58607  0.35015  1.0000
  H   H34       1.0  0.81707  0.62025  0.35719  1.0000
  H   H35       1.0  0.70633  0.59413  0.34953  1.0000
  H   H36       1.0  0.73218  0.50994  0.36148  1.0000
  C   C109      1.0  0.84367  0.29802  0.35437  1.0000
  C   C110      1.0  0.80624  0.27112  0.36217  1.0000
  C   C111      1.0  0.79442  0.23324  0.36659  1.0000
  C   C112      1.0  0.82094  0.22192  0.35787  1.0000
  C   C113      1.0  0.85898  0.24790  0.34883  1.0000
  C   C114      1.0  0.86961  0.28582  0.35017  1.0000
  H   H37       1.0  0.81234  0.19438  0.35727  1.0000
  H   H38       1.0  0.89698  0.30512  0.34952  1.0000
  H   H39       1.0  0.78693  0.27928  0.36151  1.0000
  C   C115      1.0  0.08314  0.58322  0.32662  1.0000
  C   C116      1.0  0.09788  0.55976  0.33593  1.0000
  C   C117      1.0  0.13616  0.57361  0.34134  1.0000
  C   C118      1.0  0.15981  0.61234  0.33821  1.0000
  C   C119      1.0  0.14525  0.63648  0.33636  1.0000
  C   C120      1.0  0.10681  0.62148  0.33038  1.0000
  H   H40       1.0  0.18768  0.62306  0.34220  1.0000
  H   H41       1.0  0.09598  0.63853  0.32403  1.0000
  H   H42       1.0  0.08022  0.53186  0.33620  1.0000
  C   C121      1.0  0.42820  0.50221  0.32674  1.0000
  C   C122      1.0  0.45167  0.54042  0.33605  1.0000
  C   C123      1.0  0.43783  0.56485  0.34141  1.0000
  C   C124      1.0  0.39909  0.54977  0.33831  1.0000
  C   C125      1.0  0.37494  0.51108  0.33642  1.0000
  C   C126      1.0  0.38994  0.48763  0.33042  1.0000
  H   H43       1.0  0.38839  0.56694  0.34218  1.0000
  H   H44       1.0  0.37289  0.45975  0.32414  1.0000
  H   H45       1.0  0.47957  0.55065  0.33632  1.0000
  C   C127      1.0  0.50925  0.92831  0.32683  1.0000
  C   C128      1.0  0.47104  0.91356  0.33614  1.0000
  C   C129      1.0  0.44661  0.87528  0.34149  1.0000
  C   C130      1.0  0.46169  0.85163  0.33832  1.0000
  C   C131      1.0  0.50039  0.86618  0.33647  1.0000
  C   C132      1.0  0.52383  0.90463  0.33047  1.0000
  H   H46       1.0  0.44453  0.82376  0.34216  1.0000
  H   H47       1.0  0.55171  0.91547  0.32419  1.0000
  H   H48       1.0  0.46080  0.93122  0.33645  1.0000
  C   C133      1.0  0.58824  0.08067  0.32766  1.0000
  C   C134      1.0  0.56455  0.09536  0.32867  1.0000
  C   C135      1.0  0.57780  0.13335  0.34009  1.0000
  C   C136      1.0  0.61632  0.15686  0.35084  1.0000
  C   C137      1.0  0.64088  0.14284  0.34629  1.0000
  C   C138      1.0  0.62628  0.10454  0.33668  1.0000
  H   H49       1.0  0.62672  0.18461  0.35734  1.0000
  H   H50       1.0  0.64349  0.09379  0.33548  1.0000
  H   H51       1.0  0.53672  0.07755  0.32470  1.0000
  C   C139      1.0  0.50159  0.42324  0.32771  1.0000
  C   C140      1.0  0.53996  0.44694  0.32878  1.0000
  C   C141      1.0  0.56470  0.43368  0.34015  1.0000
  C   C142      1.0  0.54970  0.39516  0.35081  1.0000
  C   C143      1.0  0.51111  0.37059  0.34621  1.0000
  C   C144      1.0  0.48742  0.38520  0.33663  1.0000
  H   H52       1.0  0.56705  0.38476  0.35727  1.0000
  H   H53       1.0  0.45946  0.36798  0.33540  1.0000
  H   H54       1.0  0.54997  0.47476  0.32484  1.0000
  C   C145      1.0  0.93078  0.50986  0.32756  1.0000
  C   C146      1.0  0.91611  0.47149  0.32864  1.0000
  C   C147      1.0  0.87812  0.44675  0.34010  1.0000
  C   C148      1.0  0.85460  0.46174  0.35084  1.0000
  C   C149      1.0  0.86862  0.50033  0.34623  1.0000
  C   C150      1.0  0.90690  0.52403  0.33656  1.0000
  H   H55       1.0  0.82685  0.44439  0.35736  1.0000
  H   H56       1.0  0.91764  0.55199  0.33530  1.0000
  H   H57       1.0  0.93392  0.46148  0.32463  1.0000
  N   N40       1.0  0.03308  0.13857  0.37557  1.0000
  C   C151      1.0  0.03590  0.10754  0.37893  1.0000
  H   H58       1.0  0.05765  0.10859  0.41240  1.0000
  N   N41       1.0  0.87289  0.89680  0.37553  1.0000
  C   C152      1.0  0.90391  0.93065  0.37882  1.0000
  H   H59       1.0  0.90287  0.95134  0.41237  1.0000
  N   N42       1.0  0.11467  0.97838  0.37555  1.0000
  C   C153      1.0  0.08082  0.97555  0.37885  1.0000
  H   H60       1.0  0.06012  0.95380  0.41236  1.0000
  C   C154      1.0  0.12980  0.35595  0.34875  1.0000
  C   C155      1.0  0.07446  0.28052  0.34973  1.0000
  N   N43       1.0  0.07430  0.30576  0.40701  1.0000
  C   C156      1.0  0.10027  0.34211  0.41125  1.0000
  N   N44       1.0  0.09695  0.36469  0.47652  1.0000
  O   O31       1.0  0.06678  0.36392  0.46791  1.0000
  O   O32       1.0  0.09799  0.35345  0.55414  1.0000
  C   C157      1.0  0.65551  0.77615  0.34873  1.0000
  C   C158      1.0  0.73095  0.79625  0.34976  1.0000
  N   N45       1.0  0.70570  0.77086  0.40705  1.0000
  C   C159      1.0  0.66935  0.76048  0.41128  1.0000
  N   N46       1.0  0.64677  0.73460  0.47657  1.0000
  O   O33       1.0  0.64754  0.70520  0.46801  1.0000
  O   O34       1.0  0.65801  0.74690  0.55418  1.0000
  C   C160      1.0  0.23529  0.88162  0.34878  1.0000
  C   C161      1.0  0.21519  0.93697  0.34977  1.0000
  N   N47       1.0  0.24058  0.93711  0.40708  1.0000
  C   C162      1.0  0.25095  0.91113  0.41135  1.0000
  N   N48       1.0  0.27683  0.91443  0.47664  1.0000
  O   O35       1.0  0.30623  0.94460  0.46808  1.0000
  O   O36       1.0  0.26454  0.91338  0.55424  1.0000
  N   N49       1.0  0.33400  0.12689  0.39278  1.0000
  C   C163      1.0  0.29734  0.10139  0.39231  1.0000
  H   H61       1.0  0.28030  0.10358  0.43786  1.0000
  N   N50       1.0  0.80205  0.67744  0.39282  1.0000
  C   C164      1.0  0.81320  0.71411  0.39242  1.0000
  H   H62       1.0  0.83249  0.73116  0.43784  1.0000
  N   N51       1.0  0.88458  0.20942  0.39290  1.0000
  C   C165      1.0  0.91008  0.19826  0.39248  1.0000
  H   H63       1.0  0.90788  0.17900  0.43795  1.0000
  N   N52       1.0  0.27603  0.44990  0.38562  1.0000
  C   C166      1.0  0.31307  0.46596  0.39456  1.0000
  H   H64       1.0  0.32366  0.45769  0.44549  1.0000
  N   N53       1.0  0.56158  0.82846  0.38545  1.0000
  C   C167      1.0  0.54552  0.84944  0.39447  1.0000
  H   H65       1.0  0.55383  0.86831  0.44536  1.0000
  N   N54       1.0  0.18296  0.73539  0.38559  1.0000
  C   C168      1.0  0.16197  0.69835  0.39451  1.0000
  H   H66       1.0  0.14303  0.68776  0.44525  1.0000
  C   C169      1.0  0.46140  0.25548  0.37031  1.0000
  C   C170      1.0  0.49519  0.33186  0.35109  1.0000
  N   N55       1.0  0.50434  0.31652  0.41944  1.0000
  C   C171      1.0  0.48886  0.27952  0.43189  1.0000
  N   N56       1.0  0.49953  0.26583  0.50562  1.0000
  O   O37       1.0  0.53355  0.27756  0.50332  1.0000
  O   O38       1.0  0.49238  0.27631  0.57810  1.0000
  C   C172      1.0  0.80326  0.55008  0.37033  1.0000
  C   C173      1.0  0.84579  0.51624  0.35113  1.0000
  N   N57       1.0  0.82139  0.50720  0.41967  1.0000
  C   C174      1.0  0.79990  0.52271  0.43209  1.0000
  N   N58       1.0  0.77563  0.51218  0.50598  1.0000
  O   O39       1.0  0.75343  0.47814  0.50426  1.0000
  O   O40       1.0  0.79337  0.51959  0.57833  1.0000
  C   C175      1.0  0.75599  0.20820  0.37041  1.0000
  C   C176      1.0  0.67962  0.16565  0.35125  1.0000
  N   N59       1.0  0.69498  0.19008  0.41971  1.0000
  C   C177      1.0  0.73198  0.21158  0.43213  1.0000
  N   N60       1.0  0.74571  0.23589  0.50595  1.0000
  O   O41       1.0  0.73389  0.25810  0.50410  1.0000
  O   O42       1.0  0.73535  0.21817  0.57835  1.0000
  C   C178      1.0  0.16146  0.48788  0.34197  1.0000
  C   C179      1.0  0.14828  0.54746  0.34642  1.0000
  N   N61       1.0  0.12871  0.51657  0.39705  1.0000
  C   C180      1.0  0.13401  0.48710  0.39895  1.0000
  N   N62       1.0  0.11307  0.45763  0.45800  1.0000
  O   O43       1.0  0.07937  0.44388  0.44133  1.0000
  O   O44       1.0  0.11847  0.46868  0.53804  1.0000
  C   C181      1.0  0.52357  0.67588  0.34199  1.0000
  C   C182      1.0  0.46399  0.60313  0.34646  1.0000
  N   N63       1.0  0.49488  0.61445  0.39708  1.0000
  C   C183      1.0  0.52435  0.64922  0.39897  1.0000
  N   N64       1.0  0.55382  0.65775  0.45803  1.0000
  O   O45       1.0  0.56757  0.63780  0.44139  1.0000
  O   O46       1.0  0.54277  0.65211  0.53806  1.0000
  C   C184      1.0  0.33559  0.85001  0.34202  1.0000
  C   C185      1.0  0.40834  0.86318  0.34653  1.0000
  N   N65       1.0  0.39701  0.88274  0.39716  1.0000
  C   C186      1.0  0.36223  0.87743  0.39905  1.0000
  N   N66       1.0  0.35369  0.89836  0.45811  1.0000
  O   O47       1.0  0.37364  0.93206  0.44147  1.0000
  O   O48       1.0  0.35933  0.89295  0.53815  1.0000
  N   N67       1.0  0.52240  0.17685  0.40132  1.0000
  C   C187      1.0  0.55193  0.17176  0.39944  1.0000
  H   H67       1.0  0.57310  0.18586  0.44356  1.0000
  N   N68       1.0  0.66361  0.48906  0.40135  1.0000
  C   C188      1.0  0.62897  0.45956  0.39956  1.0000
  H   H68       1.0  0.62191  0.43836  0.44357  1.0000
  N   N69       1.0  0.83463  0.34785  0.40138  1.0000
  C   C189      1.0  0.83975  0.38248  0.39956  1.0000
  H   H69       1.0  0.82562  0.38954  0.44358  1.0000
  N   N70       1.0  0.02708  0.57820  0.37543  1.0000
  C   C190      1.0  0.99000  0.56246  0.37787  1.0000
  H   H70       1.0  0.97803  0.56973  0.42756  1.0000
  N   N71       1.0  0.43323  0.45118  0.37561  1.0000
  C   C191      1.0  0.44903  0.42989  0.37812  1.0000
  H   H71       1.0  0.44168  0.41059  0.42770  1.0000
  N   N72       1.0  0.56027  0.98437  0.37577  1.0000
  C   C192      1.0  0.58152  0.02146  0.37832  1.0000
  H   H72       1.0  0.60092  0.03345  0.42769  1.0000
