data_image0
_chemical_formula_structural       C4NH3N6C4NH3C4NH3C4NH3C4NH3N4C4NH3C4NH3N4C4NH3C4NH3N4C4NH3C4NH3N6C4NH3CNCNCNCNCNCNCNCNCNCNCNCNCNCNCNCNCNCNCNCNCNCNCNCNCNCNCNCNCNCNCNCNCNCNCNCNCNCNCNCNCNCNCNCNCNCNCNCN3C4NH3C4NH3C4NH3N8C4NH3C4NH3N4C4NH3C4NH3N4C4NH3C4NH3N4C4NH3C4NH3C4NH3N2
_chemical_formula_sum              "C144 N120 H72"
_cell_length_a       53.76
_cell_length_b       27.7173
_cell_length_c       14.8095
_cell_angle_alpha    90
_cell_angle_beta     90
_cell_angle_gamma    90

_space_group_name_H-M_alt    "P 1"
_space_group_IT_number       1

loop_
  _space_group_symop_operation_xyz
  'x, y, z'

loop_
  _atom_site_type_symbol
  _atom_site_label
  _atom_site_symmetry_multiplicity
  _atom_site_fract_x
  _atom_site_fract_y
  _atom_site_fract_z
  _atom_site_occupancy
  C   C1        1.0  0.52045  0.54936  0.36190  1.0000
  C   C2        1.0  0.53283  0.51203  0.31584  1.0000
  C   C3        1.0  0.52095  0.46709  0.30090  1.0000
  C   C4        1.0  0.49705  0.45914  0.34115  1.0000
  N   N1        1.0  0.53260  0.43522  0.24498  1.0000
  H   H1        1.0  0.54835  0.44332  0.21637  1.0000
  H   H2        1.0  0.52367  0.40825  0.21878  1.0000
  H   H3        1.0  0.54976  0.51889  0.28684  1.0000
  N   N2        1.0  0.02641  0.99736  0.30768  1.0000
  N   N3        1.0  0.01574  0.03967  0.29962  1.0000
  N   N4        1.0  0.40594  0.37594  0.33117  1.0000
  N   N5        1.0  0.38224  0.36388  0.32727  1.0000
  N   N6        1.0  0.60759  0.63801  0.33965  1.0000
  N   N7        1.0  0.63131  0.64967  0.33473  1.0000
  C   C5        1.0  0.14015  0.82361  0.32534  1.0000
  C   C6        1.0  0.12314  0.79551  0.27522  1.0000
  C   C7        1.0  0.09782  0.80889  0.26703  1.0000
  C   C8        1.0  0.08931  0.85033  0.31534  1.0000
  N   N8        1.0  0.08312  0.78220  0.21115  1.0000
  H   H4        1.0  0.08988  0.75526  0.17687  1.0000
  H   H5        1.0  0.06675  0.79340  0.19322  1.0000
  H   H6        1.0  0.12942  0.76559  0.24161  1.0000
  C   C9        1.0  0.87201  0.19140  0.32321  1.0000
  C   C10       1.0  0.88912  0.22165  0.27801  1.0000
  C   C11       1.0  0.91451  0.20896  0.26887  1.0000
  C   C12       1.0  0.92293  0.16569  0.31130  1.0000
  N   N9        1.0  0.92919  0.23792  0.21706  1.0000
  H   H7        1.0  0.92240  0.26609  0.18654  1.0000
  H   H8        1.0  0.94557  0.22758  0.19749  1.0000
  H   H9        1.0  0.88287  0.25273  0.24827  1.0000
  C   C13       1.0  0.53701  0.20900  0.31243  1.0000
  C   C14       1.0  0.51777  0.21660  0.24868  1.0000
  C   C15       1.0  0.50157  0.25643  0.25522  1.0000
  C   C16       1.0  0.50564  0.28889  0.32778  1.0000
  N   N10       1.0  0.48336  0.26190  0.19217  1.0000
  H   H10       1.0  0.48151  0.23912  0.14262  1.0000
  H   H11       1.0  0.47270  0.29016  0.19089  1.0000
  H   H12       1.0  0.51503  0.19204  0.19806  1.0000
  C   C17       1.0  0.47556  0.80060  0.33303  1.0000
  C   C18       1.0  0.49453  0.79425  0.26788  1.0000
  C   C19       1.0  0.51015  0.75340  0.26930  1.0000
  C   C20       1.0  0.50599  0.71893  0.33863  1.0000
  N   N11       1.0  0.52800  0.74892  0.20463  1.0000
  H   H13       1.0  0.52999  0.77307  0.15747  1.0000
  H   H14       1.0  0.53806  0.71997  0.19914  1.0000
  H   H15       1.0  0.49753  0.82041  0.22021  1.0000
  N   N12       1.0  0.98768  0.78071  0.30815  1.0000
  N   N13       1.0  0.97308  0.74290  0.31452  1.0000
  N   N14       1.0  0.02605  0.22665  0.29511  1.0000
  N   N15       1.0  0.04033  0.26506  0.29729  1.0000
  C   C21       1.0  0.31234  0.19351  0.35562  1.0000
  C   C22       1.0  0.28840  0.17345  0.34212  1.0000
  C   C23       1.0  0.28442  0.12259  0.34125  1.0000
  C   C24       1.0  0.30530  0.09161  0.35550  1.0000
  N   N16       1.0  0.26091  0.10654  0.32532  1.0000
  H   H16       1.0  0.24728  0.12892  0.31482  1.0000
  H   H17       1.0  0.25693  0.07262  0.32052  1.0000
  H   H18       1.0  0.27370  0.19617  0.33133  1.0000
  C   C25       1.0  0.70141  0.82006  0.35570  1.0000
  C   C26       1.0  0.72527  0.84039  0.34207  1.0000
  C   C27       1.0  0.72900  0.89131  0.34088  1.0000
  C   C28       1.0  0.70793  0.92185  0.35489  1.0000
  N   N17       1.0  0.75241  0.90782  0.32491  1.0000
  H   H19       1.0  0.76618  0.88571  0.31483  1.0000
  H   H20       1.0  0.75622  0.94182  0.32029  1.0000
  H   H21       1.0  0.74006  0.81787  0.33139  1.0000
  N   N18       1.0  0.18535  0.61465  0.32423  1.0000
  N   N19       1.0  0.18186  0.66134  0.32424  1.0000
  N   N20       1.0  0.82704  0.39857  0.32484  1.0000
  N   N21       1.0  0.83028  0.35189  0.32444  1.0000
  C   C29       1.0  0.24376  0.42541  0.32740  1.0000
  C   C30       1.0  0.24055  0.37922  0.28852  1.0000
  C   C31       1.0  0.26034  0.34567  0.28264  1.0000
  C   C32       1.0  0.28360  0.35847  0.32256  1.0000
  N   N22       1.0  0.25617  0.30413  0.23577  1.0000
  H   H22       1.0  0.24021  0.29801  0.20694  1.0000
  H   H23       1.0  0.26980  0.28374  0.21642  1.0000
  H   H24       1.0  0.22379  0.37044  0.26013  1.0000
  C   C33       1.0  0.76983  0.58839  0.32897  1.0000
  C   C34       1.0  0.77305  0.63442  0.28962  1.0000
  C   C35       1.0  0.75321  0.66783  0.28326  1.0000
  C   C36       1.0  0.72997  0.65512  0.32347  1.0000
  N   N23       1.0  0.75734  0.70913  0.23563  1.0000
  H   H25       1.0  0.77335  0.71548  0.20733  1.0000
  H   H26       1.0  0.74377  0.72978  0.21664  1.0000
  H   H27       1.0  0.78981  0.64304  0.26101  1.0000
  N   N24       1.0  0.22756  0.90390  0.33461  1.0000
  N   N25       1.0  0.24593  0.93530  0.33304  1.0000
  N   N26       1.0  0.78459  0.10983  0.33333  1.0000
  N   N27       1.0  0.76621  0.07848  0.33159  1.0000
  C   C37       1.0  0.15543  0.45194  0.31401  1.0000
  C   C38       1.0  0.13734  0.47660  0.26293  1.0000
  C   C39       1.0  0.11294  0.45820  0.25504  1.0000
  C   C40       1.0  0.10684  0.41558  0.30441  1.0000
  N   N28       1.0  0.09665  0.48159  0.19984  1.0000
  H   H28       1.0  0.10177  0.50964  0.16495  1.0000
  H   H29       1.0  0.08073  0.46735  0.18402  1.0000
  H   H30       1.0  0.14211  0.50752  0.22922  1.0000
  C   C41       1.0  0.85835  0.55945  0.31969  1.0000
  C   C42       1.0  0.87690  0.53304  0.27403  1.0000
  C   C43       1.0  0.90170  0.54986  0.27084  1.0000
  C   C44       1.0  0.90759  0.59287  0.31919  1.0000
  N   N29       1.0  0.91850  0.52479  0.22049  1.0000
  H   H31       1.0  0.91361  0.49625  0.18653  1.0000
  H   H32       1.0  0.93496  0.53758  0.20805  1.0000
  H   H33       1.0  0.87224  0.50187  0.24097  1.0000
  N   N30       1.0  0.38741  0.89347  0.34105  1.0000
  N   N31       1.0  0.36455  0.91005  0.33769  1.0000
  N   N32       1.0  0.62432  0.11660  0.33243  1.0000
  N   N33       1.0  0.64744  0.10140  0.33314  1.0000
  N   N34       1.0  0.98520  0.50019  0.35102  1.0000
  N   N35       1.0  0.00125  0.46529  0.34130  1.0000
  C   C45       1.0  0.48793  0.96847  0.32054  1.0000
  C   C46       1.0  0.48099  0.01037  0.27322  1.0000
  C   C47       1.0  0.49864  0.04717  0.25735  1.0000
  C   C48       1.0  0.52261  0.04188  0.29754  1.0000
  N   N36       1.0  0.49201  0.08427  0.20222  1.0000
  H   H34       1.0  0.47566  0.08536  0.17401  1.0000
  H   H35       1.0  0.50440  0.10586  0.17730  1.0000
  H   H36       1.0  0.46354  0.01278  0.24579  1.0000
  C   C49       1.0  0.44940  0.36139  0.36508  1.0000
  N   N37       1.0  0.45961  0.40673  0.35904  1.0000
  C   C50       1.0  0.48473  0.41351  0.34640  1.0000
  N   N38       1.0  0.49929  0.37359  0.34208  1.0000
  C   C51       1.0  0.49001  0.32851  0.34487  1.0000
  N   N39       1.0  0.46513  0.32333  0.35461  1.0000
  C   C52       1.0  0.56420  0.65268  0.37302  1.0000
  N   N40       1.0  0.55536  0.60641  0.37238  1.0000
  C   C53       1.0  0.53037  0.59665  0.36723  1.0000
  N   N41       1.0  0.51419  0.63409  0.35891  1.0000
  C   C54       1.0  0.52236  0.68022  0.35510  1.0000
  N   N42       1.0  0.54717  0.68844  0.36179  1.0000
  C   C55       1.0  0.06345  0.86147  0.32739  1.0000
  N   N43       1.0  0.05325  0.90683  0.33323  1.0000
  C   C56       1.0  0.02813  0.91362  0.34578  1.0000
  N   N44       1.0  0.01356  0.87371  0.35021  1.0000
  C   C57       1.0  0.02284  0.82864  0.34758  1.0000
  N   N45       1.0  0.04772  0.82342  0.33789  1.0000
  C   C58       1.0  0.94865  0.15275  0.31921  1.0000
  N   N46       1.0  0.95750  0.10650  0.31988  1.0000
  C   C59       1.0  0.98250  0.09678  0.32503  1.0000
  N   N47       1.0  0.99866  0.13425  0.33327  1.0000
  C   C60       1.0  0.99047  0.18036  0.33703  1.0000
  N   N48       1.0  0.96566  0.18854  0.33034  1.0000
  C   C61       1.0  0.31774  0.24407  0.35378  1.0000
  N   N49       1.0  0.29968  0.27764  0.34118  1.0000
  C   C62       1.0  0.30409  0.32593  0.33408  1.0000
  N   N50       1.0  0.32824  0.34090  0.34293  1.0000
  C   C63       1.0  0.34729  0.30905  0.35703  1.0000
  N   N51       1.0  0.34138  0.26114  0.36166  1.0000
  C   C64       1.0  0.69610  0.76959  0.35424  1.0000
  N   N52       1.0  0.71408  0.73591  0.34173  1.0000
  C   C65       1.0  0.70951  0.68767  0.33512  1.0000
  N   N53       1.0  0.68532  0.67292  0.34460  1.0000
  C   C66       1.0  0.66636  0.70504  0.35863  1.0000
  N   N54       1.0  0.67245  0.75281  0.36249  1.0000
  C   C67       1.0  0.19511  0.74411  0.33855  1.0000
  N   N55       1.0  0.21317  0.77768  0.35119  1.0000
  C   C68       1.0  0.20876  0.82597  0.35830  1.0000
  N   N56       1.0  0.18461  0.84094  0.34944  1.0000
  C   C69       1.0  0.16556  0.80909  0.33532  1.0000
  N   N57       1.0  0.17147  0.76118  0.33067  1.0000
  C   C70       1.0  0.81676  0.26962  0.33822  1.0000
  N   N58       1.0  0.79877  0.23594  0.35074  1.0000
  C   C71       1.0  0.80334  0.18770  0.35728  1.0000
  N   N59       1.0  0.82753  0.17295  0.34772  1.0000
  C   C72       1.0  0.84649  0.20506  0.33368  1.0000
  N   N60       1.0  0.84040  0.25284  0.32990  1.0000
  C   C73       1.0  0.04880  0.34637  0.34907  1.0000
  N   N61       1.0  0.07326  0.35512  0.32874  1.0000
  C   C74       1.0  0.08189  0.40154  0.32198  1.0000
  N   N62       1.0  0.06578  0.43817  0.33905  1.0000
  C   C75       1.0  0.04150  0.43053  0.35706  1.0000
  N   N63       1.0  0.03342  0.38465  0.36098  1.0000
  C   C76       1.0  0.96421  0.66345  0.37400  1.0000
  N   N64       1.0  0.94030  0.65357  0.34842  1.0000
  C   C77       1.0  0.93229  0.60677  0.34094  1.0000
  N   N65       1.0  0.94861  0.57070  0.36078  1.0000
  C   C78       1.0  0.97239  0.57918  0.38630  1.0000
  N   N66       1.0  0.97955  0.62565  0.38957  1.0000
  C   C79       1.0  0.46405  0.84622  0.34316  1.0000
  N   N67       1.0  0.43958  0.85499  0.36343  1.0000
  C   C80       1.0  0.43095  0.90143  0.37006  1.0000
  N   N68       1.0  0.44709  0.93804  0.35310  1.0000
  C   C81       1.0  0.47137  0.93036  0.33518  1.0000
  N   N69       1.0  0.47944  0.88449  0.33130  1.0000
  C   C82       1.0  0.54861  0.16326  0.31881  1.0000
  N   N70       1.0  0.57254  0.15341  0.34426  1.0000
  C   C83       1.0  0.58056  0.10662  0.35175  1.0000
  N   N71       1.0  0.56425  0.07053  0.33191  1.0000
  C   C84       1.0  0.54046  0.07900  0.30644  1.0000
  N   N72       1.0  0.53329  0.12545  0.30312  1.0000
  C   C85       1.0  0.20666  0.53958  0.33457  1.0000
  N   N73       1.0  0.22643  0.50823  0.33608  1.0000
  C   C86       1.0  0.22361  0.45910  0.33184  1.0000
  N   N74       1.0  0.19996  0.44164  0.32653  1.0000
  C   C87       1.0  0.17975  0.47067  0.32414  1.0000
  N   N75       1.0  0.18374  0.51895  0.32740  1.0000
  C   C88       1.0  0.80621  0.47382  0.33604  1.0000
  N   N76       1.0  0.78667  0.50561  0.33720  1.0000
  C   C89       1.0  0.78989  0.55461  0.33346  1.0000
  N   N77       1.0  0.81368  0.57157  0.32899  1.0000
  C   C90       1.0  0.83369  0.54193  0.32691  1.0000
  N   N78       1.0  0.82929  0.49382  0.32997  1.0000
  C   C91       1.0  0.30622  0.03954  0.35778  1.0000
  N   N79       1.0  0.28644  0.00819  0.35628  1.0000
  C   C92       1.0  0.28926  0.95907  0.36054  1.0000
  N   N80       1.0  0.31292  0.94159  0.36581  1.0000
  C   C93       1.0  0.33312  0.97062  0.36814  1.0000
  N   N81       1.0  0.32914  0.01890  0.36490  1.0000
  C   C94       1.0  0.70666  0.97379  0.35669  1.0000
  N   N82       1.0  0.72619  0.00559  0.35541  1.0000
  C   C95       1.0  0.72297  0.05460  0.35909  1.0000
  N   N83       1.0  0.69918  0.07154  0.36362  1.0000
  C   C96       1.0  0.67918  0.04189  0.36578  1.0000
  N   N84       1.0  0.68359  0.99378  0.36277  1.0000
  N   N85       1.0  0.48646  0.49724  0.38446  1.0000
  N   N86       1.0  0.49713  0.53953  0.39257  1.0000
  C   C97       1.0  0.99243  0.04950  0.33040  1.0000
  C   C98       1.0  0.98005  0.01217  0.37644  1.0000
  C   C99       1.0  0.99193  0.96722  0.39133  1.0000
  C   C100      1.0  0.01581  0.95926  0.35096  1.0000
  N   N87       1.0  0.98029  0.93538  0.44735  1.0000
  H   H37       1.0  0.96455  0.94351  0.47605  1.0000
  H   H38       1.0  0.98923  0.90842  0.47355  1.0000
  H   H39       1.0  0.96313  0.01904  0.40549  1.0000
  C   C101      1.0  0.37270  0.32357  0.36701  1.0000
  C   C102      1.0  0.38970  0.29547  0.41717  1.0000
  C   C103      1.0  0.41502  0.30884  0.42537  1.0000
  C   C104      1.0  0.42354  0.35028  0.37705  1.0000
  N   N88       1.0  0.42971  0.28218  0.48133  1.0000
  H   H40       1.0  0.42295  0.25525  0.51563  1.0000
  H   H41       1.0  0.44608  0.29338  0.49930  1.0000
  H   H42       1.0  0.38342  0.26557  0.45080  1.0000
  C   C105      1.0  0.64083  0.69137  0.36904  1.0000
  C   C106      1.0  0.62372  0.72161  0.41427  1.0000
  C   C107      1.0  0.59834  0.70890  0.42338  1.0000
  C   C108      1.0  0.58991  0.66567  0.38083  1.0000
  N   N89       1.0  0.58366  0.73782  0.47533  1.0000
  H   H43       1.0  0.59037  0.76625  0.50526  1.0000
  H   H44       1.0  0.56717  0.72787  0.49418  1.0000
  H   H45       1.0  0.62997  0.75264  0.44415  1.0000
  N   N90       1.0  0.10691  0.87600  0.36119  1.0000
  N   N91       1.0  0.13061  0.86393  0.36507  1.0000
  N   N92       1.0  0.90525  0.13803  0.35248  1.0000
  N   N93       1.0  0.88153  0.14969  0.35745  1.0000
  N   N94       1.0  0.52517  0.28063  0.38432  1.0000
  N   N95       1.0  0.53977  0.24282  0.37801  1.0000
  N   N96       1.0  0.48681  0.72653  0.39710  1.0000
  N   N97       1.0  0.47254  0.76497  0.39499  1.0000
  C   C109      1.0  0.97586  0.70915  0.38021  1.0000
  C   C110      1.0  0.99505  0.71683  0.44408  1.0000
  C   C111      1.0  0.01125  0.75666  0.43746  1.0000
  C   C112      1.0  0.00720  0.78904  0.36474  1.0000
  N   N98       1.0  0.02943  0.76221  0.50058  1.0000
  H   H46       1.0  0.03127  0.73949  0.55024  1.0000
  H   H47       1.0  0.04009  0.79048  0.50180  1.0000
  H   H48       1.0  0.99777  0.69231  0.49478  1.0000
  C   C113      1.0  0.03730  0.30074  0.35919  1.0000
  C   C114      1.0  0.01826  0.29445  0.42411  1.0000
  C   C115      1.0  0.00264  0.25360  0.42269  1.0000
  C   C116      1.0  0.00683  0.21911  0.35343  1.0000
  N   N99       1.0  0.98474  0.24917  0.48721  1.0000
  H   H49       1.0  0.98288  0.27319  0.53468  1.0000
  H   H50       1.0  0.97484  0.22006  0.49305  1.0000
  H   H51       1.0  0.01525  0.32061  0.47176  1.0000
  N   N100      1.0  0.32752  0.11462  0.36808  1.0000
  N   N101      1.0  0.33100  0.16131  0.36808  1.0000
  N   N102      1.0  0.68583  0.89854  0.36769  1.0000
  N   N103      1.0  0.68258  0.85186  0.36801  1.0000
  C   C117      1.0  0.20052  0.69355  0.33671  1.0000
  C   C118      1.0  0.22446  0.67350  0.35022  1.0000
  C   C119      1.0  0.22845  0.62265  0.35110  1.0000
  C   C120      1.0  0.20757  0.59166  0.33680  1.0000
  N   N104      1.0  0.25196  0.60660  0.36701  1.0000
  H   H52       1.0  0.26559  0.62899  0.37752  1.0000
  H   H53       1.0  0.25594  0.57269  0.37177  1.0000
  H   H54       1.0  0.23916  0.69623  0.36101  1.0000
  C   C121      1.0  0.81145  0.32009  0.33685  1.0000
  C   C122      1.0  0.78760  0.34044  0.35067  1.0000
  C   C123      1.0  0.78388  0.39135  0.35197  1.0000
  C   C124      1.0  0.80494  0.42188  0.33784  1.0000
  N   N105      1.0  0.76048  0.40787  0.36820  1.0000
  H   H55       1.0  0.74672  0.38577  0.37862  1.0000
  H   H56       1.0  0.75671  0.44187  0.37333  1.0000
  H   H57       1.0  0.77281  0.31792  0.36140  1.0000
  N   N106      1.0  0.28531  0.40390  0.35774  1.0000
  N   N107      1.0  0.26694  0.43531  0.35930  1.0000
  N   N108      1.0  0.72828  0.60985  0.35926  1.0000
  N   N109      1.0  0.74666  0.57851  0.36106  1.0000
  C   C125      1.0  0.26910  0.92540  0.36498  1.0000
  C   C126      1.0  0.27231  0.87922  0.40390  1.0000
  C   C127      1.0  0.25250  0.84569  0.40983  1.0000
  C   C128      1.0  0.22925  0.85849  0.36986  1.0000
  N   N110      1.0  0.25667  0.80414  0.45668  1.0000
  H   H58       1.0  0.27263  0.79801  0.48552  1.0000
  H   H59       1.0  0.24303  0.78376  0.47602  1.0000
  H   H60       1.0  0.28907  0.87043  0.43231  1.0000
  C   C129      1.0  0.74303  0.08838  0.36353  1.0000
  C   C130      1.0  0.73979  0.13445  0.40271  1.0000
  C   C131      1.0  0.75963  0.16789  0.40902  1.0000
  C   C132      1.0  0.78288  0.15514  0.36892  1.0000
  N   N111      1.0  0.75549  0.20927  0.45642  1.0000
  H   H61       1.0  0.73954  0.21533  0.48534  1.0000
  H   H62       1.0  0.76916  0.22947  0.47619  1.0000
  H   H63       1.0  0.72302  0.14313  0.43115  1.0000
  N   N112      1.0  0.12546  0.39353  0.35109  1.0000
  N   N113      1.0  0.14832  0.41010  0.35447  1.0000
  N   N114      1.0  0.88853  0.61666  0.36027  1.0000
  N   N115      1.0  0.86542  0.60144  0.35961  1.0000
  C   C133      1.0  0.35744  0.95188  0.37824  1.0000
  C   C134      1.0  0.37553  0.97650  0.42937  1.0000
  C   C135      1.0  0.39994  0.95809  0.43724  1.0000
  C   C136      1.0  0.40603  0.91549  0.38782  1.0000
  N   N116      1.0  0.41623  0.98145  0.49241  1.0000
  H   H64       1.0  0.41113  0.00950  0.52733  1.0000
  H   H65       1.0  0.43216  0.96720  0.50818  1.0000
  H   H66       1.0  0.37077  0.00741  0.46311  1.0000
  C   C137      1.0  0.65452  0.05940  0.37300  1.0000
  C   C138      1.0  0.63596  0.03296  0.41862  1.0000
  C   C139      1.0  0.61116  0.04974  0.42178  1.0000
  C   C140      1.0  0.60527  0.09274  0.37341  1.0000
  N   N117      1.0  0.59435  0.02462  0.47200  1.0000
  H   H67       1.0  0.59933  0.99639  0.50665  1.0000
  H   H68       1.0  0.57799  0.03775  0.48505  1.0000
  H   H69       1.0  0.64062  0.00176  0.45159  1.0000
  C   C141      1.0  0.02495  0.46865  0.37179  1.0000
  C   C142      1.0  0.03197  0.51070  0.41852  1.0000
  C   C143      1.0  0.01435  0.54755  0.43445  1.0000
  C   C144      1.0  0.99030  0.54214  0.39487  1.0000
  N   N118      1.0  0.02109  0.58487  0.48892  1.0000
  H   H70       1.0  0.03740  0.58562  0.51742  1.0000
  H   H71       1.0  0.00860  0.60594  0.51482  1.0000
  H   H72       1.0  0.04948  0.51326  0.44531  1.0000
  N   N119      1.0  0.52763  0.00011  0.34208  1.0000
  N   N120      1.0  0.51157  0.96523  0.35175  1.0000
