data_image0
_chemical_formula_structural       C2NOCHC2NOCHCNCN2CHCHOCHOCHOC3HNOC2NCN2CN3C2NO2C3NOCHC3HNO2CHOHC3HNOC3NO2CHNCN2CNCN2HC3HNO2CHC2HNOC3HNO2CHOCH2CN3CNCNCN4C3HNO2CHCOCH
_chemical_formula_sum              "C60 N36 O24 H24"
_cell_length_a       34.1653
_cell_length_b       34.1652
_cell_length_c       14.507
_cell_angle_alpha    90
_cell_angle_beta     90
_cell_angle_gamma    120

_space_group_name_H-M_alt    "P 1"
_space_group_IT_number       1

loop_
  _space_group_symop_operation_xyz
  'x, y, z'

loop_
  _atom_site_type_symbol
  _atom_site_label
  _atom_site_symmetry_multiplicity
  _atom_site_fract_x
  _atom_site_fract_y
  _atom_site_fract_z
  _atom_site_occupancy
  C   C1        1.0  0.18960  0.09173  0.36768  1.0000
  C   C2        1.0  0.21479  0.10808  0.28488  1.0000
  N   N1        1.0  0.19225  0.09318  0.19912  1.0000
  O   O1        1.0  0.20769  0.07282  0.15286  1.0000
  C   C3        1.0  0.14409  0.05845  0.36731  1.0000
  H   H1        1.0  0.13682  0.02641  0.36600  1.0000
  C   C4        1.0  0.94341  0.10639  0.36751  1.0000
  C   C5        1.0  0.92718  0.11547  0.28481  1.0000
  N   N2        1.0  0.94217  0.10805  0.19895  1.0000
  O   O2        1.0  0.90977  0.07913  0.15163  1.0000
  C   C6        1.0  0.97669  0.09416  0.36695  1.0000
  H   H2        1.0  0.00872  0.11891  0.36480  1.0000
  C   C7        1.0  0.06702  0.04072  0.36801  1.0000
  N   N3        1.0  0.04049  0.06003  0.36813  1.0000
  C   C8        1.0  0.99441  0.03481  0.36815  1.0000
  N   N4        1.0  0.96730  0.05261  0.36850  1.0000
  N   N5        1.0  0.11193  0.06783  0.36824  1.0000
  C   C9        1.0  0.21280  0.10639  0.45262  1.0000
  H   H3        1.0  0.19526  0.09436  0.51299  1.0000
  C   C10       1.0  0.92863  0.11467  0.45256  1.0000
  H   H4        1.0  0.94059  0.10900  0.51286  1.0000
  O   O3        1.0  0.86222  0.10239  0.58870  1.0000
  C   C11       1.0  0.26200  0.13905  0.28918  1.0000
  H   H5        1.0  0.27955  0.15101  0.22880  1.0000
  O   O4        1.0  0.19568  0.12563  0.15206  1.0000
  C   C12       1.0  0.89620  0.13170  0.28934  1.0000
  H   H6        1.0  0.88431  0.13746  0.22903  1.0000
  O   O5        1.0  0.96258  0.14396  0.15306  1.0000
  C   C13       1.0  0.64288  0.17901  0.35150  1.0000
  C   C14       1.0  0.61505  0.17181  0.27332  1.0000
  C   C15       1.0  0.56957  0.16093  0.28576  1.0000
  H   H7        1.0  0.55049  0.15748  0.22858  1.0000
  N   N6        1.0  0.63385  0.17778  0.18374  1.0000
  O   O6        1.0  0.61326  0.14243  0.13628  1.0000
  C   C16       1.0  0.68951  0.20037  0.34166  1.0000
  C   C17       1.0  0.40762  0.20277  0.37695  1.0000
  N   N7        1.0  0.43324  0.18227  0.37624  1.0000
  C   C18       1.0  0.47925  0.20719  0.37538  1.0000
  N   N8        1.0  0.36260  0.17640  0.37699  1.0000
  N   N9        1.0  0.50870  0.19296  0.37337  1.0000
  C   C19       1.0  0.76049  0.20905  0.37428  1.0000
  N   N10       1.0  0.78606  0.18863  0.37647  1.0000
  N   N11       1.0  0.85874  0.19470  0.37668  1.0000
  N   N12       1.0  0.71525  0.18639  0.37613  1.0000
  C   C20       1.0  0.28523  0.15361  0.37412  1.0000
  C   C21       1.0  0.26002  0.13734  0.45692  1.0000
  N   N13       1.0  0.28255  0.15227  0.54266  1.0000
  O   O7        1.0  0.27906  0.11981  0.58980  1.0000
  O   O8        1.0  0.26713  0.17268  0.58879  1.0000
  C   C22       1.0  0.33091  0.18644  0.37429  1.0000
  C   C23       1.0  0.88150  0.14009  0.37438  1.0000
  C   C24       1.0  0.89768  0.13093  0.45708  1.0000
  N   N14       1.0  0.88266  0.13833  0.54292  1.0000
  O   O9        1.0  0.91508  0.16719  0.59031  1.0000
  C   C25       1.0  0.84868  0.15295  0.37481  1.0000
  H   H8        1.0  0.81649  0.12855  0.37289  1.0000
  C   C26       1.0  0.55151  0.15894  0.37441  1.0000
  C   C27       1.0  0.57942  0.16630  0.45286  1.0000
  C   C28       1.0  0.62432  0.17558  0.44032  1.0000
  H   H9        1.0  0.64485  0.18355  0.49697  1.0000
  N   N15       1.0  0.56656  0.16798  0.54493  1.0000
  O   O10       1.0  0.55900  0.20001  0.55743  1.0000
  O   O11       1.0  0.53234  0.13158  0.56855  1.0000
  C   C29       1.0  0.50964  0.15609  0.38113  1.0000
  H   H10       1.0  0.48183  0.12675  0.39311  1.0000
  O   O12       1.0  0.63322  0.20962  0.14160  1.0000
  H   H11       1.0  0.70362  0.23005  0.30915  1.0000
  C   C30       1.0  0.85608  0.47233  0.35144  1.0000
  C   C31       1.0  0.86329  0.45172  0.27326  1.0000
  C   C32       1.0  0.87413  0.41709  0.28570  1.0000
  H   H12       1.0  0.87766  0.40152  0.22853  1.0000
  N   N16       1.0  0.85731  0.46458  0.18371  1.0000
  O   O13       1.0  0.82548  0.43213  0.14156  1.0000
  C   C33       1.0  0.56282  0.39224  0.35148  1.0000
  C   C34       1.0  0.58345  0.42003  0.27327  1.0000
  C   C35       1.0  0.61809  0.46549  0.28578  1.0000
  N   N17       1.0  0.57064  0.40123  0.18369  1.0000
  O   O14       1.0  0.55593  0.42186  0.13620  1.0000
  O   O15       1.0  0.60311  0.40185  0.14159  1.0000
  C   C36       1.0  0.53749  0.34560  0.34162  1.0000
  H   H13       1.0  0.55301  0.33146  0.30906  1.0000
  N   N18       1.0  0.49897  0.25260  0.37463  1.0000
  C   C37       1.0  0.47520  0.27465  0.37447  1.0000
  N   N19       1.0  0.42922  0.24908  0.37661  1.0000
  N   N20       1.0  0.49779  0.31989  0.37625  1.0000
  C   C38       1.0  0.83237  0.21334  0.37672  1.0000
  N   N21       1.0  0.85287  0.25947  0.37586  1.0000
  C   C39       1.0  0.82795  0.28056  0.37496  1.0000
  N   N22       1.0  0.78254  0.25486  0.37429  1.0000
  N   N23       1.0  0.84218  0.32424  0.37281  1.0000
  H   H14       1.0  0.33870  0.21862  0.37143  1.0000
  C   C40       1.0  0.87620  0.40106  0.37435  1.0000
  C   C41       1.0  0.86879  0.42158  0.45279  1.0000
  C   C42       1.0  0.85944  0.45716  0.44028  1.0000
  H   H15       1.0  0.85151  0.46973  0.49697  1.0000
  N   N24       1.0  0.86710  0.40702  0.54486  1.0000
  O   O16       1.0  0.83510  0.36742  0.55731  1.0000
  O   O17       1.0  0.90352  0.40926  0.56853  1.0000
  C   C43       1.0  0.87903  0.36203  0.38106  1.0000
  H   H16       1.0  0.90828  0.36353  0.39407  1.0000
  C   C44       1.0  0.61347  0.45568  0.45291  1.0000
  C   C45       1.0  0.57791  0.41075  0.44033  1.0000
  H   H17       1.0  0.56521  0.39025  0.49699  1.0000
  N   N25       1.0  0.62791  0.46859  0.54501  1.0000
  O   O18       1.0  0.66752  0.47625  0.55770  1.0000
  C   C46       1.0  0.92875  0.84554  0.36780  1.0000
  C   C47       1.0  0.91994  0.82038  0.28495  1.0000
  C   C48       1.0  0.90371  0.77317  0.28920  1.0000
  H   H18       1.0  0.89814  0.75564  0.22879  1.0000
  N   N26       1.0  0.92761  0.84296  0.19923  1.0000
  O   O19       1.0  0.95665  0.83954  0.15220  1.0000
  O   O20       1.0  0.89182  0.82753  0.15294  1.0000
  C   C49       1.0  0.94097  0.89104  0.36754  1.0000
  H   H19       1.0  0.91620  0.89832  0.36651  1.0000
  O   O21       1.0  0.89266  0.47932  0.13625  1.0000
  C   C50       1.0  0.83465  0.49755  0.34184  1.0000
  H   H20       1.0  0.80494  0.48194  0.30949  1.0000
  H   H21       1.0  0.63370  0.48461  0.22863  1.0000
  C   C51       1.0  0.00032  0.96811  0.36805  1.0000
  N   N27       1.0  0.04616  0.99465  0.36802  1.0000
  N   N28       1.0  0.97510  0.98897  0.36818  1.0000
  N   N29       1.0  0.98252  0.92321  0.36824  1.0000
  C   C52       1.0  0.82177  0.62751  0.37685  1.0000
  N   N30       1.0  0.77564  0.60189  0.37605  1.0000
  C   C53       1.0  0.75454  0.55589  0.37507  1.0000
  N   N31       1.0  0.78024  0.53616  0.37428  1.0000
  C   C54       1.0  0.82605  0.55992  0.37421  1.0000
  N   N32       1.0  0.84647  0.60591  0.37647  1.0000
  N   N33       1.0  0.84041  0.67253  0.37695  1.0000
  N   N34       1.0  0.84872  0.53734  0.37601  1.0000
  N   N35       1.0  0.71087  0.52644  0.37292  1.0000
  C   C55       1.0  0.89500  0.74990  0.37409  1.0000
  C   C56       1.0  0.90390  0.77508  0.45694  1.0000
  C   C57       1.0  0.92017  0.82230  0.45271  1.0000
  H   H22       1.0  0.92565  0.83982  0.51310  1.0000
  N   N36       1.0  0.89626  0.75251  0.54265  1.0000
  O   O22       1.0  0.86728  0.75599  0.58976  1.0000
  O   O23       1.0  0.93208  0.76792  0.58883  1.0000
  C   C58       1.0  0.88215  0.70422  0.37423  1.0000
  H   H23       1.0  0.90653  0.69643  0.37128  1.0000
  C   C59       1.0  0.63404  0.48359  0.37447  1.0000
  O   O24       1.0  0.62560  0.50275  0.56848  1.0000
  C   C60       1.0  0.67306  0.52547  0.38122  1.0000
  H   H24       1.0  0.67155  0.55320  0.39428  1.0000
