data_image0
_chemical_formula_structural       C5N3HCN3HCN3HC5H3C2O3C5H3C2O3C3NH3NHC3NH3NHC3NH3NHC5N3HCN3HCN3HC5H3C2O3C5H3C2O3C3NH3NHC3NH3NHC3NH3NHC5N3HCN3HCN3HC5H3C2O3C5H3C2O3C3NH3NHC3NH3NHC3NH3NHC5N3HCN3HCN3HC5H3C2O3C5H3C2O3C3NH3NHC3NH3NHC3NH3NH
_chemical_formula_sum              "C120 N60 H84 O24"
_cell_length_a       43.6226
_cell_length_b       43.6226
_cell_length_c       15.0546
_cell_angle_alpha    90
_cell_angle_beta     90
_cell_angle_gamma    120

_space_group_name_H-M_alt    "P 1"
_space_group_IT_number       1

loop_
  _space_group_symop_operation_xyz
  'x, y, z'

loop_
  _atom_site_type_symbol
  _atom_site_label
  _atom_site_symmetry_multiplicity
  _atom_site_fract_x
  _atom_site_fract_y
  _atom_site_fract_z
  _atom_site_occupancy
  C   C1        1.0  0.19083  0.32167  0.24857  1.0000
  C   C2        1.0  0.21765  0.31267  0.26237  1.0000
  C   C3        1.0  0.30523  0.17667  0.41083  1.0000
  C   C4        1.0  0.27986  0.18796  0.40376  1.0000
  C   C5        1.0  0.23208  0.26760  0.30848  1.0000
  N   N1        1.0  0.24284  0.22064  0.32914  1.0000
  N   N2        1.0  0.22573  0.23442  0.29088  1.0000
  N   N3        1.0  0.21202  0.27896  0.26567  1.0000
  H   H1        1.0  0.19180  0.26089  0.23299  1.0000
  C   C6        1.0  0.22786  0.46356  0.30847  1.0000
  N   N4        1.0  0.27483  0.02129  0.32902  1.0000
  N   N5        1.0  0.26104  0.49040  0.29078  1.0000
  N   N6        1.0  0.21647  0.43214  0.26563  1.0000
  H   H2        1.0  0.23452  0.42998  0.23287  1.0000
  C   C7        1.0  0.03188  0.26339  0.30846  1.0000
  N   N7        1.0  0.47416  0.25263  0.32908  1.0000
  N   N8        1.0  0.00504  0.26972  0.29079  1.0000
  N   N9        1.0  0.06328  0.28340  0.26552  1.0000
  H   H3        1.0  0.06544  0.30362  0.23279  1.0000
  C   C8        1.0  0.17375  0.36823  0.24866  1.0000
  C   C9        1.0  0.13780  0.34102  0.24773  1.0000
  C   C10       1.0  0.12718  0.30459  0.24853  1.0000
  C   C11       1.0  0.15440  0.29586  0.24771  1.0000
  C   C12       1.0  0.19957  0.35763  0.24765  1.0000
  H   H4        1.0  0.14731  0.26987  0.25335  1.0000
  H   H5        1.0  0.22556  0.37652  0.25352  1.0000
  H   H6        1.0  0.11890  0.34811  0.25338  1.0000
  C   C13       1.0  0.18276  0.40405  0.26243  1.0000
  C   C14       1.0  0.09136  0.27777  0.26228  1.0000
  O   O1        1.0  0.25158  0.33940  0.27147  1.0000
  O   O2        1.0  0.15603  0.41125  0.27168  1.0000
  O   O3        1.0  0.08416  0.24384  0.27143  1.0000
  C   C15       1.0  0.31878  0.12766  0.41069  1.0000
  C   C16       1.0  0.35524  0.15335  0.41053  1.0000
  C   C17       1.0  0.36780  0.19023  0.41079  1.0000
  C   C18       1.0  0.34211  0.20099  0.41058  1.0000
  C   C19       1.0  0.29447  0.14022  0.41055  1.0000
  H   H7        1.0  0.35071  0.22739  0.40574  1.0000
  H   H8        1.0  0.26806  0.12242  0.40569  1.0000
  H   H9        1.0  0.37305  0.14475  0.40558  1.0000
  C   C20       1.0  0.30750  0.09101  0.40359  1.0000
  C   C21       1.0  0.40445  0.21559  0.40366  1.0000
  O   O4        1.0  0.24605  0.16347  0.38245  1.0000
  O   O5        1.0  0.33200  0.08169  0.38232  1.0000
  O   O6        1.0  0.41377  0.24942  0.38250  1.0000
  C   C22       1.0  0.25729  0.28639  0.37556  1.0000
  C   C23       1.0  0.27555  0.27156  0.41928  1.0000
  C   C24       1.0  0.26822  0.23721  0.39235  1.0000
  N   N10       1.0  0.29815  0.29040  0.48630  1.0000
  H   H10       1.0  0.30176  0.31347  0.50377  1.0000
  H   H11       1.0  0.30919  0.28059  0.52373  1.0000
  H   H12       1.0  0.26088  0.31014  0.39723  1.0000
  N   N11       1.0  0.28710  0.22174  0.42024  1.0000
  H   H13       1.0  0.30846  0.23656  0.45348  1.0000
  C   C25       1.0  0.20911  0.46998  0.37563  1.0000
  C   C26       1.0  0.22395  0.00308  0.41931  1.0000
  C   C27       1.0  0.25828  0.03011  0.39227  1.0000
  N   N12       1.0  0.20515  0.00687  0.48642  1.0000
  H   H14       1.0  0.18220  0.98730  0.50434  1.0000
  H   H15       1.0  0.21513  0.02760  0.52422  1.0000
  H   H16       1.0  0.18536  0.44985  0.39732  1.0000
  N   N13       1.0  0.27373  0.06446  0.42012  1.0000
  H   H17       1.0  0.25890  0.07100  0.45333  1.0000
  C   C28       1.0  0.02546  0.23819  0.37555  1.0000
  C   C29       1.0  0.49237  0.21994  0.41929  1.0000
  C   C30       1.0  0.46535  0.22727  0.39235  1.0000
  N   N14       1.0  0.48859  0.19734  0.48633  1.0000
  H   H18       1.0  0.50814  0.19393  0.50418  1.0000
  H   H19       1.0  0.46786  0.18659  0.52416  1.0000
  H   H20       1.0  0.04559  0.23455  0.39716  1.0000
  N   N15       1.0  0.43099  0.20836  0.42018  1.0000
  H   H21       1.0  0.42446  0.18699  0.45336  1.0000
  C   C31       1.0  0.19083  0.82167  0.24857  1.0000
  C   C32       1.0  0.21765  0.81267  0.26237  1.0000
  C   C33       1.0  0.30523  0.67667  0.41083  1.0000
  C   C34       1.0  0.27986  0.68796  0.40376  1.0000
  C   C35       1.0  0.23208  0.76760  0.30848  1.0000
  N   N16       1.0  0.24284  0.72064  0.32914  1.0000
  N   N17       1.0  0.22573  0.73442  0.29088  1.0000
  N   N18       1.0  0.21202  0.77896  0.26567  1.0000
  H   H22       1.0  0.19180  0.76089  0.23299  1.0000
  C   C36       1.0  0.22786  0.96356  0.30847  1.0000
  N   N19       1.0  0.27483  0.52129  0.32902  1.0000
  N   N20       1.0  0.26104  0.99040  0.29078  1.0000
  N   N21       1.0  0.21647  0.93214  0.26563  1.0000
  H   H23       1.0  0.23452  0.92998  0.23287  1.0000
  C   C37       1.0  0.03188  0.76339  0.30846  1.0000
  N   N22       1.0  0.47416  0.75263  0.32908  1.0000
  N   N23       1.0  0.00504  0.76972  0.29079  1.0000
  N   N24       1.0  0.06328  0.78340  0.26552  1.0000
  H   H24       1.0  0.06544  0.80361  0.23279  1.0000
  C   C38       1.0  0.17375  0.86823  0.24866  1.0000
  C   C39       1.0  0.13780  0.84102  0.24773  1.0000
  C   C40       1.0  0.12718  0.80459  0.24853  1.0000
  C   C41       1.0  0.15440  0.79586  0.24771  1.0000
  C   C42       1.0  0.19957  0.85762  0.24765  1.0000
  H   H25       1.0  0.14731  0.76987  0.25335  1.0000
  H   H26       1.0  0.22556  0.87652  0.25352  1.0000
  H   H27       1.0  0.11890  0.84811  0.25338  1.0000
  C   C43       1.0  0.18276  0.90405  0.26243  1.0000
  C   C44       1.0  0.09136  0.77777  0.26228  1.0000
  O   O7        1.0  0.25158  0.83940  0.27147  1.0000
  O   O8        1.0  0.15603  0.91125  0.27168  1.0000
  O   O9        1.0  0.08416  0.74384  0.27143  1.0000
  C   C45       1.0  0.31878  0.62766  0.41069  1.0000
  C   C46       1.0  0.35524  0.65335  0.41053  1.0000
  C   C47       1.0  0.36780  0.69023  0.41079  1.0000
  C   C48       1.0  0.34211  0.70099  0.41058  1.0000
  C   C49       1.0  0.29447  0.64022  0.41055  1.0000
  H   H28       1.0  0.35070  0.72739  0.40574  1.0000
  H   H29       1.0  0.26806  0.62242  0.40569  1.0000
  H   H30       1.0  0.37305  0.64475  0.40558  1.0000
  C   C50       1.0  0.30750  0.59101  0.40359  1.0000
  C   C51       1.0  0.40445  0.71559  0.40366  1.0000
  O   O10       1.0  0.24605  0.66347  0.38245  1.0000
  O   O11       1.0  0.33200  0.58169  0.38232  1.0000
  O   O12       1.0  0.41377  0.74942  0.38250  1.0000
  C   C52       1.0  0.25729  0.78639  0.37556  1.0000
  C   C53       1.0  0.27555  0.77156  0.41928  1.0000
  C   C54       1.0  0.26822  0.73721  0.39235  1.0000
  N   N25       1.0  0.29815  0.79040  0.48630  1.0000
  H   H31       1.0  0.30176  0.81347  0.50377  1.0000
  H   H32       1.0  0.30919  0.78059  0.52373  1.0000
  H   H33       1.0  0.26088  0.81013  0.39723  1.0000
  N   N26       1.0  0.28710  0.72174  0.42024  1.0000
  H   H34       1.0  0.30846  0.73656  0.45348  1.0000
  C   C55       1.0  0.20911  0.96998  0.37563  1.0000
  C   C56       1.0  0.22395  0.50309  0.41931  1.0000
  C   C57       1.0  0.25828  0.53011  0.39227  1.0000
  N   N27       1.0  0.20515  0.50687  0.48642  1.0000
  H   H35       1.0  0.18220  0.48730  0.50434  1.0000
  H   H36       1.0  0.21513  0.52760  0.52422  1.0000
  H   H37       1.0  0.18536  0.94985  0.39732  1.0000
  N   N28       1.0  0.27373  0.56446  0.42012  1.0000
  H   H38       1.0  0.25890  0.57100  0.45333  1.0000
  C   C58       1.0  0.02546  0.73819  0.37555  1.0000
  C   C59       1.0  0.49237  0.71994  0.41929  1.0000
  C   C60       1.0  0.46535  0.72728  0.39235  1.0000
  N   N29       1.0  0.48859  0.69734  0.48633  1.0000
  H   H39       1.0  0.50814  0.69392  0.50418  1.0000
  H   H40       1.0  0.46786  0.68659  0.52416  1.0000
  H   H41       1.0  0.04559  0.73455  0.39716  1.0000
  N   N30       1.0  0.43099  0.70836  0.42018  1.0000
  H   H42       1.0  0.42446  0.68699  0.45336  1.0000
  C   C61       1.0  0.69083  0.32167  0.24857  1.0000
  C   C62       1.0  0.71765  0.31267  0.26237  1.0000
  C   C63       1.0  0.80523  0.17667  0.41083  1.0000
  C   C64       1.0  0.77987  0.18796  0.40376  1.0000
  C   C65       1.0  0.73208  0.26760  0.30848  1.0000
  N   N31       1.0  0.74284  0.22064  0.32914  1.0000
  N   N32       1.0  0.72573  0.23442  0.29088  1.0000
  N   N33       1.0  0.71202  0.27896  0.26567  1.0000
  H   H43       1.0  0.69180  0.26089  0.23299  1.0000
  C   C66       1.0  0.72786  0.46356  0.30847  1.0000
  N   N34       1.0  0.77483  0.02129  0.32902  1.0000
  N   N35       1.0  0.76103  0.49040  0.29078  1.0000
  N   N36       1.0  0.71647  0.43214  0.26563  1.0000
  H   H44       1.0  0.73452  0.42998  0.23287  1.0000
  C   C67       1.0  0.53188  0.26339  0.30846  1.0000
  N   N37       1.0  0.97416  0.25263  0.32908  1.0000
  N   N38       1.0  0.50504  0.26972  0.29079  1.0000
  N   N39       1.0  0.56328  0.28340  0.26552  1.0000
  H   H45       1.0  0.56544  0.30362  0.23279  1.0000
  C   C68       1.0  0.67375  0.36823  0.24866  1.0000
  C   C69       1.0  0.63780  0.34102  0.24773  1.0000
  C   C70       1.0  0.62718  0.30459  0.24853  1.0000
  C   C71       1.0  0.65440  0.29586  0.24771  1.0000
  C   C72       1.0  0.69957  0.35763  0.24765  1.0000
  H   H46       1.0  0.64731  0.26987  0.25335  1.0000
  H   H47       1.0  0.72556  0.37652  0.25352  1.0000
  H   H48       1.0  0.61890  0.34811  0.25338  1.0000
  C   C73       1.0  0.68276  0.40405  0.26243  1.0000
  C   C74       1.0  0.59136  0.27777  0.26228  1.0000
  O   O13       1.0  0.75158  0.33940  0.27147  1.0000
  O   O14       1.0  0.65603  0.41125  0.27168  1.0000
  O   O15       1.0  0.58416  0.24384  0.27143  1.0000
  C   C75       1.0  0.81878  0.12766  0.41069  1.0000
  C   C76       1.0  0.85524  0.15335  0.41053  1.0000
  C   C77       1.0  0.86780  0.19023  0.41079  1.0000
  C   C78       1.0  0.84210  0.20099  0.41058  1.0000
  C   C79       1.0  0.79447  0.14022  0.41055  1.0000
  H   H49       1.0  0.85070  0.22739  0.40574  1.0000
  H   H50       1.0  0.76806  0.12242  0.40569  1.0000
  H   H51       1.0  0.87304  0.14475  0.40558  1.0000
  C   C80       1.0  0.80750  0.09101  0.40359  1.0000
  C   C81       1.0  0.90445  0.21559  0.40366  1.0000
  O   O16       1.0  0.74605  0.16347  0.38245  1.0000
  O   O17       1.0  0.83200  0.08169  0.38232  1.0000
  O   O18       1.0  0.91377  0.24942  0.38250  1.0000
  C   C82       1.0  0.75729  0.28639  0.37556  1.0000
  C   C83       1.0  0.77555  0.27156  0.41928  1.0000
  C   C84       1.0  0.76822  0.23721  0.39235  1.0000
  N   N40       1.0  0.79815  0.29040  0.48630  1.0000
  H   H52       1.0  0.80176  0.31347  0.50377  1.0000
  H   H53       1.0  0.80919  0.28059  0.52373  1.0000
  H   H54       1.0  0.76088  0.31014  0.39723  1.0000
  N   N41       1.0  0.78710  0.22174  0.42024  1.0000
  H   H55       1.0  0.80846  0.23656  0.45348  1.0000
  C   C85       1.0  0.70911  0.46998  0.37563  1.0000
  C   C86       1.0  0.72395  0.00308  0.41931  1.0000
  C   C87       1.0  0.75828  0.03011  0.39227  1.0000
  N   N42       1.0  0.70515  0.00687  0.48642  1.0000
  H   H56       1.0  0.68220  0.98730  0.50434  1.0000
  H   H57       1.0  0.71513  0.02760  0.52422  1.0000
  H   H58       1.0  0.68536  0.44985  0.39732  1.0000
  N   N43       1.0  0.77373  0.06446  0.42012  1.0000
  H   H59       1.0  0.75890  0.07100  0.45333  1.0000
  C   C88       1.0  0.52546  0.23819  0.37555  1.0000
  C   C89       1.0  0.99237  0.21994  0.41929  1.0000
  C   C90       1.0  0.96535  0.22727  0.39235  1.0000
  N   N44       1.0  0.98859  0.19734  0.48633  1.0000
  H   H60       1.0  0.00814  0.19393  0.50418  1.0000
  H   H61       1.0  0.96786  0.18659  0.52416  1.0000
  H   H62       1.0  0.54559  0.23455  0.39716  1.0000
  N   N45       1.0  0.93099  0.20836  0.42018  1.0000
  H   H63       1.0  0.92446  0.18699  0.45336  1.0000
  C   C91       1.0  0.69083  0.82167  0.24857  1.0000
  C   C92       1.0  0.71765  0.81267  0.26237  1.0000
  C   C93       1.0  0.80523  0.67667  0.41083  1.0000
  C   C94       1.0  0.77986  0.68796  0.40376  1.0000
  C   C95       1.0  0.73208  0.76760  0.30848  1.0000
  N   N46       1.0  0.74284  0.72064  0.32914  1.0000
  N   N47       1.0  0.72573  0.73442  0.29088  1.0000
  N   N48       1.0  0.71202  0.77896  0.26567  1.0000
  H   H64       1.0  0.69180  0.76089  0.23299  1.0000
  C   C96       1.0  0.72786  0.96356  0.30847  1.0000
  N   N49       1.0  0.77483  0.52129  0.32902  1.0000
  N   N50       1.0  0.76103  0.99040  0.29078  1.0000
  N   N51       1.0  0.71647  0.93214  0.26563  1.0000
  H   H65       1.0  0.73452  0.92998  0.23287  1.0000
  C   C97       1.0  0.53188  0.76339  0.30846  1.0000
  N   N52       1.0  0.97416  0.75263  0.32908  1.0000
  N   N53       1.0  0.50504  0.76972  0.29079  1.0000
  N   N54       1.0  0.56328  0.78340  0.26552  1.0000
  H   H66       1.0  0.56544  0.80361  0.23279  1.0000
  C   C98       1.0  0.67375  0.86823  0.24866  1.0000
  C   C99       1.0  0.63780  0.84102  0.24773  1.0000
  C   C100      1.0  0.62718  0.80459  0.24853  1.0000
  C   C101      1.0  0.65439  0.79586  0.24771  1.0000
  C   C102      1.0  0.69957  0.85762  0.24765  1.0000
  H   H67       1.0  0.64731  0.76987  0.25335  1.0000
  H   H68       1.0  0.72556  0.87652  0.25352  1.0000
  H   H69       1.0  0.61890  0.84811  0.25338  1.0000
  C   C103      1.0  0.68276  0.90405  0.26243  1.0000
  C   C104      1.0  0.59136  0.77777  0.26228  1.0000
  O   O19       1.0  0.75158  0.83940  0.27147  1.0000
  O   O20       1.0  0.65603  0.91125  0.27168  1.0000
  O   O21       1.0  0.58416  0.74384  0.27143  1.0000
  C   C105      1.0  0.81879  0.62766  0.41069  1.0000
  C   C106      1.0  0.85524  0.65335  0.41053  1.0000
  C   C107      1.0  0.86780  0.69023  0.41079  1.0000
  C   C108      1.0  0.84211  0.70099  0.41058  1.0000
  C   C109      1.0  0.79447  0.64022  0.41055  1.0000
  H   H70       1.0  0.85071  0.72739  0.40574  1.0000
  H   H71       1.0  0.76806  0.62242  0.40569  1.0000
  H   H72       1.0  0.87305  0.64475  0.40558  1.0000
  C   C110      1.0  0.80749  0.59101  0.40359  1.0000
  C   C111      1.0  0.90445  0.71559  0.40366  1.0000
  O   O22       1.0  0.74605  0.66347  0.38245  1.0000
  O   O23       1.0  0.83200  0.58169  0.38232  1.0000
  O   O24       1.0  0.91377  0.74942  0.38250  1.0000
  C   C112      1.0  0.75729  0.78639  0.37556  1.0000
  C   C113      1.0  0.77555  0.77156  0.41928  1.0000
  C   C114      1.0  0.76822  0.73721  0.39235  1.0000
  N   N55       1.0  0.79815  0.79040  0.48630  1.0000
  H   H73       1.0  0.80176  0.81347  0.50377  1.0000
  H   H74       1.0  0.80919  0.78059  0.52373  1.0000
  H   H75       1.0  0.76088  0.81013  0.39723  1.0000
  N   N56       1.0  0.78710  0.72174  0.42024  1.0000
  H   H76       1.0  0.80846  0.73656  0.45348  1.0000
  C   C115      1.0  0.70911  0.96998  0.37563  1.0000
  C   C116      1.0  0.72395  0.50309  0.41931  1.0000
  C   C117      1.0  0.75828  0.53011  0.39227  1.0000
  N   N57       1.0  0.70515  0.50687  0.48642  1.0000
  H   H77       1.0  0.68220  0.48730  0.50434  1.0000
  H   H78       1.0  0.71513  0.52760  0.52422  1.0000
  H   H79       1.0  0.68536  0.94985  0.39732  1.0000
  N   N58       1.0  0.77373  0.56446  0.42012  1.0000
  H   H80       1.0  0.75890  0.57100  0.45333  1.0000
  C   C118      1.0  0.52546  0.73819  0.37555  1.0000
  C   C119      1.0  0.99237  0.71994  0.41929  1.0000
  C   C120      1.0  0.96535  0.72728  0.39235  1.0000
  N   N59       1.0  0.98859  0.69734  0.48633  1.0000
  H   H81       1.0  0.00814  0.69392  0.50418  1.0000
  H   H82       1.0  0.96786  0.68659  0.52416  1.0000
  H   H83       1.0  0.54559  0.73455  0.39716  1.0000
  N   N60       1.0  0.93099  0.70836  0.42018  1.0000
  H   H84       1.0  0.92446  0.68699  0.45336  1.0000
