data_image0
_chemical_formula_structural       HN2C5H3CH3C5H3CH3C5H3CH3C2H2C2H2C2H2C3NC18H11CNCNCNC18H12CNCNCNC18H12CNCNCNC18H12C2H2C2H2C2H2C5H3CH3C5H3CH3C5H3CH3
_chemical_formula_sum              "H96 N12 C132"
_cell_length_a       44.9219
_cell_length_b       44.9218
_cell_length_c       14.992
_cell_angle_alpha    90
_cell_angle_beta     90
_cell_angle_gamma    120

_space_group_name_H-M_alt    "P 1"
_space_group_IT_number       1

loop_
  _space_group_symop_operation_xyz
  'x, y, z'

loop_
  _atom_site_type_symbol
  _atom_site_label
  _atom_site_symmetry_multiplicity
  _atom_site_fract_x
  _atom_site_fract_y
  _atom_site_fract_z
  _atom_site_occupancy
  H   H1        1.0  0.00041  0.91765  0.34746  1.0000
  N   N1        1.0  0.00969  0.97917  0.34602  1.0000
  N   N2        1.0  0.00949  0.03067  0.34603  1.0000
  C   C1        1.0  0.24719  0.12429  0.32197  1.0000
  C   C2        1.0  0.17428  0.08783  0.32489  1.0000
  C   C3        1.0  0.19181  0.10352  0.24376  1.0000
  C   C4        1.0  0.22870  0.12198  0.24230  1.0000
  C   C5        1.0  0.17211  0.10034  0.16014  1.0000
  H   H2        1.0  0.14431  0.08528  0.16744  1.0000
  H   H3        1.0  0.17893  0.08780  0.10821  1.0000
  H   H4        1.0  0.17821  0.12581  0.13705  1.0000
  C   C6        1.0  0.24740  0.13805  0.15716  1.0000
  H   H5        1.0  0.27528  0.15090  0.16228  1.0000
  H   H6        1.0  0.24097  0.15723  0.13457  1.0000
  H   H7        1.0  0.24003  0.11840  0.10580  1.0000
  C   C7        1.0  0.86433  0.12300  0.32194  1.0000
  C   C8        1.0  0.90081  0.08658  0.32491  1.0000
  C   C9        1.0  0.88512  0.08841  0.24377  1.0000
  C   C10       1.0  0.86665  0.10683  0.24227  1.0000
  C   C11       1.0  0.88831  0.07188  0.16016  1.0000
  H   H8        1.0  0.90338  0.05915  0.16748  1.0000
  H   H9        1.0  0.90085  0.09124  0.10823  1.0000
  H   H10       1.0  0.86285  0.05251  0.13707  1.0000
  C   C12       1.0  0.85059  0.10946  0.15712  1.0000
  H   H11       1.0  0.83773  0.12448  0.16221  1.0000
  H   H12       1.0  0.83141  0.08383  0.13453  1.0000
  H   H13       1.0  0.87024  0.12174  0.10576  1.0000
  C   C13       1.0  0.86561  0.74148  0.32198  1.0000
  C   C14       1.0  0.90206  0.81439  0.32490  1.0000
  C   C15       1.0  0.90022  0.79685  0.24378  1.0000
  C   C16       1.0  0.88178  0.75996  0.24230  1.0000
  C   C17       1.0  0.91674  0.81656  0.16015  1.0000
  H   H14       1.0  0.92948  0.84436  0.16746  1.0000
  H   H15       1.0  0.89738  0.80974  0.10822  1.0000
  H   H16       1.0  0.93611  0.81046  0.13707  1.0000
  C   C18       1.0  0.87915  0.74126  0.15716  1.0000
  H   H17       1.0  0.86413  0.71338  0.16227  1.0000
  H   H18       1.0  0.90477  0.74770  0.13457  1.0000
  H   H19       1.0  0.86687  0.74863  0.10580  1.0000
  C   C19       1.0  0.54214  0.12723  0.26840  1.0000
  C   C20       1.0  0.57333  0.12729  0.26846  1.0000
  H   H20       1.0  0.58390  0.12687  0.20818  1.0000
  H   H21       1.0  0.53121  0.12680  0.20804  1.0000
  C   C21       1.0  0.86133  0.41501  0.26852  1.0000
  C   C22       1.0  0.86127  0.44614  0.26855  1.0000
  H   H22       1.0  0.86169  0.45711  0.20825  1.0000
  H   H23       1.0  0.86176  0.40451  0.20814  1.0000
  C   C23       1.0  0.57360  0.44651  0.26842  1.0000
  C   C24       1.0  0.54251  0.41528  0.26850  1.0000
  H   H24       1.0  0.53154  0.40472  0.20820  1.0000
  H   H25       1.0  0.58410  0.45745  0.20805  1.0000
  C   C25       1.0  0.97475  0.96078  0.34624  1.0000
  C   C26       1.0  0.02788  0.01412  0.34622  1.0000
  C   C27       1.0  0.97454  0.01391  0.34626  1.0000
  N   N3        1.0  0.95798  0.97897  0.34604  1.0000
  C   C28       1.0  0.06456  0.03257  0.34393  1.0000
  C   C29       1.0  0.08353  0.01513  0.33945  1.0000
  C   C30       1.0  0.11964  0.03326  0.33430  1.0000
  C   C31       1.0  0.13794  0.06952  0.33341  1.0000
  C   C32       1.0  0.11949  0.08726  0.33933  1.0000
  C   C33       1.0  0.08338  0.06903  0.34436  1.0000
  C   C34       1.0  0.95652  0.92410  0.34396  1.0000
  C   C35       1.0  0.97416  0.90529  0.34438  1.0000
  C   C36       1.0  0.95628  0.86917  0.33936  1.0000
  C   C37       1.0  0.92009  0.85072  0.33343  1.0000
  C   C38       1.0  0.90213  0.86902  0.33434  1.0000
  C   C39       1.0  0.92011  0.90513  0.33948  1.0000
  C   C40       1.0  0.95608  0.03214  0.34398  1.0000
  C   C41       1.0  0.91963  0.01449  0.34442  1.0000
  C   C42       1.0  0.90139  0.03236  0.33941  1.0000
  C   C43       1.0  0.91913  0.06856  0.33346  1.0000
  C   C44       1.0  0.95539  0.08652  0.33435  1.0000
  C   C45       1.0  0.97352  0.06855  0.33950  1.0000
  H   H26       1.0  0.96989  0.85647  0.33873  1.0000
  H   H27       1.0  0.87587  0.85623  0.32972  1.0000
  H   H28       1.0  0.90609  0.91739  0.33869  1.0000
  H   H29       1.0  0.90575  0.98824  0.34754  1.0000
  H   H30       1.0  0.87507  0.01875  0.33881  1.0000
  H   H31       1.0  0.99979  0.08256  0.33865  1.0000
  H   H32       1.0  0.96884  0.11278  0.32968  1.0000
  H   H33       1.0  0.07101  0.08291  0.34746  1.0000
  H   H34       1.0  0.13219  0.11358  0.33874  1.0000
  H   H35       1.0  0.13243  0.01979  0.32970  1.0000
  H   H36       1.0  0.07127  0.98885  0.33866  1.0000
  C   C46       1.0  0.44684  0.19689  0.32485  1.0000
  N   N4        1.0  0.41192  0.18018  0.32715  1.0000
  C   C47       1.0  0.39378  0.19713  0.32834  1.0000
  N   N5        1.0  0.41203  0.23221  0.32753  1.0000
  C   C48       1.0  0.44696  0.25032  0.32523  1.0000
  N   N6        1.0  0.46314  0.23170  0.32422  1.0000
  C   C49       1.0  0.35708  0.17886  0.32992  1.0000
  C   C50       1.0  0.33808  0.14243  0.32659  1.0000
  C   C51       1.0  0.30192  0.12441  0.32535  1.0000
  C   C52       1.0  0.28360  0.14234  0.32747  1.0000
  C   C53       1.0  0.30210  0.17855  0.33246  1.0000
  C   C54       1.0  0.33826  0.19647  0.33351  1.0000
  C   C55       1.0  0.46654  0.17992  0.32576  1.0000
  C   C56       1.0  0.45112  0.14373  0.33396  1.0000
  C   C57       1.0  0.47126  0.12771  0.33917  1.0000
  C   C58       1.0  0.50747  0.14763  0.33657  1.0000
  C   C59       1.0  0.52304  0.18358  0.32667  1.0000
  C   C60       1.0  0.50294  0.19935  0.32104  1.0000
  C   C61       1.0  0.46676  0.28698  0.32633  1.0000
  C   C62       1.0  0.50315  0.30384  0.32204  1.0000
  C   C63       1.0  0.52334  0.33971  0.32755  1.0000
  C   C64       1.0  0.50784  0.36017  0.33701  1.0000
  C   C65       1.0  0.47164  0.34399  0.33916  1.0000
  C   C66       1.0  0.45142  0.30784  0.33408  1.0000
  H   H37       1.0  0.45945  0.10163  0.34725  1.0000
  H   H38       1.0  0.42498  0.12862  0.33810  1.0000
  H   H39       1.0  0.54927  0.19872  0.32499  1.0000
  H   H40       1.0  0.51561  0.22553  0.31513  1.0000
  H   H41       1.0  0.51576  0.29026  0.31637  1.0000
  H   H42       1.0  0.54957  0.35074  0.32609  1.0000
  H   H43       1.0  0.42528  0.29688  0.33793  1.0000
  H   H44       1.0  0.45988  0.35832  0.34696  1.0000
  H   H45       1.0  0.35064  0.22273  0.33601  1.0000
  H   H46       1.0  0.28938  0.19214  0.33382  1.0000
  H   H47       1.0  0.28907  0.09814  0.32120  1.0000
  H   H48       1.0  0.35032  0.12842  0.32358  1.0000
  C   C67       1.0  0.79168  0.25002  0.32483  1.0000
  N   N7        1.0  0.80839  0.23180  0.32711  1.0000
  C   C68       1.0  0.79145  0.19672  0.32829  1.0000
  N   N8        1.0  0.75637  0.17989  0.32750  1.0000
  C   C69       1.0  0.73825  0.19669  0.32520  1.0000
  N   N9        1.0  0.75687  0.23150  0.32421  1.0000
  C   C70       1.0  0.80973  0.17831  0.32986  1.0000
  C   C71       1.0  0.84616  0.19574  0.32653  1.0000
  C   C72       1.0  0.86419  0.17761  0.32531  1.0000
  C   C73       1.0  0.84627  0.14136  0.32741  1.0000
  C   C74       1.0  0.81006  0.12364  0.33236  1.0000
  C   C75       1.0  0.79213  0.14187  0.33344  1.0000
  C   C76       1.0  0.80864  0.28669  0.32575  1.0000
  C   C77       1.0  0.84484  0.30746  0.33389  1.0000
  C   C78       1.0  0.86084  0.34362  0.33914  1.0000
  C   C79       1.0  0.84090  0.35989  0.33665  1.0000
  C   C80       1.0  0.80496  0.33951  0.32673  1.0000
  C   C81       1.0  0.78920  0.30364  0.32110  1.0000
  C   C82       1.0  0.70159  0.17983  0.32634  1.0000
  C   C83       1.0  0.68472  0.19935  0.32210  1.0000
  C   C84       1.0  0.64885  0.18366  0.32760  1.0000
  C   C85       1.0  0.62840  0.14770  0.33704  1.0000
  C   C86       1.0  0.64459  0.12769  0.33920  1.0000
  C   C87       1.0  0.68074  0.14362  0.33406  1.0000
  H   H49       1.0  0.88692  0.35789  0.34727  1.0000
  H   H50       1.0  0.85994  0.29643  0.33807  1.0000
  H   H51       1.0  0.78981  0.35059  0.32507  1.0000
  H   H52       1.0  0.76301  0.29012  0.31513  1.0000
  H   H53       1.0  0.69830  0.22555  0.31645  1.0000
  H   H54       1.0  0.63782  0.19885  0.32617  1.0000
  H   H55       1.0  0.69171  0.12845  0.33787  1.0000
  H   H56       1.0  0.63026  0.10160  0.34691  1.0000
  H   H57       1.0  0.76587  0.12798  0.33593  1.0000
  H   H58       1.0  0.79647  0.09733  0.33374  1.0000
  H   H59       1.0  0.89046  0.19104  0.32120  1.0000
  H   H60       1.0  0.86016  0.22199  0.32359  1.0000
  C   C88       1.0  0.73855  0.54182  0.32485  1.0000
  N   N10       1.0  0.75678  0.57675  0.32714  1.0000
  C   C89       1.0  0.79186  0.59488  0.32833  1.0000
  N   N11       1.0  0.80868  0.57663  0.32753  1.0000
  C   C90       1.0  0.79187  0.54170  0.32523  1.0000
  N   N12       1.0  0.75707  0.52553  0.32422  1.0000
  C   C91       1.0  0.81028  0.63158  0.32990  1.0000
  C   C92       1.0  0.79286  0.65058  0.32658  1.0000
  C   C93       1.0  0.81100  0.68675  0.32534  1.0000
  C   C94       1.0  0.84725  0.70506  0.32747  1.0000
  C   C95       1.0  0.86496  0.68656  0.33246  1.0000
  C   C96       1.0  0.84672  0.65040  0.33351  1.0000
  C   C97       1.0  0.70189  0.52212  0.32577  1.0000
  C   C98       1.0  0.68112  0.53755  0.33394  1.0000
  C   C99       1.0  0.64496  0.51741  0.33915  1.0000
  C   C100      1.0  0.62868  0.48120  0.33658  1.0000
  C   C101      1.0  0.64905  0.46563  0.32672  1.0000
  C   C102      1.0  0.68492  0.48573  0.32108  1.0000
  C   C103      1.0  0.80873  0.52191  0.32633  1.0000
  C   C104      1.0  0.78921  0.48551  0.32207  1.0000
  C   C105      1.0  0.80489  0.46533  0.32763  1.0000
  C   C106      1.0  0.84085  0.48083  0.33704  1.0000
  C   C107      1.0  0.86087  0.51703  0.33913  1.0000
  C   C108      1.0  0.84494  0.53725  0.33406  1.0000
  H   H61       1.0  0.63070  0.52923  0.34720  1.0000
  H   H62       1.0  0.69216  0.56369  0.33805  1.0000
  H   H63       1.0  0.63796  0.43939  0.32507  1.0000
  H   H64       1.0  0.69844  0.47305  0.31519  1.0000
  H   H65       1.0  0.76301  0.47290  0.31646  1.0000
  H   H66       1.0  0.78969  0.43910  0.32620  1.0000
  H   H67       1.0  0.86012  0.56339  0.33785  1.0000
  H   H68       1.0  0.88696  0.52879  0.34689  1.0000
  H   H69       1.0  0.86060  0.63802  0.33601  1.0000
  H   H70       1.0  0.89127  0.69928  0.33383  1.0000
  H   H71       1.0  0.79757  0.69959  0.32118  1.0000
  H   H72       1.0  0.76661  0.63835  0.32356  1.0000
  C   C109      1.0  0.22917  0.10816  0.40067  1.0000
  C   C110      1.0  0.19323  0.09019  0.40210  1.0000
  H   H73       1.0  0.18103  0.07909  0.46081  1.0000
  H   H74       1.0  0.24207  0.10961  0.45836  1.0000
  C   C111      1.0  0.88046  0.12113  0.40065  1.0000
  C   C112      1.0  0.89844  0.10317  0.40211  1.0000
  H   H75       1.0  0.90953  0.10207  0.46083  1.0000
  H   H76       1.0  0.87900  0.13258  0.45833  1.0000
  C   C113      1.0  0.86749  0.75949  0.40067  1.0000
  C   C114      1.0  0.88546  0.79543  0.40211  1.0000
  H   H77       1.0  0.88657  0.80763  0.46083  1.0000
  H   H78       1.0  0.85604  0.74658  0.45836  1.0000
  C   C115      1.0  0.52930  0.13348  0.34772  1.0000
  C   C116      1.0  0.59241  0.13360  0.34783  1.0000
  C   C117      1.0  0.57844  0.13686  0.43037  1.0000
  C   C118      1.0  0.54653  0.13683  0.43029  1.0000
  C   C119      1.0  0.59796  0.14245  0.51564  1.0000
  H   H79       1.0  0.62122  0.14080  0.50840  1.0000
  H   H80       1.0  0.58196  0.12292  0.56436  1.0000
  H   H81       1.0  0.60549  0.16782  0.54260  1.0000
  C   C120      1.0  0.53255  0.14242  0.51545  1.0000
  H   H82       1.0  0.50763  0.14074  0.50807  1.0000
  H   H83       1.0  0.55035  0.16781  0.54238  1.0000
  H   H84       1.0  0.52903  0.12292  0.56425  1.0000
  C   C121      1.0  0.85502  0.39585  0.34776  1.0000
  C   C122      1.0  0.85491  0.45893  0.34782  1.0000
  C   C123      1.0  0.85174  0.44171  0.43034  1.0000
  C   C124      1.0  0.85177  0.40984  0.43028  1.0000
  C   C125      1.0  0.84618  0.45566  0.51563  1.0000
  H   H85       1.0  0.84783  0.48057  0.50838  1.0000
  H   H86       1.0  0.86575  0.45921  0.56429  1.0000
  H   H87       1.0  0.82084  0.43783  0.54269  1.0000
  C   C126      1.0  0.84621  0.39028  0.51549  1.0000
  H   H88       1.0  0.84788  0.36704  0.50813  1.0000
  H   H89       1.0  0.82084  0.38272  0.54250  1.0000
  H   H90       1.0  0.86574  0.40628  0.56422  1.0000
  C   C127      1.0  0.59270  0.45937  0.34774  1.0000
  C   C128      1.0  0.52974  0.39614  0.34779  1.0000
  C   C129      1.0  0.54697  0.41019  0.43032  1.0000
  C   C130      1.0  0.57881  0.44213  0.43028  1.0000
  C   C131      1.0  0.53306  0.39067  0.51560  1.0000
  H   H91       1.0  0.50817  0.36737  0.50836  1.0000
  H   H92       1.0  0.52947  0.40665  0.56428  1.0000
  H   H93       1.0  0.55093  0.38320  0.54261  1.0000
  C   C132      1.0  0.59836  0.45614  0.51546  1.0000
  H   H94       1.0  0.62157  0.48109  0.50808  1.0000
  H   H95       1.0  0.60599  0.43838  0.54242  1.0000
  H   H96       1.0  0.58235  0.45963  0.56424  1.0000
