data_image0
_chemical_formula_structural       C2NC2NC2NC2NC2NC2N2CHNCHNCHNC18H12NC18H12NC18H12NC18H12NCHNCHNCHC2NC2NC2NC2NC2NC2N
_chemical_formula_sum              "C102 N22 H54"
_cell_length_a       38.633
_cell_length_b       38.633
_cell_length_c       14.7569
_cell_angle_alpha    90
_cell_angle_beta     90
_cell_angle_gamma    120

_space_group_name_H-M_alt    "P 1"
_space_group_IT_number       1

loop_
  _space_group_symop_operation_xyz
  'x, y, z'

loop_
  _atom_site_type_symbol
  _atom_site_label
  _atom_site_symmetry_multiplicity
  _atom_site_fract_x
  _atom_site_fract_y
  _atom_site_fract_z
  _atom_site_occupancy
  C   C1        1.0  0.17614  0.09224  0.34208  1.0000
  C   C2        1.0  0.26106  0.13177  0.35177  1.0000
  N   N1        1.0  0.24115  0.14330  0.29415  1.0000
  C   C3        1.0  0.20077  0.12565  0.28612  1.0000
  C   C4        1.0  0.18800  0.14271  0.23000  1.0000
  N   N2        1.0  0.17706  0.15792  0.17987  1.0000
  C   C5        1.0  0.91818  0.08881  0.33649  1.0000
  C   C6        1.0  0.87560  0.13115  0.34851  1.0000
  N   N3        1.0  0.88957  0.12518  0.26868  1.0000
  C   C7        1.0  0.90996  0.10516  0.25848  1.0000
  C   C8        1.0  0.92242  0.10473  0.17691  1.0000
  N   N4        1.0  0.93315  0.10443  0.10449  1.0000
  C   C9        1.0  0.91912  0.83209  0.34471  1.0000
  C   C10       1.0  0.87685  0.74724  0.35734  1.0000
  N   N5        1.0  0.88273  0.76705  0.27738  1.0000
  C   C11       1.0  0.90267  0.80741  0.26688  1.0000
  C   C12       1.0  0.90303  0.82012  0.18513  1.0000
  N   N6        1.0  0.90330  0.83098  0.11255  1.0000
  N   N7        1.0  0.62107  0.19665  0.28372  1.0000
  C   C13       1.0  0.58706  0.19836  0.27376  1.0000
  H   H1        1.0  0.58502  0.21385  0.21999  1.0000
  N   N8        1.0  0.81218  0.42776  0.28749  1.0000
  C   C14       1.0  0.81054  0.39212  0.27629  1.0000
  H   H2        1.0  0.79508  0.37489  0.22212  1.0000
  N   N9        1.0  0.58127  0.38779  0.28911  1.0000
  C   C15       1.0  0.61695  0.42184  0.27927  1.0000
  H   H3        1.0  0.63463  0.42385  0.22584  1.0000
  N   N10       1.0  0.00470  0.00375  0.35275  1.0000
  C   C16       1.0  0.04722  0.02571  0.34966  1.0000
  C   C17       1.0  0.98415  0.96113  0.35157  1.0000
  C   C18       1.0  0.98311  0.02471  0.34767  1.0000
  C   C19       1.0  0.98580  0.05062  0.41820  1.0000
  C   C20       1.0  0.96465  0.07156  0.41374  1.0000
  C   C21       1.0  0.93975  0.06733  0.33893  1.0000
  C   C22       1.0  0.93645  0.04033  0.26973  1.0000
  C   C23       1.0  0.95804  0.01980  0.27340  1.0000
  C   C24       1.0  0.06760  0.04091  0.26704  1.0000
  C   C25       1.0  0.10970  0.06221  0.26401  1.0000
  C   C26       1.0  0.13309  0.07018  0.34362  1.0000
  C   C27       1.0  0.11213  0.05432  0.42607  1.0000
  C   C28       1.0  0.07000  0.03238  0.42909  1.0000
  C   C29       1.0  0.98880  0.94018  0.27858  1.0000
  C   C30       1.0  0.96811  0.89809  0.27676  1.0000
  C   C31       1.0  0.94097  0.87512  0.34635  1.0000
  C   C32       1.0  0.93698  0.89650  0.42001  1.0000
  C   C33       1.0  0.95817  0.93866  0.42270  1.0000
  H   H4        1.0  0.12304  0.07099  0.20195  1.0000
  H   H5        1.0  0.05173  0.03582  0.20823  1.0000
  H   H6        1.0  0.05590  0.02159  0.48983  1.0000
  H   H7        1.0  0.12744  0.05904  0.48564  1.0000
  H   H8        1.0  0.00351  0.05458  0.47324  1.0000
  H   H9        1.0  0.96811  0.09052  0.46586  1.0000
  H   H10       1.0  0.00767  0.95557  0.22633  1.0000
  H   H11       1.0  0.97384  0.88445  0.22421  1.0000
  H   H12       1.0  0.91788  0.88146  0.47228  1.0000
  H   H13       1.0  0.95417  0.95303  0.47645  1.0000
  H   H14       1.0  0.95493  0.00066  0.22203  1.0000
  H   H15       1.0  0.91741  0.03443  0.21641  1.0000
  N   N11       1.0  0.43267  0.21815  0.35162  1.0000
  C   C34       1.0  0.45537  0.26056  0.35684  1.0000
  C   C35       1.0  0.39021  0.19675  0.35210  1.0000
  C   C36       1.0  0.45553  0.19864  0.34617  1.0000
  C   C37       1.0  0.47288  0.19762  0.26283  1.0000
  C   C38       1.0  0.50485  0.18993  0.25991  1.0000
  C   C39       1.0  0.52102  0.18351  0.34027  1.0000
  C   C40       1.0  0.50172  0.18224  0.42303  1.0000
  C   C41       1.0  0.46976  0.18993  0.42602  1.0000
  C   C42       1.0  0.46817  0.28354  0.27672  1.0000
  C   C43       1.0  0.49964  0.32346  0.27859  1.0000
  C   C44       1.0  0.51970  0.34173  0.36041  1.0000
  C   C45       1.0  0.50592  0.31874  0.44084  1.0000
  C   C46       1.0  0.47417  0.27897  0.43916  1.0000
  C   C47       1.0  0.36833  0.19780  0.27670  1.0000
  C   C48       1.0  0.32619  0.17655  0.27725  1.0000
  C   C49       1.0  0.30411  0.15313  0.35278  1.0000
  C   C50       1.0  0.32660  0.15254  0.42829  1.0000
  C   C51       1.0  0.36875  0.17391  0.42801  1.0000
  H   H16       1.0  0.50909  0.33851  0.21836  1.0000
  H   H17       1.0  0.45659  0.27041  0.21550  1.0000
  H   H18       1.0  0.46700  0.26241  0.49739  1.0000
  H   H19       1.0  0.52088  0.32951  0.50067  1.0000
  H   H20       1.0  0.46407  0.20519  0.20427  1.0000
  H   H21       1.0  0.51719  0.19072  0.19808  1.0000
  H   H22       1.0  0.38305  0.21391  0.22043  1.0000
  H   H23       1.0  0.31176  0.17799  0.22044  1.0000
  H   H24       1.0  0.31259  0.13719  0.48584  1.0000
  H   H25       1.0  0.38383  0.17298  0.48411  1.0000
  H   H26       1.0  0.45908  0.19233  0.48774  1.0000
  H   H27       1.0  0.51264  0.17867  0.48338  1.0000
  N   N12       1.0  0.79059  0.21761  0.34796  1.0000
  C   C52       1.0  0.74819  0.19802  0.35293  1.0000
  C   C53       1.0  0.81168  0.19627  0.34862  1.0000
  C   C54       1.0  0.81035  0.26002  0.34375  1.0000
  C   C55       1.0  0.81117  0.27875  0.26110  1.0000
  C   C56       1.0  0.81886  0.31842  0.25956  1.0000
  C   C57       1.0  0.82552  0.34065  0.34061  1.0000
  C   C58       1.0  0.82711  0.32227  0.42255  1.0000
  C   C59       1.0  0.81941  0.28260  0.42424  1.0000
  C   C60       1.0  0.72532  0.18759  0.27267  1.0000
  C   C61       1.0  0.68540  0.17919  0.27416  1.0000
  C   C62       1.0  0.66707  0.18121  0.35569  1.0000
  C   C63       1.0  0.69001  0.19066  0.43625  1.0000
  C   C64       1.0  0.72977  0.19865  0.43502  1.0000
  C   C65       1.0  0.81370  0.17654  0.27013  1.0000
  C   C66       1.0  0.83474  0.15545  0.27061  1.0000
  C   C67       1.0  0.85424  0.15281  0.34969  1.0000
  C   C68       1.0  0.85201  0.17295  0.42804  1.0000
  C   C69       1.0  0.83122  0.19432  0.42752  1.0000
  H   H28       1.0  0.67038  0.17341  0.21386  1.0000
  H   H29       1.0  0.73850  0.18891  0.21165  1.0000
  H   H30       1.0  0.74628  0.20818  0.49329  1.0000
  H   H31       1.0  0.67921  0.19504  0.49583  1.0000
  H   H32       1.0  0.80336  0.26262  0.20217  1.0000
  H   H33       1.0  0.81793  0.33024  0.19821  1.0000
  H   H34       1.0  0.80001  0.17769  0.21178  1.0000
  H   H35       1.0  0.83512  0.14143  0.21208  1.0000
  H   H36       1.0  0.86629  0.17311  0.48650  1.0000
  H   H37       1.0  0.83031  0.20846  0.48533  1.0000
  H   H38       1.0  0.81717  0.26922  0.48549  1.0000
  H   H39       1.0  0.83084  0.33647  0.48338  1.0000
  N   N13       1.0  0.79095  0.57582  0.35713  1.0000
  C   C70       1.0  0.81053  0.55299  0.36107  1.0000
  C   C71       1.0  0.81221  0.61824  0.35751  1.0000
  C   C72       1.0  0.74858  0.55323  0.35154  1.0000
  C   C73       1.0  0.73019  0.53599  0.26817  1.0000
  C   C74       1.0  0.69051  0.50406  0.26533  1.0000
  C   C75       1.0  0.66795  0.48792  0.34575  1.0000
  C   C76       1.0  0.68596  0.50727  0.42848  1.0000
  C   C77       1.0  0.72566  0.53914  0.43147  1.0000
  C   C78       1.0  0.82117  0.54108  0.28028  1.0000
  C   C79       1.0  0.82963  0.50960  0.28056  1.0000
  C   C80       1.0  0.82747  0.48876  0.36136  1.0000
  C   C81       1.0  0.81784  0.50172  0.44248  1.0000
  C   C82       1.0  0.80981  0.53346  0.44245  1.0000
  C   C83       1.0  0.83193  0.64000  0.27905  1.0000
  C   C84       1.0  0.85290  0.68214  0.27954  1.0000
  C   C85       1.0  0.85537  0.70424  0.35857  1.0000
  C   C86       1.0  0.83524  0.68185  0.43688  1.0000
  C   C87       1.0  0.81400  0.63970  0.43635  1.0000
  H   H40       1.0  0.83548  0.50072  0.21986  1.0000
  H   H41       1.0  0.81987  0.55325  0.21969  1.0000
  H   H42       1.0  0.80007  0.54002  0.50099  1.0000
  H   H43       1.0  0.81337  0.48617  0.50153  1.0000
  H   H44       1.0  0.74657  0.54474  0.20962  1.0000
  H   H45       1.0  0.67892  0.49176  0.20350  1.0000
  H   H46       1.0  0.83089  0.62520  0.22072  1.0000
  H   H47       1.0  0.86693  0.69657  0.22104  1.0000
  H   H48       1.0  0.83497  0.69595  0.49529  1.0000
  H   H49       1.0  0.79983  0.62462  0.49411  1.0000
  H   H50       1.0  0.73880  0.54982  0.49315  1.0000
  H   H51       1.0  0.67151  0.49632  0.48886  1.0000
  N   N14       1.0  0.19603  0.08077  0.40009  1.0000
  C   C88       1.0  0.23643  0.09861  0.40741  1.0000
  H   H52       1.0  0.24804  0.08690  0.45194  1.0000
  N   N15       1.0  0.90431  0.09492  0.41644  1.0000
  C   C89       1.0  0.88391  0.11492  0.42586  1.0000
  H   H53       1.0  0.87425  0.11696  0.48892  1.0000
  N   N16       1.0  0.91304  0.81230  0.42489  1.0000
  C   C90       1.0  0.89302  0.77189  0.43457  1.0000
  H   H54       1.0  0.89099  0.76027  0.49772  1.0000
  C   C91       1.0  0.62873  0.17855  0.35393  1.0000
  C   C92       1.0  0.55679  0.18091  0.34036  1.0000
  N   N17       1.0  0.56451  0.16291  0.41066  1.0000
  C   C93       1.0  0.59832  0.16071  0.42080  1.0000
  C   C94       1.0  0.59961  0.14111  0.49107  1.0000
  N   N18       1.0  0.60068  0.12397  0.55360  1.0000
  C   C95       1.0  0.83022  0.45314  0.35831  1.0000
  C   C96       1.0  0.82802  0.37898  0.34210  1.0000
  N   N19       1.0  0.84592  0.40432  0.41308  1.0000
  C   C97       1.0  0.84802  0.44023  0.42452  1.0000
  C   C98       1.0  0.86753  0.46076  0.49525  1.0000
  N   N20       1.0  0.88460  0.47865  0.55816  1.0000
  C   C99       1.0  0.55537  0.38010  0.35900  1.0000
  C   C100      1.0  0.62961  0.45213  0.34578  1.0000
  N   N21       1.0  0.60377  0.44437  0.41587  1.0000
  C   C101      1.0  0.56779  0.41051  0.42585  1.0000
  C   C102      1.0  0.54674  0.40917  0.49582  1.0000
  N   N22       1.0  0.52839  0.40808  0.55808  1.0000
