data_image0
_chemical_formula_structural       C2NHCHC2NHCH3C3H2C3H2CHCHNC2NHC2HCHCHNC2NHC2HC3NH5C6N2H6C6N2H6CHC2H2CHC2H2C2H2C2H2C3HNH2C3HNC3NH3C3HNC3NH3C2HC4HNH2C2NHC4HNH2C4HNH2C4HNH2C3NH5C6N2H6C6N2H6CHC2H2CHC2H2C2H2C2H2C3HNH2C3HNC3NH3C3HNC3NH3C2HC4HNH2C2NHC4HNH2C4HNH2C4HNH2C6N2H5C6N2H6C6N2H6C2H2C2H2C2H2C2H2C2H2C2H2C3HNC3NH3C3HNC3NH3C3HNC3NH3C4HNH2C4HNH2C4HNH2C4HNH2C4HNH2C4HNH2C6N2H5C6N2H6C6N2H6C2H2C2H2C2H2C2H2C2H2C2H2C3HNC3NH3C3HNC3NH3C3HNC3NH3C4HNH2C4HNH2C4HNH2C4HNH2C4HNH2C4HNH2
_chemical_formula_sum              "C288 N72 H240"
_cell_length_a       46.1355
_cell_length_b       46.1355
_cell_length_c       14.9219
_cell_angle_alpha    90
_cell_angle_beta     90
_cell_angle_gamma    120

_space_group_name_H-M_alt    "P 1"
_space_group_IT_number       1

loop_
  _space_group_symop_operation_xyz
  'x, y, z'

loop_
  _atom_site_type_symbol
  _atom_site_label
  _atom_site_symmetry_multiplicity
  _atom_site_fract_x
  _atom_site_fract_y
  _atom_site_fract_z
  _atom_site_occupancy
  C   C1        1.0  0.02231  0.26137  0.31486  1.0000
  C   C2        1.0  0.04330  0.29702  0.30552  1.0000
  N   N1        1.0  0.03313  0.31452  0.25295  1.0000
  H   H1        1.0  0.04707  0.33838  0.24213  1.0000
  C   C3        1.0  0.03972  0.24374  0.33327  1.0000
  H   H2        1.0  0.02723  0.21827  0.33697  1.0000
  C   C4        1.0  0.02231  0.76137  0.31486  1.0000
  C   C5        1.0  0.04330  0.79702  0.30552  1.0000
  N   N2        1.0  0.03314  0.81453  0.25295  1.0000
  H   H3        1.0  0.04707  0.83838  0.24213  1.0000
  C   C6        1.0  0.03972  0.74374  0.33327  1.0000
  H   H4        1.0  0.02723  0.71827  0.33697  1.0000
  H   H5        1.0  0.01412  0.30286  0.21283  1.0000
  H   H6        1.0  0.01411  0.80286  0.21283  1.0000
  C   C7        1.0  0.07628  0.31377  0.34337  1.0000
  C   C8        1.0  0.09043  0.29440  0.37618  1.0000
  C   C9        1.0  0.07354  0.25938  0.35976  1.0000
  H   H7        1.0  0.07609  0.22874  0.51121  1.0000
  H   H8        1.0  0.08648  0.36372  0.45180  1.0000
  C   C10       1.0  0.07628  0.81377  0.34337  1.0000
  C   C11       1.0  0.09042  0.79440  0.37618  1.0000
  C   C12       1.0  0.07354  0.75938  0.35976  1.0000
  H   H9        1.0  0.07609  0.72874  0.51121  1.0000
  H   H10       1.0  0.08648  0.86373  0.45180  1.0000
  C   C13       1.0  0.10521  0.24747  0.25270  1.0000
  H   H11       1.0  0.09569  0.25561  0.20289  1.0000
  C   C14       1.0  0.12410  0.35829  0.26628  1.0000
  H   H12       1.0  0.12229  0.34170  0.21787  1.0000
  N   N3        1.0  0.12008  0.30912  0.42202  1.0000
  C   C15       1.0  0.10834  0.23476  0.40966  1.0000
  C   C16       1.0  0.09230  0.24317  0.34111  1.0000
  N   N4        1.0  0.09689  0.22945  0.49551  1.0000
  H   H13       1.0  0.10794  0.22395  0.54259  1.0000
  C   C17       1.0  0.09859  0.34864  0.33098  1.0000
  C   C18       1.0  0.10388  0.37134  0.40146  1.0000
  H   H14       1.0  0.12152  0.41466  0.52977  1.0000
  C   C19       1.0  0.10521  0.74747  0.25270  1.0000
  H   H15       1.0  0.09569  0.75560  0.20289  1.0000
  C   C20       1.0  0.12410  0.85829  0.26628  1.0000
  H   H16       1.0  0.12229  0.84170  0.21787  1.0000
  N   N5        1.0  0.12008  0.80912  0.42202  1.0000
  C   C21       1.0  0.10834  0.73476  0.40966  1.0000
  C   C22       1.0  0.09230  0.74316  0.34111  1.0000
  N   N6        1.0  0.09689  0.72945  0.49551  1.0000
  H   H17       1.0  0.10794  0.72395  0.54259  1.0000
  C   C23       1.0  0.09860  0.84864  0.33098  1.0000
  C   C24       1.0  0.10388  0.87134  0.40146  1.0000
  H   H18       1.0  0.12152  0.91466  0.52977  1.0000
  C   C25       1.0  0.48606  0.24371  0.31427  1.0000
  C   C26       1.0  0.43275  0.19053  0.34113  1.0000
  C   C27       1.0  0.46542  0.20810  0.30185  1.0000
  N   N7        1.0  0.47572  0.19146  0.24633  1.0000
  H   H19       1.0  0.99467  0.20381  0.20645  1.0000
  H   H20       1.0  0.46175  0.16778  0.23330  1.0000
  H   H21       1.0  0.51411  0.30286  0.21283  1.0000
  H   H22       1.0  0.13032  0.33208  0.44178  1.0000
  H   H23       1.0  0.38056  0.17225  0.44812  1.0000
  C   C28       1.0  0.26245  0.24390  0.30962  1.0000
  C   C29       1.0  0.31685  0.24563  0.33585  1.0000
  C   C30       1.0  0.29827  0.25992  0.29769  1.0000
  C   C31       1.0  0.24308  0.26063  0.30118  1.0000
  C   C32       1.0  0.20772  0.24428  0.28211  1.0000
  C   C33       1.0  0.18898  0.26082  0.29925  1.0000
  N   N8        1.0  0.31450  0.28739  0.24368  1.0000
  N   N9        1.0  0.19216  0.21456  0.23680  1.0000
  H   H24       1.0  0.30205  0.29396  0.20410  1.0000
  H   H25       1.0  0.33837  0.29816  0.23201  1.0000
  H   H26       1.0  0.16900  0.20449  0.21744  1.0000
  H   H27       1.0  0.20526  0.20653  0.20560  1.0000
  H   H28       1.0  0.16546  0.30270  0.32635  1.0000
  H   H29       1.0  0.33732  0.21092  0.43267  1.0000
  C   C34       1.0  0.26223  0.02093  0.32363  1.0000
  C   C35       1.0  0.25964  0.07266  0.35475  1.0000
  C   C36       1.0  0.24566  0.04021  0.31427  1.0000
  C   C37       1.0  0.24553  0.48477  0.32301  1.0000
  C   C38       1.0  0.26213  0.46570  0.31001  1.0000
  C   C39       1.0  0.24930  0.43353  0.35164  1.0000
  N   N10       1.0  0.21790  0.02867  0.26135  1.0000
  N   N11       1.0  0.28926  0.47769  0.25447  1.0000
  H   H30       1.0  0.21170  0.50992  0.22094  1.0000
  H   H31       1.0  0.20662  0.04138  0.25128  1.0000
  H   H32       1.0  0.30119  0.46568  0.24343  1.0000
  H   H33       1.0  0.29462  0.99633  0.21437  1.0000
  H   H34       1.0  0.21531  0.37911  0.45851  1.0000
  H   H35       1.0  0.29325  0.12495  0.46292  1.0000
  C   C40       1.0  0.13500  0.24716  0.23412  1.0000
  H   H36       1.0  0.14599  0.25576  0.17285  1.0000
  C   C41       1.0  0.25484  0.36487  0.24379  1.0000
  C   C42       1.0  0.25563  0.39559  0.25159  1.0000
  H   H37       1.0  0.24464  0.35132  0.18640  1.0000
  H   H38       1.0  0.24577  0.40271  0.20029  1.0000
  C   C43       1.0  0.15461  0.38829  0.27539  1.0000
  H   H39       1.0  0.17344  0.39248  0.23156  1.0000
  C   C44       1.0  0.39263  0.24502  0.26344  1.0000
  C   C45       1.0  0.36253  0.24550  0.25539  1.0000
  H   H40       1.0  0.39709  0.23122  0.21738  1.0000
  H   H41       1.0  0.34630  0.23161  0.20531  1.0000
  C   C46       1.0  0.26086  0.14786  0.26946  1.0000
  C   C47       1.0  0.25982  0.11694  0.26712  1.0000
  H   H42       1.0  0.27417  0.16482  0.22009  1.0000
  H   H43       1.0  0.27287  0.11308  0.21746  1.0000
  C   C48       1.0  0.35423  0.11667  0.27276  1.0000
  C   C49       1.0  0.38495  0.14641  0.26343  1.0000
  H   H44       1.0  0.33536  0.11286  0.22955  1.0000
  H   H45       1.0  0.38688  0.16320  0.21552  1.0000
  C   C50       1.0  0.46819  0.26080  0.33431  1.0000
  C   C51       1.0  0.43421  0.24416  0.35955  1.0000
  C   C52       1.0  0.41851  0.20931  0.37659  1.0000
  H   H46       1.0  0.48011  0.28624  0.33824  1.0000
  N   N12       1.0  0.38987  0.19489  0.42659  1.0000
  H   H47       1.0  0.12823  0.29610  0.45227  1.0000
  H   H48       1.0  0.38434  0.20900  0.46228  1.0000
  C   C53       1.0  0.24629  0.20955  0.33529  1.0000
  C   C54       1.0  0.26375  0.19283  0.35755  1.0000
  C   C55       1.0  0.29892  0.21220  0.36946  1.0000
  H   H49       1.0  0.22094  0.19593  0.34258  1.0000
  N   N13       1.0  0.31443  0.19777  0.41367  1.0000
  C   C56       1.0  0.20630  0.29605  0.31613  1.0000
  C   C57       1.0  0.24192  0.31384  0.31992  1.0000
  C   C58       1.0  0.25884  0.29550  0.32060  1.0000
  N   N14       1.0  0.18939  0.31302  0.33067  1.0000
  H   H50       1.0  0.28372  0.30859  0.33615  1.0000
  H   H51       1.0  0.20047  0.33610  0.34938  1.0000
  H   H52       1.0  0.30133  0.17732  0.44714  1.0000
  C   C59       1.0  0.29715  0.03989  0.34276  1.0000
  C   C60       1.0  0.31326  0.07373  0.36835  1.0000
  C   C61       1.0  0.29315  0.08819  0.38752  1.0000
  H   H53       1.0  0.31161  0.02894  0.34525  1.0000
  N   N15       1.0  0.30707  0.11694  0.43691  1.0000
  C   C62       1.0  0.21616  0.41764  0.38774  1.0000
  C   C63       1.0  0.19551  0.43171  0.37025  1.0000
  C   C64       1.0  0.21088  0.46552  0.34465  1.0000
  N   N16       1.0  0.20230  0.38869  0.43658  1.0000
  H   H54       1.0  0.19620  0.47621  0.34847  1.0000
  H   H55       1.0  0.18121  0.38093  0.46767  1.0000
  H   H56       1.0  0.32842  0.12484  0.46666  1.0000
  C   C65       1.0  0.15333  0.24291  0.30371  1.0000
  C   C66       1.0  0.13857  0.23493  0.39002  1.0000
  H   H57       1.0  0.15213  0.23330  0.44220  1.0000
  C   C67       1.0  0.26321  0.41262  0.33443  1.0000
  C   C68       1.0  0.27437  0.40019  0.40521  1.0000
  C   C69       1.0  0.27183  0.36821  0.40034  1.0000
  C   C70       1.0  0.26037  0.34949  0.31915  1.0000
  H   H58       1.0  0.27882  0.41182  0.46626  1.0000
  N   N17       1.0  0.27707  0.35526  0.47656  1.0000
  H   H59       1.0  0.28421  0.36814  0.53189  1.0000
  H   H60       1.0  0.27516  0.33335  0.47770  1.0000
  C   C71       1.0  0.13481  0.40175  0.41222  1.0000
  C   C72       1.0  0.16112  0.41001  0.34940  1.0000
  N   N18       1.0  0.13943  0.42066  0.48653  1.0000
  H   H61       1.0  0.16014  0.44155  0.49672  1.0000
  C   C73       1.0  0.35200  0.25954  0.32322  1.0000
  C   C74       1.0  0.37420  0.27544  0.39588  1.0000
  C   C75       1.0  0.40451  0.27461  0.40593  1.0000
  C   C76       1.0  0.41357  0.25823  0.33977  1.0000
  H   H62       1.0  0.36597  0.28365  0.44855  1.0000
  N   N19       1.0  0.42262  0.28700  0.48243  1.0000
  H   H63       1.0  0.41619  0.29785  0.52789  1.0000
  H   H64       1.0  0.44352  0.28711  0.49192  1.0000
  C   C77       1.0  0.24645  0.09431  0.33947  1.0000
  C   C78       1.0  0.23150  0.10262  0.41042  1.0000
  C   C79       1.0  0.23272  0.13405  0.41449  1.0000
  C   C80       1.0  0.24861  0.15765  0.34392  1.0000
  H   H65       1.0  0.22351  0.08740  0.46566  1.0000
  N   N20       1.0  0.22139  0.14192  0.48958  1.0000
  H   H66       1.0  0.21094  0.12587  0.53808  1.0000
  H   H67       1.0  0.22171  0.16306  0.49523  1.0000
  C   C81       1.0  0.41054  0.15573  0.32776  1.0000
  C   C82       1.0  0.40515  0.13283  0.39782  1.0000
  C   C83       1.0  0.37397  0.10274  0.40907  1.0000
  C   C84       1.0  0.34762  0.09501  0.34685  1.0000
  H   H68       1.0  0.42255  0.14027  0.44811  1.0000
  N   N21       1.0  0.36923  0.08372  0.48323  1.0000
  H   H69       1.0  0.38723  0.08940  0.52596  1.0000
  H   H70       1.0  0.34836  0.06303  0.49368  1.0000
  C   C85       1.0  0.48606  0.74371  0.31427  1.0000
  C   C86       1.0  0.43275  0.69053  0.34113  1.0000
  C   C87       1.0  0.46542  0.70810  0.30185  1.0000
  N   N22       1.0  0.47572  0.69146  0.24633  1.0000
  H   H71       1.0  0.99468  0.70381  0.20645  1.0000
  H   H72       1.0  0.46175  0.66778  0.23330  1.0000
  H   H73       1.0  0.51411  0.80286  0.21283  1.0000
  H   H74       1.0  0.13032  0.83208  0.44178  1.0000
  H   H75       1.0  0.38056  0.67225  0.44812  1.0000
  C   C88       1.0  0.26245  0.74390  0.30962  1.0000
  C   C89       1.0  0.31685  0.74563  0.33585  1.0000
  C   C90       1.0  0.29827  0.75992  0.29769  1.0000
  C   C91       1.0  0.24308  0.76063  0.30118  1.0000
  C   C92       1.0  0.20772  0.74428  0.28211  1.0000
  C   C93       1.0  0.18898  0.76082  0.29925  1.0000
  N   N23       1.0  0.31450  0.78739  0.24368  1.0000
  N   N24       1.0  0.19216  0.71456  0.23680  1.0000
  H   H76       1.0  0.30205  0.79396  0.20410  1.0000
  H   H77       1.0  0.33837  0.79816  0.23201  1.0000
  H   H78       1.0  0.16900  0.70449  0.21744  1.0000
  H   H79       1.0  0.20526  0.70653  0.20560  1.0000
  H   H80       1.0  0.16546  0.80270  0.32635  1.0000
  H   H81       1.0  0.33732  0.71092  0.43267  1.0000
  C   C94       1.0  0.26223  0.52093  0.32363  1.0000
  C   C95       1.0  0.25964  0.57266  0.35475  1.0000
  C   C96       1.0  0.24566  0.54021  0.31427  1.0000
  C   C97       1.0  0.24553  0.98477  0.32301  1.0000
  C   C98       1.0  0.26214  0.96570  0.31001  1.0000
  C   C99       1.0  0.24930  0.93353  0.35164  1.0000
  N   N25       1.0  0.21790  0.52867  0.26135  1.0000
  N   N26       1.0  0.28926  0.97769  0.25447  1.0000
  H   H82       1.0  0.21171  0.00993  0.22094  1.0000
  H   H83       1.0  0.20662  0.54138  0.25128  1.0000
  H   H84       1.0  0.30119  0.96568  0.24343  1.0000
  H   H85       1.0  0.29463  0.49633  0.21437  1.0000
  H   H86       1.0  0.21530  0.87911  0.45851  1.0000
  H   H87       1.0  0.29325  0.62494  0.46292  1.0000
  C   C100      1.0  0.13500  0.74716  0.23412  1.0000
  H   H88       1.0  0.14599  0.75577  0.17285  1.0000
  C   C101      1.0  0.25484  0.86487  0.24379  1.0000
  C   C102      1.0  0.25563  0.89559  0.25159  1.0000
  H   H89       1.0  0.24464  0.85132  0.18640  1.0000
  H   H90       1.0  0.24576  0.90271  0.20029  1.0000
  C   C103      1.0  0.15461  0.88829  0.27539  1.0000
  H   H91       1.0  0.17344  0.89248  0.23156  1.0000
  C   C104      1.0  0.39263  0.74502  0.26344  1.0000
  C   C105      1.0  0.36253  0.74550  0.25539  1.0000
  H   H92       1.0  0.39709  0.73122  0.21738  1.0000
  H   H93       1.0  0.34630  0.73160  0.20531  1.0000
  C   C106      1.0  0.26086  0.64786  0.26946  1.0000
  C   C107      1.0  0.25982  0.61693  0.26712  1.0000
  H   H94       1.0  0.27417  0.66482  0.22009  1.0000
  H   H95       1.0  0.27287  0.61308  0.21746  1.0000
  C   C108      1.0  0.35423  0.61667  0.27276  1.0000
  C   C109      1.0  0.38495  0.64641  0.26343  1.0000
  H   H96       1.0  0.33536  0.61286  0.22955  1.0000
  H   H97       1.0  0.38688  0.66320  0.21552  1.0000
  C   C110      1.0  0.46819  0.76080  0.33431  1.0000
  C   C111      1.0  0.43421  0.74416  0.35955  1.0000
  C   C112      1.0  0.41850  0.70931  0.37659  1.0000
  H   H98       1.0  0.48012  0.78624  0.33824  1.0000
  N   N27       1.0  0.38987  0.69489  0.42659  1.0000
  H   H99       1.0  0.12823  0.79610  0.45227  1.0000
  H   H100      1.0  0.38434  0.70900  0.46228  1.0000
  C   C113      1.0  0.24629  0.70955  0.33529  1.0000
  C   C114      1.0  0.26375  0.69283  0.35755  1.0000
  C   C115      1.0  0.29892  0.71220  0.36946  1.0000
  H   H101      1.0  0.22094  0.69593  0.34258  1.0000
  N   N28       1.0  0.31443  0.69777  0.41367  1.0000
  C   C116      1.0  0.20630  0.79605  0.31613  1.0000
  C   C117      1.0  0.24192  0.81385  0.31992  1.0000
  C   C118      1.0  0.25884  0.79550  0.32060  1.0000
  N   N29       1.0  0.18938  0.81302  0.33067  1.0000
  H   H102      1.0  0.28372  0.80859  0.33615  1.0000
  H   H103      1.0  0.20047  0.83610  0.34938  1.0000
  H   H104      1.0  0.30134  0.67732  0.44714  1.0000
  C   C119      1.0  0.29715  0.53989  0.34276  1.0000
  C   C120      1.0  0.31326  0.57373  0.36835  1.0000
  C   C121      1.0  0.29315  0.58819  0.38752  1.0000
  H   H105      1.0  0.31161  0.52894  0.34525  1.0000
  N   N30       1.0  0.30707  0.61694  0.43691  1.0000
  C   C122      1.0  0.21615  0.91764  0.38774  1.0000
  C   C123      1.0  0.19551  0.93171  0.37025  1.0000
  C   C124      1.0  0.21088  0.96552  0.34465  1.0000
  N   N31       1.0  0.20230  0.88869  0.43658  1.0000
  H   H106      1.0  0.19620  0.97621  0.34847  1.0000
  H   H107      1.0  0.18121  0.88093  0.46767  1.0000
  H   H108      1.0  0.32842  0.62484  0.46666  1.0000
  C   C125      1.0  0.15333  0.74291  0.30371  1.0000
  C   C126      1.0  0.13857  0.73493  0.39002  1.0000
  H   H109      1.0  0.15213  0.73330  0.44220  1.0000
  C   C127      1.0  0.26321  0.91262  0.33443  1.0000
  C   C128      1.0  0.27437  0.90019  0.40521  1.0000
  C   C129      1.0  0.27183  0.86821  0.40034  1.0000
  C   C130      1.0  0.26037  0.84949  0.31915  1.0000
  H   H110      1.0  0.27882  0.91182  0.46626  1.0000
  N   N32       1.0  0.27707  0.85526  0.47656  1.0000
  H   H111      1.0  0.28421  0.86814  0.53189  1.0000
  H   H112      1.0  0.27516  0.83335  0.47770  1.0000
  C   C131      1.0  0.13481  0.90175  0.41222  1.0000
  C   C132      1.0  0.16112  0.91001  0.34940  1.0000
  N   N33       1.0  0.13943  0.92066  0.48653  1.0000
  H   H113      1.0  0.16014  0.94155  0.49672  1.0000
  C   C133      1.0  0.35200  0.75954  0.32322  1.0000
  C   C134      1.0  0.37420  0.77543  0.39588  1.0000
  C   C135      1.0  0.40451  0.77461  0.40593  1.0000
  C   C136      1.0  0.41357  0.75823  0.33977  1.0000
  H   H114      1.0  0.36597  0.78366  0.44855  1.0000
  N   N34       1.0  0.42262  0.78700  0.48243  1.0000
  H   H115      1.0  0.41619  0.79785  0.52789  1.0000
  H   H116      1.0  0.44352  0.78711  0.49192  1.0000
  C   C137      1.0  0.24645  0.59431  0.33947  1.0000
  C   C138      1.0  0.23150  0.60263  0.41042  1.0000
  C   C139      1.0  0.23272  0.63405  0.41449  1.0000
  C   C140      1.0  0.24861  0.65765  0.34392  1.0000
  H   H117      1.0  0.22351  0.58740  0.46566  1.0000
  N   N35       1.0  0.22139  0.64192  0.48958  1.0000
  H   H118      1.0  0.21094  0.62587  0.53808  1.0000
  H   H119      1.0  0.22171  0.66306  0.49523  1.0000
  C   C141      1.0  0.41054  0.65573  0.32776  1.0000
  C   C142      1.0  0.40515  0.63283  0.39782  1.0000
  C   C143      1.0  0.37397  0.60274  0.40907  1.0000
  C   C144      1.0  0.34762  0.59501  0.34685  1.0000
  H   H120      1.0  0.42255  0.64027  0.44811  1.0000
  N   N36       1.0  0.36924  0.58373  0.48323  1.0000
  H   H121      1.0  0.38723  0.58940  0.52596  1.0000
  H   H122      1.0  0.34836  0.56303  0.49368  1.0000
  C   C145      1.0  0.98606  0.24371  0.31427  1.0000
  C   C146      1.0  0.93275  0.19053  0.34113  1.0000
  C   C147      1.0  0.96542  0.20810  0.30185  1.0000
  C   C148      1.0  0.52231  0.26137  0.31486  1.0000
  C   C149      1.0  0.54330  0.29702  0.30552  1.0000
  C   C150      1.0  0.57628  0.31377  0.34337  1.0000
  N   N37       1.0  0.97572  0.19146  0.24633  1.0000
  N   N38       1.0  0.53313  0.31452  0.25295  1.0000
  H   H123      1.0  0.49468  0.20381  0.20645  1.0000
  H   H124      1.0  0.96175  0.16778  0.23330  1.0000
  H   H125      1.0  0.54707  0.33838  0.24213  1.0000
  H   H126      1.0  0.63032  0.33208  0.44178  1.0000
  H   H127      1.0  0.88055  0.17225  0.44812  1.0000
  C   C151      1.0  0.76245  0.24390  0.30962  1.0000
  C   C152      1.0  0.81685  0.24563  0.33585  1.0000
  C   C153      1.0  0.79827  0.25992  0.29769  1.0000
  C   C154      1.0  0.74308  0.26063  0.30118  1.0000
  C   C155      1.0  0.70771  0.24428  0.28211  1.0000
  C   C156      1.0  0.68898  0.26082  0.29925  1.0000
  N   N39       1.0  0.81450  0.28739  0.24368  1.0000
  N   N40       1.0  0.69216  0.21456  0.23680  1.0000
  H   H128      1.0  0.80205  0.29396  0.20410  1.0000
  H   H129      1.0  0.83837  0.29816  0.23201  1.0000
  H   H130      1.0  0.66900  0.20449  0.21744  1.0000
  H   H131      1.0  0.70526  0.20653  0.20560  1.0000
  H   H132      1.0  0.66546  0.30270  0.32635  1.0000
  H   H133      1.0  0.83732  0.21092  0.43267  1.0000
  C   C157      1.0  0.76223  0.02093  0.32363  1.0000
  C   C158      1.0  0.75964  0.07266  0.35475  1.0000
  C   C159      1.0  0.74566  0.04021  0.31427  1.0000
  C   C160      1.0  0.74553  0.48477  0.32301  1.0000
  C   C161      1.0  0.76213  0.46570  0.31001  1.0000
  C   C162      1.0  0.74930  0.43353  0.35164  1.0000
  N   N41       1.0  0.71790  0.02867  0.26135  1.0000
  N   N42       1.0  0.78926  0.47769  0.25447  1.0000
  H   H134      1.0  0.71170  0.50992  0.22094  1.0000
  H   H135      1.0  0.70662  0.04138  0.25128  1.0000
  H   H136      1.0  0.80119  0.46568  0.24343  1.0000
  H   H137      1.0  0.79463  0.99633  0.21437  1.0000
  H   H138      1.0  0.71530  0.37911  0.45851  1.0000
  H   H139      1.0  0.79325  0.12495  0.46292  1.0000
  C   C163      1.0  0.60521  0.24747  0.25270  1.0000
  C   C164      1.0  0.63500  0.24716  0.23412  1.0000
  H   H140      1.0  0.59569  0.25561  0.20289  1.0000
  H   H141      1.0  0.64599  0.25576  0.17285  1.0000
  C   C165      1.0  0.75484  0.36487  0.24379  1.0000
  C   C166      1.0  0.75563  0.39559  0.25159  1.0000
  H   H142      1.0  0.74464  0.35132  0.18640  1.0000
  H   H143      1.0  0.74576  0.40271  0.20029  1.0000
  C   C167      1.0  0.65461  0.38829  0.27539  1.0000
  C   C168      1.0  0.62410  0.35829  0.26628  1.0000
  H   H144      1.0  0.67344  0.39248  0.23156  1.0000
  H   H145      1.0  0.62229  0.34170  0.21787  1.0000
  C   C169      1.0  0.89263  0.24502  0.26344  1.0000
  C   C170      1.0  0.86253  0.24550  0.25539  1.0000
  H   H146      1.0  0.89709  0.23122  0.21738  1.0000
  H   H147      1.0  0.84630  0.23161  0.20531  1.0000
  C   C171      1.0  0.76086  0.14786  0.26946  1.0000
  C   C172      1.0  0.75982  0.11694  0.26712  1.0000
  H   H148      1.0  0.77417  0.16482  0.22009  1.0000
  H   H149      1.0  0.77287  0.11308  0.21746  1.0000
  C   C173      1.0  0.85423  0.11667  0.27276  1.0000
  C   C174      1.0  0.88495  0.14641  0.26343  1.0000
  H   H150      1.0  0.83536  0.11286  0.22955  1.0000
  H   H151      1.0  0.88688  0.16320  0.21552  1.0000
  C   C175      1.0  0.96819  0.26080  0.33431  1.0000
  C   C176      1.0  0.93421  0.24416  0.35955  1.0000
  C   C177      1.0  0.91850  0.20931  0.37659  1.0000
  H   H152      1.0  0.98011  0.28624  0.33824  1.0000
  N   N43       1.0  0.88987  0.19489  0.42659  1.0000
  C   C178      1.0  0.59042  0.29440  0.37618  1.0000
  C   C179      1.0  0.57354  0.25938  0.35976  1.0000
  C   C180      1.0  0.53972  0.24374  0.33327  1.0000
  N   N44       1.0  0.62008  0.30912  0.42202  1.0000
  H   H153      1.0  0.52723  0.21827  0.33697  1.0000
  H   H154      1.0  0.62823  0.29610  0.45227  1.0000
  H   H155      1.0  0.88434  0.20900  0.46228  1.0000
  C   C181      1.0  0.74629  0.20955  0.33529  1.0000
  C   C182      1.0  0.76375  0.19283  0.35755  1.0000
  C   C183      1.0  0.79892  0.21220  0.36946  1.0000
  H   H156      1.0  0.72094  0.19593  0.34258  1.0000
  N   N45       1.0  0.81443  0.19777  0.41367  1.0000
  C   C184      1.0  0.70630  0.29605  0.31613  1.0000
  C   C185      1.0  0.74192  0.31384  0.31992  1.0000
  C   C186      1.0  0.75884  0.29550  0.32060  1.0000
  N   N46       1.0  0.68939  0.31302  0.33067  1.0000
  H   H157      1.0  0.78372  0.30859  0.33615  1.0000
  H   H158      1.0  0.70047  0.33610  0.34938  1.0000
  H   H159      1.0  0.80133  0.17732  0.44714  1.0000
  C   C187      1.0  0.79715  0.03989  0.34276  1.0000
  C   C188      1.0  0.81325  0.07373  0.36835  1.0000
  C   C189      1.0  0.79315  0.08819  0.38752  1.0000
  H   H160      1.0  0.81161  0.02894  0.34525  1.0000
  N   N47       1.0  0.80707  0.11694  0.43691  1.0000
  C   C190      1.0  0.71615  0.41764  0.38774  1.0000
  C   C191      1.0  0.69551  0.43171  0.37025  1.0000
  C   C192      1.0  0.71088  0.46552  0.34465  1.0000
  N   N48       1.0  0.70230  0.38869  0.43658  1.0000
  H   H161      1.0  0.69620  0.47621  0.34847  1.0000
  H   H162      1.0  0.68121  0.38093  0.46767  1.0000
  H   H163      1.0  0.82842  0.12484  0.46666  1.0000
  C   C193      1.0  0.65333  0.24291  0.30371  1.0000
  C   C194      1.0  0.63857  0.23493  0.39002  1.0000
  C   C195      1.0  0.60834  0.23476  0.40966  1.0000
  C   C196      1.0  0.59230  0.24317  0.34111  1.0000
  H   H164      1.0  0.65213  0.23330  0.44220  1.0000
  N   N49       1.0  0.59689  0.22945  0.49551  1.0000
  H   H165      1.0  0.60794  0.22395  0.54259  1.0000
  H   H166      1.0  0.57609  0.22874  0.51121  1.0000
  C   C197      1.0  0.76321  0.41262  0.33443  1.0000
  C   C198      1.0  0.77437  0.40019  0.40521  1.0000
  C   C199      1.0  0.77183  0.36821  0.40034  1.0000
  C   C200      1.0  0.76037  0.34949  0.31915  1.0000
  H   H167      1.0  0.77882  0.41182  0.46626  1.0000
  N   N50       1.0  0.77707  0.35526  0.47656  1.0000
  H   H168      1.0  0.78421  0.36814  0.53189  1.0000
  H   H169      1.0  0.77516  0.33335  0.47770  1.0000
  C   C201      1.0  0.59860  0.34864  0.33098  1.0000
  C   C202      1.0  0.60388  0.37134  0.40146  1.0000
  C   C203      1.0  0.63481  0.40175  0.41222  1.0000
  C   C204      1.0  0.66112  0.41001  0.34940  1.0000
  H   H170      1.0  0.58648  0.36372  0.45180  1.0000
  N   N51       1.0  0.63943  0.42066  0.48653  1.0000
  H   H171      1.0  0.62152  0.41466  0.52977  1.0000
  H   H172      1.0  0.66014  0.44155  0.49672  1.0000
  C   C205      1.0  0.85200  0.25954  0.32322  1.0000
  C   C206      1.0  0.87420  0.27544  0.39588  1.0000
  C   C207      1.0  0.90451  0.27461  0.40593  1.0000
  C   C208      1.0  0.91357  0.25823  0.33977  1.0000
  H   H173      1.0  0.86597  0.28365  0.44855  1.0000
  N   N52       1.0  0.92262  0.28700  0.48243  1.0000
  H   H174      1.0  0.91619  0.29785  0.52789  1.0000
  H   H175      1.0  0.94352  0.28711  0.49192  1.0000
  C   C209      1.0  0.74645  0.09431  0.33947  1.0000
  C   C210      1.0  0.73150  0.10262  0.41042  1.0000
  C   C211      1.0  0.73272  0.13405  0.41449  1.0000
  C   C212      1.0  0.74861  0.15765  0.34392  1.0000
  H   H176      1.0  0.72351  0.08740  0.46566  1.0000
  N   N53       1.0  0.72139  0.14192  0.48958  1.0000
  H   H177      1.0  0.71094  0.12587  0.53808  1.0000
  H   H178      1.0  0.72171  0.16306  0.49523  1.0000
  C   C213      1.0  0.91053  0.15573  0.32776  1.0000
  C   C214      1.0  0.90515  0.13283  0.39782  1.0000
  C   C215      1.0  0.87397  0.10274  0.40907  1.0000
  C   C216      1.0  0.84762  0.09501  0.34685  1.0000
  H   H179      1.0  0.92255  0.14027  0.44811  1.0000
  N   N54       1.0  0.86924  0.08372  0.48323  1.0000
  H   H180      1.0  0.88723  0.08940  0.52596  1.0000
  H   H181      1.0  0.84835  0.06303  0.49368  1.0000
  C   C217      1.0  0.98606  0.74371  0.31427  1.0000
  C   C218      1.0  0.93275  0.69053  0.34113  1.0000
  C   C219      1.0  0.96542  0.70810  0.30185  1.0000
  C   C220      1.0  0.52231  0.76137  0.31486  1.0000
  C   C221      1.0  0.54330  0.79702  0.30552  1.0000
  C   C222      1.0  0.57628  0.81377  0.34337  1.0000
  N   N55       1.0  0.97572  0.69146  0.24633  1.0000
  N   N56       1.0  0.53314  0.81453  0.25295  1.0000
  H   H182      1.0  0.49468  0.70381  0.20645  1.0000
  H   H183      1.0  0.96175  0.66778  0.23330  1.0000
  H   H184      1.0  0.54707  0.83838  0.24213  1.0000
  H   H185      1.0  0.63032  0.83208  0.44178  1.0000
  H   H186      1.0  0.88056  0.67225  0.44812  1.0000
  C   C223      1.0  0.76245  0.74390  0.30962  1.0000
  C   C224      1.0  0.81685  0.74563  0.33585  1.0000
  C   C225      1.0  0.79827  0.75992  0.29769  1.0000
  C   C226      1.0  0.74308  0.76063  0.30118  1.0000
  C   C227      1.0  0.70771  0.74428  0.28211  1.0000
  C   C228      1.0  0.68898  0.76082  0.29925  1.0000
  N   N57       1.0  0.81450  0.78739  0.24368  1.0000
  N   N58       1.0  0.69216  0.71456  0.23680  1.0000
  H   H187      1.0  0.80205  0.79396  0.20410  1.0000
  H   H188      1.0  0.83837  0.79816  0.23201  1.0000
  H   H189      1.0  0.66900  0.70449  0.21744  1.0000
  H   H190      1.0  0.70526  0.70653  0.20560  1.0000
  H   H191      1.0  0.66546  0.80270  0.32635  1.0000
  H   H192      1.0  0.83732  0.71092  0.43267  1.0000
  C   C229      1.0  0.76223  0.52093  0.32363  1.0000
  C   C230      1.0  0.75963  0.57266  0.35475  1.0000
  C   C231      1.0  0.74565  0.54021  0.31427  1.0000
  C   C232      1.0  0.74552  0.98477  0.32301  1.0000
  C   C233      1.0  0.76213  0.96570  0.31001  1.0000
  C   C234      1.0  0.74930  0.93353  0.35164  1.0000
  N   N59       1.0  0.71790  0.52867  0.26135  1.0000
  N   N60       1.0  0.78926  0.97769  0.25447  1.0000
  H   H193      1.0  0.71170  0.00993  0.22094  1.0000
  H   H194      1.0  0.70661  0.54138  0.25128  1.0000
  H   H195      1.0  0.80119  0.96568  0.24343  1.0000
  H   H196      1.0  0.79462  0.49633  0.21437  1.0000
  H   H197      1.0  0.71531  0.87911  0.45851  1.0000
  H   H198      1.0  0.79325  0.62494  0.46292  1.0000
  C   C235      1.0  0.60521  0.74747  0.25270  1.0000
  C   C236      1.0  0.63500  0.74716  0.23412  1.0000
  H   H199      1.0  0.59569  0.75560  0.20289  1.0000
  H   H200      1.0  0.64599  0.75577  0.17285  1.0000
  C   C237      1.0  0.75484  0.86487  0.24379  1.0000
  C   C238      1.0  0.75563  0.89559  0.25159  1.0000
  H   H201      1.0  0.74464  0.85132  0.18640  1.0000
  H   H202      1.0  0.74576  0.90271  0.20029  1.0000
  C   C239      1.0  0.65461  0.88829  0.27539  1.0000
  C   C240      1.0  0.62410  0.85829  0.26628  1.0000
  H   H203      1.0  0.67344  0.89248  0.23156  1.0000
  H   H204      1.0  0.62229  0.84170  0.21787  1.0000
  C   C241      1.0  0.89263  0.74502  0.26344  1.0000
  C   C242      1.0  0.86253  0.74550  0.25539  1.0000
  H   H205      1.0  0.89709  0.73122  0.21738  1.0000
  H   H206      1.0  0.84630  0.73160  0.20531  1.0000
  C   C243      1.0  0.76086  0.64786  0.26946  1.0000
  C   C244      1.0  0.75982  0.61693  0.26712  1.0000
  H   H207      1.0  0.77417  0.66482  0.22009  1.0000
  H   H208      1.0  0.77287  0.61308  0.21746  1.0000
  C   C245      1.0  0.85423  0.61667  0.27276  1.0000
  C   C246      1.0  0.88495  0.64641  0.26343  1.0000
  H   H209      1.0  0.83536  0.61286  0.22955  1.0000
  H   H210      1.0  0.88687  0.66320  0.21552  1.0000
  C   C247      1.0  0.96818  0.76080  0.33431  1.0000
  C   C248      1.0  0.93421  0.74416  0.35955  1.0000
  C   C249      1.0  0.91850  0.70931  0.37659  1.0000
  H   H211      1.0  0.98011  0.78624  0.33824  1.0000
  N   N61       1.0  0.88987  0.69489  0.42659  1.0000
  C   C250      1.0  0.59042  0.79440  0.37618  1.0000
  C   C251      1.0  0.57354  0.75938  0.35976  1.0000
  C   C252      1.0  0.53972  0.74374  0.33327  1.0000
  N   N62       1.0  0.62008  0.80912  0.42202  1.0000
  H   H212      1.0  0.52723  0.71827  0.33697  1.0000
  H   H213      1.0  0.62823  0.79610  0.45227  1.0000
  H   H214      1.0  0.88434  0.70900  0.46228  1.0000
  C   C253      1.0  0.74629  0.70955  0.33529  1.0000
  C   C254      1.0  0.76375  0.69283  0.35755  1.0000
  C   C255      1.0  0.79892  0.71220  0.36946  1.0000
  H   H215      1.0  0.72094  0.69593  0.34258  1.0000
  N   N63       1.0  0.81443  0.69777  0.41367  1.0000
  C   C256      1.0  0.70629  0.79605  0.31613  1.0000
  C   C257      1.0  0.74192  0.81385  0.31992  1.0000
  C   C258      1.0  0.75884  0.79550  0.32060  1.0000
  N   N64       1.0  0.68938  0.81302  0.33067  1.0000
  H   H216      1.0  0.78372  0.80859  0.33615  1.0000
  H   H217      1.0  0.70047  0.83610  0.34938  1.0000
  H   H218      1.0  0.80134  0.67732  0.44714  1.0000
  C   C259      1.0  0.79715  0.53989  0.34276  1.0000
  C   C260      1.0  0.81326  0.57373  0.36835  1.0000
  C   C261      1.0  0.79315  0.58819  0.38752  1.0000
  H   H219      1.0  0.81160  0.52894  0.34525  1.0000
  N   N65       1.0  0.80707  0.61694  0.43691  1.0000
  C   C262      1.0  0.71615  0.91764  0.38774  1.0000
  C   C263      1.0  0.69550  0.93171  0.37025  1.0000
  C   C264      1.0  0.71088  0.96552  0.34465  1.0000
  N   N66       1.0  0.70230  0.88869  0.43658  1.0000
  H   H220      1.0  0.69620  0.97621  0.34847  1.0000
  H   H221      1.0  0.68121  0.88093  0.46767  1.0000
  H   H222      1.0  0.82842  0.62484  0.46666  1.0000
  C   C265      1.0  0.65333  0.74291  0.30371  1.0000
  C   C266      1.0  0.63857  0.73493  0.39002  1.0000
  C   C267      1.0  0.60834  0.73476  0.40966  1.0000
  C   C268      1.0  0.59230  0.74316  0.34111  1.0000
  H   H223      1.0  0.65213  0.73330  0.44220  1.0000
  N   N67       1.0  0.59689  0.72945  0.49551  1.0000
  H   H224      1.0  0.60794  0.72395  0.54259  1.0000
  H   H225      1.0  0.57609  0.72874  0.51121  1.0000
  C   C269      1.0  0.76321  0.91262  0.33443  1.0000
  C   C270      1.0  0.77436  0.90019  0.40521  1.0000
  C   C271      1.0  0.77183  0.86821  0.40034  1.0000
  C   C272      1.0  0.76037  0.84949  0.31915  1.0000
  H   H226      1.0  0.77882  0.91182  0.46626  1.0000
  N   N68       1.0  0.77707  0.85526  0.47656  1.0000
  H   H227      1.0  0.78421  0.86814  0.53189  1.0000
  H   H228      1.0  0.77516  0.83335  0.47770  1.0000
  C   C273      1.0  0.59859  0.84864  0.33098  1.0000
  C   C274      1.0  0.60387  0.87134  0.40146  1.0000
  C   C275      1.0  0.63481  0.90175  0.41222  1.0000
  C   C276      1.0  0.66112  0.91001  0.34940  1.0000
  H   H229      1.0  0.58648  0.86373  0.45180  1.0000
  N   N69       1.0  0.63943  0.92066  0.48653  1.0000
  H   H230      1.0  0.62152  0.91466  0.52977  1.0000
  H   H231      1.0  0.66014  0.94155  0.49672  1.0000
  C   C277      1.0  0.85200  0.75954  0.32322  1.0000
  C   C278      1.0  0.87420  0.77543  0.39588  1.0000
  C   C279      1.0  0.90451  0.77461  0.40593  1.0000
  C   C280      1.0  0.91357  0.75823  0.33977  1.0000
  H   H232      1.0  0.86597  0.78366  0.44855  1.0000
  N   N70       1.0  0.92262  0.78700  0.48243  1.0000
  H   H233      1.0  0.91619  0.79785  0.52789  1.0000
  H   H234      1.0  0.94352  0.78711  0.49192  1.0000
  C   C281      1.0  0.74645  0.59431  0.33947  1.0000
  C   C282      1.0  0.73150  0.60263  0.41042  1.0000
  C   C283      1.0  0.73272  0.63405  0.41449  1.0000
  C   C284      1.0  0.74861  0.65765  0.34392  1.0000
  H   H235      1.0  0.72351  0.58740  0.46566  1.0000
  N   N71       1.0  0.72139  0.64192  0.48958  1.0000
  H   H236      1.0  0.71095  0.62587  0.53808  1.0000
  H   H237      1.0  0.72171  0.66306  0.49523  1.0000
  C   C285      1.0  0.91054  0.65573  0.32776  1.0000
  C   C286      1.0  0.90515  0.63283  0.39782  1.0000
  C   C287      1.0  0.87396  0.60274  0.40907  1.0000
  C   C288      1.0  0.84762  0.59501  0.34685  1.0000
  H   H238      1.0  0.92255  0.64027  0.44811  1.0000
  N   N72       1.0  0.86924  0.58373  0.48323  1.0000
  H   H239      1.0  0.88723  0.58940  0.52596  1.0000
  H   H240      1.0  0.84836  0.56303  0.49368  1.0000
