data_image0
_chemical_formula_structural       COH2C6OHC6O2H2C6O2H2CNCHNHCNCHNHCNCHNHCNCHNHCNCHNHCNCHNHC3H2C2HC3H2C3H2C3H2C3H2C4HC6HOHOHC4HC6HOHOHC4HC6HOHOHC4HC6HOHOHC4HC6HOHOHC4HC6HOHOH
_chemical_formula_sum              "C108 O18 H54 N12"
_cell_length_a       31.6019
_cell_length_b       31.602
_cell_length_c       14.9165
_cell_angle_alpha    90
_cell_angle_beta     90
_cell_angle_gamma    120

_space_group_name_H-M_alt    "P 1"
_space_group_IT_number       1

loop_
  _space_group_symop_operation_xyz
  'x, y, z'

loop_
  _atom_site_type_symbol
  _atom_site_label
  _atom_site_symmetry_multiplicity
  _atom_site_fract_x
  _atom_site_fract_y
  _atom_site_fract_z
  _atom_site_occupancy
  C   C1        1.0  0.03107  0.51670  0.33367  1.0000
  O   O1        1.0  0.03930  0.59573  0.29036  1.0000
  H   H1        1.0  0.03144  0.58813  0.22648  1.0000
  H   H2        1.0  0.04193  0.45721  0.36930  1.0000
  C   C2        1.0  0.05934  0.56854  0.31807  1.0000
  C   C3        1.0  0.05877  0.49319  0.35228  1.0000
  C   C4        1.0  0.97734  0.48889  0.33376  1.0000
  C   C5        1.0  0.89747  0.41071  0.32826  1.0000
  C   C6        1.0  0.94905  0.43703  0.31833  1.0000
  C   C7        1.0  0.11093  0.59487  0.32782  1.0000
  O   O2        1.0  0.96906  0.40981  0.29066  1.0000
  H   H3        1.0  0.97688  0.41734  0.22676  1.0000
  C   C8        1.0  0.51811  0.48985  0.33368  1.0000
  C   C9        1.0  0.59629  0.48818  0.32788  1.0000
  C   C10       1.0  0.56996  0.51343  0.31805  1.0000
  C   C11       1.0  0.49030  0.51577  0.33380  1.0000
  C   C12       1.0  0.43843  0.49218  0.31842  1.0000
  C   C13       1.0  0.41212  0.51745  0.32840  1.0000
  O   O3        1.0  0.59715  0.56066  0.29037  1.0000
  O   O4        1.0  0.41121  0.44495  0.29077  1.0000
  H   H4        1.0  0.58956  0.56094  0.22650  1.0000
  H   H5        1.0  0.41872  0.44466  0.22686  1.0000
  C   C14       1.0  0.51716  0.02967  0.33375  1.0000
  C   C15       1.0  0.51887  0.10955  0.32839  1.0000
  C   C16       1.0  0.49360  0.05798  0.31837  1.0000
  C   C17       1.0  0.49123  0.97594  0.33364  1.0000
  C   C18       1.0  0.51480  0.94765  0.31816  1.0000
  C   C19       1.0  0.48950  0.89605  0.32782  1.0000
  O   O5        1.0  0.44638  0.03799  0.29068  1.0000
  O   O6        1.0  0.56203  0.96766  0.29055  1.0000
  H   H6        1.0  0.44610  0.03020  0.22676  1.0000
  H   H7        1.0  0.56236  0.97553  0.22667  1.0000
  C   C20       1.0  0.33216  0.48948  0.25662  1.0000
  N   N1        1.0  0.28680  0.48373  0.26550  1.0000
  C   C21       1.0  0.15763  0.48751  0.27264  1.0000
  H   H8        1.0  0.34703  0.49464  0.19393  1.0000
  N   N2        1.0  0.19767  0.48226  0.27378  1.0000
  H   H9        1.0  0.14486  0.49135  0.21195  1.0000
  C   C22       1.0  0.51741  0.84397  0.25634  1.0000
  N   N3        1.0  0.52329  0.80444  0.26525  1.0000
  C   C23       1.0  0.51970  0.67159  0.27261  1.0000
  H   H10       1.0  0.51248  0.85380  0.19359  1.0000
  N   N4        1.0  0.52486  0.71684  0.27370  1.0000
  H   H11       1.0  0.51576  0.65496  0.21191  1.0000
  C   C24       1.0  0.16301  0.67490  0.25606  1.0000
  N   N5        1.0  0.20256  0.72031  0.26499  1.0000
  C   C25       1.0  0.33542  0.84956  0.27232  1.0000
  H   H12       1.0  0.15315  0.66018  0.19330  1.0000
  N   N6        1.0  0.29015  0.80950  0.27343  1.0000
  H   H13       1.0  0.35200  0.86234  0.21160  1.0000
  C   C26       1.0  0.67631  0.51604  0.25608  1.0000
  N   N7        1.0  0.72169  0.52184  0.26508  1.0000
  C   C27       1.0  0.85090  0.51815  0.27275  1.0000
  H   H14       1.0  0.66151  0.51099  0.19336  1.0000
  N   N8        1.0  0.81084  0.52336  0.27372  1.0000
  H   H15       1.0  0.86368  0.51430  0.21207  1.0000
  C   C28       1.0  0.49091  0.16154  0.25667  1.0000
  N   N9        1.0  0.48515  0.20116  0.26550  1.0000
  C   C29       1.0  0.48893  0.33410  0.27250  1.0000
  H   H16       1.0  0.49606  0.15183  0.19398  1.0000
  N   N10       1.0  0.48367  0.28882  0.27369  1.0000
  H   H17       1.0  0.49278  0.35071  0.21180  1.0000
  C   C30       1.0  0.84541  0.33077  0.25655  1.0000
  N   N11       1.0  0.80588  0.28536  0.26543  1.0000
  C   C31       1.0  0.67301  0.15610  0.27269  1.0000
  H   H18       1.0  0.85525  0.34556  0.19382  1.0000
  N   N12       1.0  0.71826  0.19618  0.27381  1.0000
  H   H19       1.0  0.65638  0.14343  0.21198  1.0000
  C   C32       1.0  0.94965  0.51242  0.35236  1.0000
  C   C33       1.0  0.89812  0.48774  0.35006  1.0000
  C   C34       1.0  0.87260  0.43673  0.34084  1.0000
  H   H20       1.0  0.96651  0.54842  0.36922  1.0000
  H   H21       1.0  0.83510  0.41811  0.34402  1.0000
  C   C35       1.0  0.13581  0.56886  0.34041  1.0000
  C   C36       1.0  0.11030  0.51786  0.34975  1.0000
  H   H22       1.0  0.17332  0.58748  0.34345  1.0000
  C   C37       1.0  0.49462  0.43863  0.35225  1.0000
  C   C38       1.0  0.51930  0.41178  0.34970  1.0000
  C   C39       1.0  0.57030  0.43729  0.34037  1.0000
  H   H23       1.0  0.45864  0.41947  0.36926  1.0000
  H   H24       1.0  0.58893  0.41841  0.34340  1.0000
  C   C40       1.0  0.43813  0.56834  0.34087  1.0000
  C   C41       1.0  0.48914  0.59384  0.35000  1.0000
  C   C42       1.0  0.51382  0.56698  0.35233  1.0000
  H   H25       1.0  0.41951  0.58722  0.34399  1.0000
  H   H26       1.0  0.54984  0.58615  0.36913  1.0000
  C   C43       1.0  0.56838  0.05736  0.35233  1.0000
  C   C44       1.0  0.59525  0.10889  0.35007  1.0000
  C   C45       1.0  0.56976  0.13442  0.34091  1.0000
  H   H27       1.0  0.58754  0.04050  0.36914  1.0000
  H   H28       1.0  0.58865  0.17192  0.34408  1.0000
  C   C46       1.0  0.43862  0.87119  0.34041  1.0000
  C   C47       1.0  0.41313  0.89670  0.34970  1.0000
  C   C48       1.0  0.44000  0.94824  0.35213  1.0000
  H   H29       1.0  0.41973  0.83368  0.34346  1.0000
  H   H30       1.0  0.42085  0.96507  0.36907  1.0000
  C   C49       1.0  0.36027  0.49449  0.33351  1.0000
  C   C50       1.0  0.26534  0.48143  0.34595  1.0000
  C   C51       1.0  0.29127  0.48492  0.42601  1.0000
  C   C52       1.0  0.33860  0.49093  0.41824  1.0000
  H   H31       1.0  0.35942  0.49734  0.47470  1.0000
  C   C53       1.0  0.22054  0.48128  0.35026  1.0000
  C   C54       1.0  0.13834  0.49410  0.35349  1.0000
  C   C55       1.0  0.16063  0.49238  0.43442  1.0000
  C   C56       1.0  0.20170  0.48559  0.43427  1.0000
  C   C57       1.0  0.22659  0.48681  0.51402  1.0000
  C   C58       1.0  0.27094  0.48618  0.50996  1.0000
  H   H32       1.0  0.14921  0.50017  0.49322  1.0000
  O   O7        1.0  0.21045  0.49232  0.59549  1.0000
  H   H33       1.0  0.18745  0.45914  0.61684  1.0000
  O   O8        1.0  0.29562  0.49124  0.58777  1.0000
  H   H34       1.0  0.28545  0.45791  0.60816  1.0000
  C   C59       1.0  0.51245  0.86717  0.33315  1.0000
  C   C60       1.0  0.52559  0.78532  0.34574  1.0000
  C   C61       1.0  0.52202  0.80775  0.42575  1.0000
  C   C62       1.0  0.51603  0.84908  0.41789  1.0000
  H   H35       1.0  0.50953  0.86344  0.47432  1.0000
  C   C63       1.0  0.52575  0.74068  0.35014  1.0000
  C   C64       1.0  0.51290  0.64563  0.35341  1.0000
  C   C65       1.0  0.51458  0.66966  0.43433  1.0000
  C   C66       1.0  0.52138  0.71752  0.43416  1.0000
  C   C67       1.0  0.52007  0.74118  0.51387  1.0000
  C   C68       1.0  0.52068  0.78614  0.50973  1.0000
  H   H36       1.0  0.50673  0.65045  0.49315  1.0000
  O   O9        1.0  0.51451  0.71953  0.59535  1.0000
  H   H37       1.0  0.54767  0.72969  0.61677  1.0000
  O   O10       1.0  0.51559  0.80578  0.58748  1.0000
  H   H38       1.0  0.54891  0.82890  0.60798  1.0000
  C   C69       1.0  0.13980  0.64672  0.33280  1.0000
  C   C70       1.0  0.22172  0.74170  0.34548  1.0000
  C   C71       1.0  0.19934  0.71566  0.42548  1.0000
  C   C72       1.0  0.15806  0.66830  0.41756  1.0000
  H   H39       1.0  0.14361  0.64749  0.47403  1.0000
  C   C73       1.0  0.26634  0.78651  0.34989  1.0000
  C   C74       1.0  0.36133  0.86866  0.35315  1.0000
  C   C75       1.0  0.33739  0.84637  0.43414  1.0000
  C   C76       1.0  0.28954  0.80525  0.43391  1.0000
  C   C77       1.0  0.26592  0.78024  0.51361  1.0000
  C   C78       1.0  0.22095  0.73589  0.50947  1.0000
  H   H40       1.0  0.35663  0.85764  0.49292  1.0000
  O   O11       1.0  0.28759  0.79632  0.59509  1.0000
  H   H41       1.0  0.27736  0.81925  0.61662  1.0000
  O   O12       1.0  0.20139  0.71110  0.58721  1.0000
  H   H42       1.0  0.17822  0.72122  0.60780  1.0000
  C   C79       1.0  0.64814  0.51116  0.33281  1.0000
  C   C80       1.0  0.74308  0.52416  0.34561  1.0000
  C   C81       1.0  0.71707  0.52064  0.42558  1.0000
  C   C82       1.0  0.66976  0.51466  0.41761  1.0000
  H   H43       1.0  0.64892  0.50830  0.47403  1.0000
  C   C83       1.0  0.78787  0.52431  0.35011  1.0000
  C   C84       1.0  0.87009  0.51151  0.35367  1.0000
  C   C85       1.0  0.84767  0.51314  0.43450  1.0000
  C   C86       1.0  0.80663  0.51998  0.43420  1.0000
  C   C87       1.0  0.78166  0.51874  0.51385  1.0000
  C   C88       1.0  0.73732  0.51938  0.50961  1.0000
  H   H44       1.0  0.85907  0.50542  0.49339  1.0000
  O   O13       1.0  0.79771  0.51319  0.59539  1.0000
  H   H45       1.0  0.82070  0.54636  0.61681  1.0000
  O   O14       1.0  0.71256  0.51428  0.58732  1.0000
  H   H46       1.0  0.72271  0.54761  0.60774  1.0000
  C   C89       1.0  0.49593  0.13844  0.33357  1.0000
  C   C90       1.0  0.48285  0.22033  0.34593  1.0000
  C   C91       1.0  0.48635  0.19791  0.42600  1.0000
  C   C92       1.0  0.49236  0.15659  0.41826  1.0000
  H   H47       1.0  0.49877  0.14219  0.47472  1.0000
  C   C93       1.0  0.48269  0.26497  0.35020  1.0000
  C   C94       1.0  0.49555  0.35998  0.35334  1.0000
  C   C95       1.0  0.49381  0.33601  0.43434  1.0000
  C   C96       1.0  0.48702  0.28815  0.43420  1.0000
  C   C97       1.0  0.48824  0.26449  0.51397  1.0000
  C   C98       1.0  0.48761  0.21951  0.50994  1.0000
  H   H48       1.0  0.50160  0.35523  0.49312  1.0000
  O   O15       1.0  0.49374  0.28615  0.59543  1.0000
  H   H49       1.0  0.46057  0.27598  0.61677  1.0000
  O   O16       1.0  0.49266  0.19991  0.58776  1.0000
  H   H50       1.0  0.45933  0.17674  0.60815  1.0000
  C   C99       1.0  0.86858  0.35887  0.33341  1.0000
  C   C100      1.0  0.78673  0.26391  0.34591  1.0000
  C   C101      1.0  0.80916  0.28988  0.42595  1.0000
  C   C102      1.0  0.85050  0.33721  0.41815  1.0000
  H   H51       1.0  0.86486  0.35805  0.47460  1.0000
  C   C103      1.0  0.74210  0.21912  0.35027  1.0000
  C   C104      1.0  0.64704  0.13691  0.35348  1.0000
  C   C105      1.0  0.67106  0.15924  0.43442  1.0000
  C   C106      1.0  0.71893  0.20031  0.43428  1.0000
  C   C107      1.0  0.74258  0.22524  0.51401  1.0000
  C   C108      1.0  0.78754  0.26960  0.50991  1.0000
  H   H52       1.0  0.65185  0.14787  0.49322  1.0000
  O   O17       1.0  0.72092  0.20913  0.59548  1.0000
  H   H53       1.0  0.73107  0.18613  0.61687  1.0000
  O   O18       1.0  0.80718  0.29430  0.58768  1.0000
  H   H54       1.0  0.83029  0.28409  0.60816  1.0000
