data_image0
_chemical_formula_structural       HC8H4CNCH2CHC7H4CNCH2CHC2H2C3HNH2NC2H2C3HNH2NC2H2C3HNH2NC11H6NCNC2H2C11H6NCNC2H2C7H3NH2NC7H3NH2NC6H3NHN
_chemical_formula_sum              "H60 C84 N18"
_cell_length_a       44.1251
_cell_length_b       44.1251
_cell_length_c       14.9863
_cell_angle_alpha    90
_cell_angle_beta     90
_cell_angle_gamma    120

_space_group_name_H-M_alt    "P 1"
_space_group_IT_number       1

loop_
  _space_group_symop_operation_xyz
  'x, y, z'

loop_
  _atom_site_type_symbol
  _atom_site_label
  _atom_site_symmetry_multiplicity
  _atom_site_fract_x
  _atom_site_fract_y
  _atom_site_fract_z
  _atom_site_occupancy
  H   H1        1.0  0.00522  0.51639  0.52134  1.0000
  C   C1        1.0  0.01895  0.51579  0.34944  1.0000
  C   C2        1.0  0.37806  0.63819  0.32561  1.0000
  C   C3        1.0  0.36296  0.74010  0.32550  1.0000
  C   C4        1.0  0.42336  0.60879  0.32831  1.0000
  C   C5        1.0  0.43710  0.64544  0.32742  1.0000
  C   C6        1.0  0.41495  0.65982  0.32612  1.0000
  C   C7        1.0  0.39966  0.76309  0.32597  1.0000
  C   C8        1.0  0.41409  0.79966  0.32726  1.0000
  H   H2        1.0  0.42632  0.68649  0.32583  1.0000
  H   H3        1.0  0.46359  0.66225  0.32815  1.0000
  H   H4        1.0  0.41652  0.75350  0.32566  1.0000
  H   H5        1.0  0.44077  0.81508  0.32780  1.0000
  C   C9        1.0  0.34826  0.70301  0.32497  1.0000
  N   N1        1.0  0.36880  0.68811  0.32506  1.0000
  C   C10       1.0  0.35566  0.65289  0.32502  1.0000
  H   H6        1.0  0.24764  0.66325  0.32566  1.0000
  H   H7        1.0  0.18606  0.62591  0.32779  1.0000
  C   C11       1.0  0.44614  0.59551  0.33071  1.0000
  H   H8        1.0  0.47177  0.61223  0.32829  1.0000
  C   C12       1.0  0.62354  0.36295  0.33892  1.0000
  C   C13       1.0  0.63818  0.26080  0.33877  1.0000
  C   C14       1.0  0.57907  0.39276  0.32380  1.0000
  C   C15       1.0  0.56498  0.35614  0.32107  1.0000
  C   C16       1.0  0.58681  0.34153  0.32911  1.0000
  C   C17       1.0  0.60146  0.23794  0.34210  1.0000
  C   C18       1.0  0.58677  0.20145  0.33480  1.0000
  H   H9        1.0  0.57542  0.31488  0.32573  1.0000
  H   H10       1.0  0.53865  0.33971  0.31251  1.0000
  H   H11       1.0  0.58478  0.24759  0.34878  1.0000
  H   H12       1.0  0.56009  0.18596  0.33565  1.0000
  C   C19       1.0  0.65301  0.29789  0.34238  1.0000
  N   N2        1.0  0.63256  0.31288  0.34211  1.0000
  C   C20       1.0  0.64580  0.34812  0.34245  1.0000
  H   H13       1.0  0.75355  0.33740  0.34871  1.0000
  H   H14       1.0  0.81517  0.37435  0.33565  1.0000
  C   C21       1.0  0.55746  0.40675  0.31106  1.0000
  H   H15       1.0  0.53859  0.39596  0.26537  1.0000
  C   C22       1.0  0.51595  0.47779  0.27398  1.0000
  C   C23       1.0  0.53484  0.45994  0.27436  1.0000
  H   H16       1.0  0.51148  0.48609  0.21415  1.0000
  H   H17       1.0  0.54377  0.45577  0.21524  1.0000
  C   C24       1.0  0.45266  0.54493  0.33961  1.0000
  C   C25       1.0  0.43479  0.50963  0.31217  1.0000
  C   C26       1.0  0.45054  0.48844  0.31603  1.0000
  H   H18       1.0  0.40970  0.49912  0.28879  1.0000
  N   N3        1.0  0.43158  0.45450  0.28907  1.0000
  H   H19       1.0  0.44080  0.43863  0.29255  1.0000
  H   H20       1.0  0.40773  0.44475  0.26714  1.0000
  N   N4        1.0  0.43549  0.56257  0.33550  1.0000
  C   C27       1.0  0.52326  0.03837  0.27410  1.0000
  C   C28       1.0  0.54109  0.07511  0.27447  1.0000
  H   H21       1.0  0.51492  0.02560  0.21429  1.0000
  H   H22       1.0  0.54521  0.08821  0.21535  1.0000
  C   C29       1.0  0.45624  0.90796  0.33960  1.0000
  C   C30       1.0  0.49154  0.92541  0.31217  1.0000
  C   C31       1.0  0.51272  0.96235  0.31607  1.0000
  H   H23       1.0  0.50206  0.91084  0.28872  1.0000
  N   N5        1.0  0.54666  0.97735  0.28906  1.0000
  H   H24       1.0  0.56251  0.00244  0.29255  1.0000
  H   H25       1.0  0.55641  0.96326  0.26708  1.0000
  N   N6        1.0  0.43862  0.87315  0.33549  1.0000
  C   C32       1.0  0.96275  0.48510  0.27412  1.0000
  C   C33       1.0  0.92601  0.46621  0.27452  1.0000
  H   H26       1.0  0.97552  0.48953  0.21429  1.0000
  H   H27       1.0  0.91291  0.45722  0.21543  1.0000
  C   C34       1.0  0.09318  0.54849  0.33952  1.0000
  C   C35       1.0  0.07573  0.56635  0.31208  1.0000
  C   C36       1.0  0.03880  0.55059  0.31599  1.0000
  H   H28       1.0  0.09030  0.59143  0.28862  1.0000
  N   N7        1.0  0.02379  0.56953  0.28898  1.0000
  H   H29       1.0  0.99871  0.56031  0.29255  1.0000
  H   H30       1.0  0.03788  0.59337  0.26705  1.0000
  N   N8        1.0  0.12799  0.56569  0.33542  1.0000
  C   C37       1.0  0.26104  0.62310  0.32550  1.0000
  C   C38       1.0  0.23806  0.63681  0.32596  1.0000
  C   C39       1.0  0.20149  0.61467  0.32725  1.0000
  C   C40       1.0  0.18633  0.57780  0.32809  1.0000
  C   C41       1.0  0.20924  0.56406  0.32729  1.0000
  C   C42       1.0  0.24577  0.58621  0.32602  1.0000
  C   C43       1.0  0.36435  0.60150  0.32614  1.0000
  C   C44       1.0  0.38650  0.58707  0.32748  1.0000
  C   C45       1.0  0.39239  0.81482  0.32811  1.0000
  C   C46       1.0  0.35573  0.79191  0.32729  1.0000
  C   C47       1.0  0.34135  0.75538  0.32601  1.0000
  H   H31       1.0  0.19956  0.53757  0.32802  1.0000
  H   H32       1.0  0.26107  0.57483  0.32579  1.0000
  H   H33       1.0  0.33791  0.58463  0.32584  1.0000
  H   H34       1.0  0.37526  0.56040  0.32807  1.0000
  H   H35       1.0  0.33893  0.80160  0.32801  1.0000
  H   H36       1.0  0.31467  0.74008  0.32578  1.0000
  N   N9        1.0  0.32022  0.63235  0.32506  1.0000
  C   C48       1.0  0.29814  0.64549  0.32497  1.0000
  N   N10       1.0  0.31304  0.68093  0.32501  1.0000
  C   C49       1.0  0.40568  0.85088  0.33045  1.0000
  C   C50       1.0  0.15027  0.55503  0.33045  1.0000
  H   H37       1.0  0.14136  0.52941  0.32782  1.0000
  H   H38       1.0  0.38897  0.85979  0.32778  1.0000
  C   C51       1.0  0.74032  0.37759  0.33887  1.0000
  C   C52       1.0  0.76319  0.36373  0.34214  1.0000
  C   C53       1.0  0.79968  0.38554  0.33487  1.0000
  C   C54       1.0  0.81462  0.42207  0.32386  1.0000
  C   C55       1.0  0.79208  0.43615  0.32109  1.0000
  C   C56       1.0  0.75564  0.41432  0.32909  1.0000
  C   C57       1.0  0.63740  0.39966  0.34217  1.0000
  C   C58       1.0  0.61559  0.41435  0.33489  1.0000
  C   C59       1.0  0.60835  0.18651  0.32368  1.0000
  C   C60       1.0  0.64497  0.20904  0.32089  1.0000
  C   C61       1.0  0.65959  0.24549  0.32889  1.0000
  H   H39       1.0  0.80198  0.46249  0.31261  1.0000
  H   H40       1.0  0.74038  0.42571  0.32573  1.0000
  H   H41       1.0  0.66373  0.41636  0.34870  1.0000
  H   H42       1.0  0.62678  0.44103  0.33555  1.0000
  H   H43       1.0  0.66140  0.19914  0.31231  1.0000
  H   H44       1.0  0.68623  0.26074  0.32550  1.0000
  N   N11       1.0  0.68125  0.36857  0.34215  1.0000
  C   C62       1.0  0.70324  0.35533  0.34243  1.0000
  N   N12       1.0  0.68824  0.31988  0.34208  1.0000
  C   C63       1.0  0.59435  0.15091  0.31107  1.0000
  C   C64       1.0  0.85022  0.44368  0.31124  1.0000
  H   H45       1.0  0.85832  0.46254  0.26550  1.0000
  H   H46       1.0  0.60511  0.14280  0.26534  1.0000
  C   C65       1.0  0.54195  0.44845  0.35540  1.0000
  C   C66       1.0  0.53037  0.45578  0.43590  1.0000
  C   C67       1.0  0.51079  0.47326  0.43709  1.0000
  C   C68       1.0  0.50356  0.48442  0.35448  1.0000
  C   C69       1.0  0.48536  0.50340  0.34938  1.0000
  C   C70       1.0  0.50319  0.53871  0.37751  1.0000
  C   C71       1.0  0.48701  0.55914  0.37324  1.0000
  H   H47       1.0  0.52820  0.54989  0.40181  1.0000
  H   H48       1.0  0.50046  0.58437  0.39575  1.0000
  H   H49       1.0  0.53579  0.44762  0.49472  1.0000
  N   N13       1.0  0.49930  0.47832  0.51700  1.0000
  H   H50       1.0  0.50415  0.47005  0.57246  1.0000
  H   H51       1.0  0.48478  0.48906  0.52125  1.0000
  N   N14       1.0  0.56047  0.43226  0.35909  1.0000
  C   C72       1.0  0.55263  0.09372  0.35549  1.0000
  C   C73       1.0  0.54539  0.07482  0.43598  1.0000
  C   C74       1.0  0.52792  0.03775  0.43719  1.0000
  C   C75       1.0  0.51671  0.01937  0.35460  1.0000
  C   C76       1.0  0.49775  0.98218  0.34950  1.0000
  C   C77       1.0  0.46245  0.96469  0.37772  1.0000
  C   C78       1.0  0.44203  0.92808  0.37341  1.0000
  H   H52       1.0  0.45126  0.97851  0.40209  1.0000
  H   H53       1.0  0.41680  0.91628  0.39593  1.0000
  H   H54       1.0  0.55361  0.08841  0.49478  1.0000
  N   N15       1.0  0.52295  0.02123  0.51708  1.0000
  H   H55       1.0  0.53115  0.03434  0.57256  1.0000
  H   H56       1.0  0.51211  0.99595  0.52137  1.0000
  N   N16       1.0  0.56884  0.12843  0.35914  1.0000
  C   C79       1.0  0.90742  0.45916  0.35557  1.0000
  C   C80       1.0  0.92633  0.47081  0.43604  1.0000
  C   C81       1.0  0.96340  0.49040  0.43720  1.0000
  C   C82       1.0  0.98178  0.49757  0.35459  1.0000
  C   C83       1.0  0.03645  0.49798  0.37766  1.0000
  C   C84       1.0  0.07306  0.51417  0.37331  1.0000
  H   H57       1.0  0.02264  0.47298  0.40205  1.0000
  H   H58       1.0  0.08486  0.50075  0.39589  1.0000
  H   H59       1.0  0.91276  0.46544  0.49486  1.0000
  N   N17       1.0  0.97995  0.50196  0.51707  1.0000
  H   H60       1.0  0.96684  0.49705  0.57257  1.0000
  N   N18       1.0  0.87271  0.44065  0.35926  1.0000
