data_image0
_chemical_formula_structural       C2NHCO2C3H2CH2C3H2CH2C2HCH2NC18H12NHNHNHNC18H12NHNHNHC3N2O4CH2C3N2O4CH2CNO2CH2
_chemical_formula_sum              "C60 N14 H48 O12"
_cell_length_a       32.591
_cell_length_b       32.5921
_cell_length_c       14.9239
_cell_angle_alpha    90
_cell_angle_beta     90
_cell_angle_gamma    119.999

_space_group_name_H-M_alt    "P 1"
_space_group_IT_number       1

loop_
  _space_group_symop_operation_xyz
  'x, y, z'

loop_
  _atom_site_type_symbol
  _atom_site_label
  _atom_site_symmetry_multiplicity
  _atom_site_fract_x
  _atom_site_fract_y
  _atom_site_fract_z
  _atom_site_occupancy
  C   C1        1.0  0.03165  0.51122  0.28089  1.0000
  C   C2        1.0  0.01825  0.52149  0.43771  1.0000
  N   N1        1.0  0.03249  0.53547  0.52765  1.0000
  H   H1        1.0  0.05289  0.51445  0.22801  1.0000
  C   C3        1.0  0.05083  0.52925  0.36656  1.0000
  O   O1        1.0  0.05129  0.51399  0.56325  1.0000
  O   O2        1.0  0.05822  0.57940  0.53766  1.0000
  C   C4        1.0  0.52288  0.46845  0.33320  1.0000
  C   C5        1.0  0.51695  0.49472  0.26450  1.0000
  C   C6        1.0  0.49517  0.52173  0.28127  1.0000
  H   H2        1.0  0.49203  0.53982  0.22842  1.0000
  H   H3        1.0  0.52815  0.49410  0.20068  1.0000
  C   C7        1.0  0.54354  0.43769  0.31131  1.0000
  H   H4        1.0  0.54592  0.43436  0.23864  1.0000
  H   H5        1.0  0.51948  0.40212  0.33666  1.0000
  C   C8        1.0  0.53798  0.05577  0.33306  1.0000
  C   C9        1.0  0.51177  0.02356  0.26433  1.0000
  C   C10       1.0  0.48476  0.97477  0.28110  1.0000
  H   H6        1.0  0.46669  0.95354  0.22826  1.0000
  H   H7        1.0  0.51242  0.03537  0.20048  1.0000
  C   C11       1.0  0.56873  0.10718  0.31118  1.0000
  H   H8        1.0  0.57211  0.11290  0.23850  1.0000
  H   H9        1.0  0.60430  0.11871  0.33661  1.0000
  C   C12       1.0  0.95064  0.48341  0.33286  1.0000
  C   C13       1.0  0.98287  0.48946  0.26411  1.0000
  H   H10       1.0  0.97106  0.47835  0.20023  1.0000
  C   C14       1.0  0.89924  0.46280  0.31097  1.0000
  H   H11       1.0  0.89353  0.46048  0.23829  1.0000
  H   H12       1.0  0.88774  0.48684  0.33643  1.0000
  N   N2        1.0  0.33717  0.66926  0.35064  1.0000
  C   C15       1.0  0.36218  0.64389  0.34254  1.0000
  C   C16       1.0  0.28680  0.64424  0.34249  1.0000
  C   C17       1.0  0.36254  0.71963  0.34253  1.0000
  C   C18       1.0  0.39376  0.74211  0.27014  1.0000
  C   C19       1.0  0.41746  0.79166  0.26073  1.0000
  C   C20       1.0  0.40967  0.82052  0.32150  1.0000
  C   C21       1.0  0.37725  0.79756  0.39238  1.0000
  C   C22       1.0  0.35498  0.74808  0.40411  1.0000
  C   C23       1.0  0.35347  0.61271  0.27010  1.0000
  C   C24       1.0  0.37933  0.58901  0.26071  1.0000
  C   C25       1.0  0.41594  0.59675  0.32156  1.0000
  C   C26       1.0  0.42537  0.62915  0.39247  1.0000
  C   C27       1.0  0.39816  0.65142  0.40418  1.0000
  C   C28       1.0  0.25834  0.60822  0.40405  1.0000
  C   C29       1.0  0.20887  0.58097  0.39225  1.0000
  C   C30       1.0  0.18591  0.59042  0.32134  1.0000
  C   C31       1.0  0.21477  0.62708  0.26060  1.0000
  C   C32       1.0  0.26433  0.65299  0.27008  1.0000
  H   H13       1.0  0.37227  0.56710  0.20680  1.0000
  H   H14       1.0  0.32831  0.60727  0.22331  1.0000
  H   H15       1.0  0.40598  0.67476  0.45594  1.0000
  H   H16       1.0  0.45255  0.63718  0.43602  1.0000
  H   H17       1.0  0.39922  0.72239  0.22338  1.0000
  H   H18       1.0  0.43939  0.80651  0.20683  1.0000
  H   H19       1.0  0.27386  0.60035  0.45574  1.0000
  H   H20       1.0  0.18972  0.55375  0.43570  1.0000
  H   H21       1.0  0.19993  0.63422  0.20677  1.0000
  H   H22       1.0  0.28405  0.67820  0.22338  1.0000
  H   H23       1.0  0.33162  0.73257  0.45584  1.0000
  H   H24       1.0  0.36920  0.81671  0.43588  1.0000
  N   N3        1.0  0.44518  0.57600  0.30689  1.0000
  H   H25       1.0  0.43277  0.55432  0.25186  1.0000
  N   N4        1.0  0.43044  0.87052  0.30679  1.0000
  H   H26       1.0  0.45218  0.87977  0.25183  1.0000
  N   N5        1.0  0.13592  0.56118  0.30661  1.0000
  H   H27       1.0  0.12666  0.57366  0.25165  1.0000
  N   N6        1.0  0.67049  0.33591  0.35933  1.0000
  C   C33       1.0  0.65000  0.36524  0.35478  1.0000
  C   C34       1.0  0.72031  0.35639  0.35466  1.0000
  C   C35       1.0  0.64116  0.28609  0.35473  1.0000
  C   C36       1.0  0.62585  0.25961  0.43480  1.0000
  C   C37       1.0  0.59614  0.21008  0.43228  1.0000
  C   C38       1.0  0.58115  0.18602  0.34973  1.0000
  C   C39       1.0  0.59637  0.21259  0.26944  1.0000
  C   C40       1.0  0.62625  0.26214  0.27193  1.0000
  C   C41       1.0  0.63881  0.38050  0.43489  1.0000
  C   C42       1.0  0.61897  0.41019  0.43243  1.0000
  C   C43       1.0  0.60993  0.42523  0.34989  1.0000
  C   C44       1.0  0.62133  0.41008  0.26959  1.0000
  C   C45       1.0  0.64099  0.38019  0.27201  1.0000
  C   C46       1.0  0.74424  0.36544  0.27183  1.0000
  C   C47       1.0  0.79379  0.38510  0.26928  1.0000
  C   C48       1.0  0.82038  0.39642  0.34953  1.0000
  C   C49       1.0  0.79634  0.38732  0.43212  1.0000
  C   C50       1.0  0.74681  0.36751  0.43470  1.0000
  H   H28       1.0  0.61145  0.42113  0.49130  1.0000
  H   H29       1.0  0.64534  0.37023  0.49548  1.0000
  H   H30       1.0  0.64913  0.36974  0.21327  1.0000
  H   H31       1.0  0.61569  0.42109  0.20902  1.0000
  H   H32       1.0  0.63609  0.27639  0.49542  1.0000
  H   H33       1.0  0.58518  0.19160  0.49114  1.0000
  H   H34       1.0  0.72562  0.35735  0.21313  1.0000
  H   H35       1.0  0.81040  0.39076  0.20868  1.0000
  H   H36       1.0  0.81483  0.39479  0.49096  1.0000
  H   H37       1.0  0.73005  0.36095  0.49534  1.0000
  H   H38       1.0  0.63673  0.28074  0.21321  1.0000
  H   H39       1.0  0.58538  0.19596  0.20886  1.0000
  N   N7        1.0  0.59134  0.45634  0.35144  1.0000
  H   H40       1.0  0.61499  0.48756  0.32073  1.0000
  N   N8        1.0  0.55005  0.13632  0.35121  1.0000
  H   H41       1.0  0.51885  0.12877  0.32040  1.0000
  N   N9        1.0  0.87007  0.41497  0.35096  1.0000
  H   H42       1.0  0.87759  0.39132  0.32010  1.0000
  C   C51       1.0  0.47701  0.52276  0.36687  1.0000
  C   C52       1.0  0.48465  0.49785  0.43797  1.0000
  C   C53       1.0  0.50779  0.47120  0.42117  1.0000
  N   N10       1.0  0.47053  0.49798  0.52785  1.0000
  N   N11       1.0  0.51633  0.44616  0.48965  1.0000
  O   O3        1.0  0.49194  0.53821  0.56366  1.0000
  O   O4        1.0  0.54355  0.47333  0.54934  1.0000
  O   O5        1.0  0.42657  0.47976  0.53761  1.0000
  O   O6        1.0  0.47877  0.41447  0.52494  1.0000
  C   C54       1.0  0.44933  0.54785  0.38181  1.0000
  H   H43       1.0  0.46604  0.57226  0.43752  1.0000
  H   H44       1.0  0.41348  0.52126  0.40219  1.0000
  C   C55       1.0  0.48364  0.95559  0.36676  1.0000
  C   C56       1.0  0.50849  0.98816  0.43789  1.0000
  C   C57       1.0  0.53514  0.03794  0.42106  1.0000
  N   N12       1.0  0.50827  0.97393  0.52781  1.0000
  N   N13       1.0  0.56012  0.07154  0.48957  1.0000
  O   O7        1.0  0.46800  0.95512  0.56347  1.0000
  O   O8        1.0  0.53290  0.07159  0.54912  1.0000
  O   O9        1.0  0.52647  0.94818  0.53775  1.0000
  O   O10       1.0  0.59178  0.06567  0.52503  1.0000
  C   C58       1.0  0.45852  0.90283  0.38175  1.0000
  H   H45       1.0  0.43406  0.89515  0.43734  1.0000
  H   H46       1.0  0.48508  0.89356  0.40232  1.0000
  C   C59       1.0  0.96848  0.49837  0.42088  1.0000
  N   N14       1.0  0.93487  0.48972  0.48939  1.0000
  O   O11       1.0  0.93482  0.46241  0.54889  1.0000
  O   O12       1.0  0.94074  0.52722  0.52493  1.0000
  C   C60       1.0  0.10359  0.55693  0.38156  1.0000
  H   H47       1.0  0.11128  0.54015  0.43716  1.0000
  H   H48       1.0  0.11284  0.59274  0.40214  1.0000
