data_image0
_chemical_formula_structural       C4OC4OH4N2C2HC4N2HCHC2HC4N2HCHC2HC2HN2C2NCHNCHCHC2NCHNCHCHC4OC4OH4N2C2HC4N2HCHC2HC4N2HCHC2HC2HN2C2NCHNCHCHC2NCHNCHCHC4OC4OH4N2C2HC4N2HCHC2HC4N2HCHC2HC2HN2C2NCHNCHCHC2NCHNCHCHC4OC4OH4N2C2HC4N2HCHC2HC4N2HCHC2HC2HN2C2NCHNCHCHC2NCHNCHCH
_chemical_formula_sum              "C144 O8 H72 N48"
_cell_length_a       38.8696
_cell_length_b       38.8696
_cell_length_c       15.0622
_cell_angle_alpha    90
_cell_angle_beta     90
_cell_angle_gamma    90

_space_group_name_H-M_alt    "P 1"
_space_group_IT_number       1

loop_
  _space_group_symop_operation_xyz
  'x, y, z'

loop_
  _atom_site_type_symbol
  _atom_site_label
  _atom_site_symmetry_multiplicity
  _atom_site_fract_x
  _atom_site_fract_y
  _atom_site_fract_z
  _atom_site_occupancy
  C   C1        1.0  0.00756  0.48653  0.30821  1.0000
  C   C2        1.0  0.05803  0.43615  0.25941  1.0000
  C   C3        1.0  0.06644  0.47141  0.25728  1.0000
  C   C4        1.0  0.04127  0.49594  0.28076  1.0000
  O   O1        1.0  0.08226  0.41214  0.23756  1.0000
  C   C5        1.0  0.48256  0.01149  0.33530  1.0000
  C   C6        1.0  0.44673  0.00418  0.33443  1.0000
  C   C7        1.0  0.42156  0.02875  0.35787  1.0000
  C   C8        1.0  0.43212  0.06196  0.38366  1.0000
  O   O2        1.0  0.40808  0.08620  0.40521  1.0000
  H   H1        1.0  0.09430  0.40626  0.29297  1.0000
  H   H2        1.0  0.40218  0.09811  0.34963  1.0000
  H   H3        1.0  0.04785  0.02121  0.27533  1.0000
  H   H4        1.0  0.43826  0.48140  0.30924  1.0000
  N   N1        1.0  0.38730  0.02317  0.35030  1.0000
  N   N2        1.0  0.09968  0.47940  0.24089  1.0000
  C   C9        1.0  0.02810  0.28300  0.33702  1.0000
  C   C10       1.0  0.02620  0.31846  0.31926  1.0000
  H   H5        1.0  0.04818  0.33113  0.30110  1.0000
  C   C11       1.0  0.99996  0.22982  0.37997  1.0000
  C   C12       1.0  0.00397  0.15815  0.40284  1.0000
  C   C13       1.0  0.03402  0.17730  0.38330  1.0000
  C   C14       1.0  0.03211  0.21309  0.37026  1.0000
  N   N3        1.0  0.05989  0.23200  0.34538  1.0000
  N   N4        1.0  0.05800  0.26510  0.32975  1.0000
  H   H6        1.0  0.05700  0.16508  0.37257  1.0000
  C   C15       1.0  0.00498  0.12195  0.40237  1.0000
  H   H7        1.0  0.02771  0.10973  0.38903  1.0000
  C   C16       1.0  0.20824  0.97468  0.23986  1.0000
  C   C17       1.0  0.17245  0.97598  0.22756  1.0000
  H   H8        1.0  0.15967  0.95357  0.21401  1.0000
  C   C18       1.0  0.26157  0.00309  0.28016  1.0000
  C   C19       1.0  0.33252  0.99781  0.31494  1.0000
  C   C20       1.0  0.31357  0.96836  0.28919  1.0000
  C   C21       1.0  0.27810  0.97075  0.27205  1.0000
  N   N5        1.0  0.25916  0.94287  0.24834  1.0000
  N   N6        1.0  0.22604  0.94470  0.23343  1.0000
  H   H9        1.0  0.32549  0.94499  0.28239  1.0000
  C   C22       1.0  0.36827  0.99539  0.32821  1.0000
  H   H10       1.0  0.38026  0.97236  0.31710  1.0000
  C   C23       1.0  0.00030  0.45068  0.30923  1.0000
  C   C24       1.0  0.02488  0.42556  0.28552  1.0000
  H   H11       1.0  0.47757  0.44216  0.33459  1.0000
  C   C25       1.0  0.46737  0.07044  0.38562  1.0000
  C   C26       1.0  0.49191  0.04524  0.36242  1.0000
  H   H12       1.0  0.01719  0.05180  0.36780  1.0000
  N   N7        1.0  0.47541  0.10373  0.40135  1.0000
  N   N8        1.0  0.01942  0.39130  0.29306  1.0000
  C   C27       1.0  0.99459  0.33632  0.32804  1.0000
  C   C28       1.0  0.96532  0.31711  0.35381  1.0000
  N   N9        1.0  0.96783  0.28291  0.37020  1.0000
  C   C29       1.0  0.99789  0.26535  0.36315  1.0000
  H   H13       1.0  0.94182  0.32859  0.36145  1.0000
  N   N10       1.0  0.97181  0.21114  0.40243  1.0000
  C   C30       1.0  0.97286  0.17663  0.41462  1.0000
  H   H14       1.0  0.95028  0.16438  0.42903  1.0000
  C   C31       1.0  0.99182  0.37208  0.31538  1.0000
  H   H15       1.0  0.96871  0.38389  0.32675  1.0000
  C   C32       1.0  0.15429  0.00733  0.23851  1.0000
  C   C33       1.0  0.17380  0.03723  0.25706  1.0000
  N   N11       1.0  0.20829  0.03515  0.26986  1.0000
  C   C34       1.0  0.22604  0.00517  0.26293  1.0000
  H   H16       1.0  0.16213  0.06054  0.26639  1.0000
  N   N12       1.0  0.28022  0.03091  0.30558  1.0000
  C   C35       1.0  0.31438  0.02927  0.32327  1.0000
  H   H17       1.0  0.32660  0.05149  0.34121  1.0000
  C   C36       1.0  0.11809  0.00883  0.23889  1.0000
  H   H18       1.0  0.10611  0.03166  0.25247  1.0000
  C   C37       1.0  0.00756  0.98653  0.30821  1.0000
  C   C38       1.0  0.05803  0.93615  0.25941  1.0000
  C   C39       1.0  0.06644  0.97141  0.25728  1.0000
  C   C40       1.0  0.04127  0.99594  0.28076  1.0000
  O   O3        1.0  0.08226  0.91214  0.23756  1.0000
  C   C41       1.0  0.48256  0.51149  0.33530  1.0000
  C   C42       1.0  0.44673  0.50418  0.33443  1.0000
  C   C43       1.0  0.42156  0.52875  0.35787  1.0000
  C   C44       1.0  0.43212  0.56196  0.38366  1.0000
  O   O4        1.0  0.40808  0.58620  0.40521  1.0000
  H   H19       1.0  0.09430  0.90626  0.29297  1.0000
  H   H20       1.0  0.40218  0.59811  0.34963  1.0000
  H   H21       1.0  0.04785  0.52121  0.27533  1.0000
  H   H22       1.0  0.43826  0.98140  0.30924  1.0000
  N   N13       1.0  0.38730  0.52317  0.35030  1.0000
  N   N14       1.0  0.09968  0.97940  0.24089  1.0000
  C   C45       1.0  0.02810  0.78300  0.33702  1.0000
  C   C46       1.0  0.02620  0.81846  0.31926  1.0000
  H   H23       1.0  0.04818  0.83113  0.30110  1.0000
  C   C47       1.0  0.99996  0.72982  0.37997  1.0000
  C   C48       1.0  0.00397  0.65815  0.40284  1.0000
  C   C49       1.0  0.03402  0.67730  0.38330  1.0000
  C   C50       1.0  0.03211  0.71310  0.37026  1.0000
  N   N15       1.0  0.05989  0.73200  0.34538  1.0000
  N   N16       1.0  0.05800  0.76510  0.32975  1.0000
  H   H24       1.0  0.05700  0.66508  0.37257  1.0000
  C   C51       1.0  0.00498  0.62195  0.40237  1.0000
  H   H25       1.0  0.02771  0.60973  0.38903  1.0000
  C   C52       1.0  0.20824  0.47468  0.23986  1.0000
  C   C53       1.0  0.17245  0.47598  0.22756  1.0000
  H   H26       1.0  0.15967  0.45357  0.21401  1.0000
  C   C54       1.0  0.26157  0.50309  0.28016  1.0000
  C   C55       1.0  0.33252  0.49781  0.31494  1.0000
  C   C56       1.0  0.31357  0.46836  0.28919  1.0000
  C   C57       1.0  0.27810  0.47075  0.27205  1.0000
  N   N17       1.0  0.25916  0.44287  0.24834  1.0000
  N   N18       1.0  0.22604  0.44471  0.23343  1.0000
  H   H27       1.0  0.32549  0.44500  0.28239  1.0000
  C   C58       1.0  0.36827  0.49539  0.32821  1.0000
  H   H28       1.0  0.38026  0.47236  0.31710  1.0000
  C   C59       1.0  0.00030  0.95068  0.30923  1.0000
  C   C60       1.0  0.02488  0.92556  0.28552  1.0000
  H   H29       1.0  0.47757  0.94216  0.33459  1.0000
  C   C61       1.0  0.46737  0.57044  0.38562  1.0000
  C   C62       1.0  0.49191  0.54524  0.36242  1.0000
  H   H30       1.0  0.01719  0.55180  0.36780  1.0000
  N   N19       1.0  0.47541  0.60373  0.40135  1.0000
  N   N20       1.0  0.01942  0.89130  0.29306  1.0000
  C   C63       1.0  0.99459  0.83632  0.32804  1.0000
  C   C64       1.0  0.96532  0.81711  0.35381  1.0000
  N   N21       1.0  0.96783  0.78291  0.37020  1.0000
  C   C65       1.0  0.99789  0.76535  0.36315  1.0000
  H   H31       1.0  0.94182  0.82859  0.36145  1.0000
  N   N22       1.0  0.97181  0.71114  0.40243  1.0000
  C   C66       1.0  0.97286  0.67663  0.41462  1.0000
  H   H32       1.0  0.95028  0.66438  0.42903  1.0000
  C   C67       1.0  0.99182  0.87208  0.31538  1.0000
  H   H33       1.0  0.96871  0.88389  0.32675  1.0000
  C   C68       1.0  0.15429  0.50733  0.23851  1.0000
  C   C69       1.0  0.17380  0.53723  0.25706  1.0000
  N   N23       1.0  0.20829  0.53515  0.26986  1.0000
  C   C70       1.0  0.22604  0.50517  0.26293  1.0000
  H   H34       1.0  0.16213  0.56054  0.26639  1.0000
  N   N24       1.0  0.28022  0.53091  0.30558  1.0000
  C   C71       1.0  0.31438  0.52927  0.32327  1.0000
  H   H35       1.0  0.32660  0.55149  0.34121  1.0000
  C   C72       1.0  0.11809  0.50883  0.23889  1.0000
  H   H36       1.0  0.10611  0.53166  0.25247  1.0000
  C   C73       1.0  0.50756  0.48653  0.30821  1.0000
  C   C74       1.0  0.55803  0.43615  0.25941  1.0000
  C   C75       1.0  0.56644  0.47141  0.25728  1.0000
  C   C76       1.0  0.54127  0.49594  0.28076  1.0000
  O   O5        1.0  0.58226  0.41214  0.23756  1.0000
  C   C77       1.0  0.98256  0.01149  0.33530  1.0000
  C   C78       1.0  0.94673  0.00418  0.33443  1.0000
  C   C79       1.0  0.92156  0.02875  0.35787  1.0000
  C   C80       1.0  0.93212  0.06196  0.38366  1.0000
  O   O6        1.0  0.90808  0.08620  0.40521  1.0000
  H   H37       1.0  0.59430  0.40626  0.29297  1.0000
  H   H38       1.0  0.90218  0.09811  0.34963  1.0000
  H   H39       1.0  0.54785  0.02121  0.27533  1.0000
  H   H40       1.0  0.93826  0.48140  0.30924  1.0000
  N   N25       1.0  0.88730  0.02317  0.35030  1.0000
  N   N26       1.0  0.59968  0.47940  0.24089  1.0000
  C   C81       1.0  0.52810  0.28300  0.33702  1.0000
  C   C82       1.0  0.52620  0.31846  0.31926  1.0000
  H   H41       1.0  0.54818  0.33113  0.30110  1.0000
  C   C83       1.0  0.49995  0.22982  0.37997  1.0000
  C   C84       1.0  0.50397  0.15815  0.40284  1.0000
  C   C85       1.0  0.53402  0.17730  0.38330  1.0000
  C   C86       1.0  0.53211  0.21309  0.37026  1.0000
  N   N27       1.0  0.55989  0.23200  0.34538  1.0000
  N   N28       1.0  0.55800  0.26510  0.32975  1.0000
  H   H42       1.0  0.55700  0.16508  0.37257  1.0000
  C   C87       1.0  0.50498  0.12195  0.40237  1.0000
  H   H43       1.0  0.52771  0.10973  0.38903  1.0000
  C   C88       1.0  0.70824  0.97468  0.23986  1.0000
  C   C89       1.0  0.67245  0.97598  0.22756  1.0000
  H   H44       1.0  0.65967  0.95357  0.21401  1.0000
  C   C90       1.0  0.76157  0.00309  0.28016  1.0000
  C   C91       1.0  0.83252  0.99781  0.31494  1.0000
  C   C92       1.0  0.81357  0.96836  0.28919  1.0000
  C   C93       1.0  0.77811  0.97075  0.27205  1.0000
  N   N29       1.0  0.75916  0.94287  0.24834  1.0000
  N   N30       1.0  0.72604  0.94470  0.23343  1.0000
  H   H45       1.0  0.82549  0.94499  0.28239  1.0000
  C   C94       1.0  0.86827  0.99539  0.32821  1.0000
  H   H46       1.0  0.88025  0.97236  0.31710  1.0000
  C   C95       1.0  0.50030  0.45068  0.30923  1.0000
  C   C96       1.0  0.52488  0.42556  0.28552  1.0000
  H   H47       1.0  0.97757  0.44216  0.33459  1.0000
  C   C97       1.0  0.96737  0.07044  0.38562  1.0000
  C   C98       1.0  0.99192  0.04524  0.36242  1.0000
  H   H48       1.0  0.51719  0.05180  0.36780  1.0000
  N   N31       1.0  0.97541  0.10373  0.40135  1.0000
  N   N32       1.0  0.51942  0.39130  0.29306  1.0000
  C   C99       1.0  0.49458  0.33632  0.32804  1.0000
  C   C100      1.0  0.46532  0.31711  0.35381  1.0000
  N   N33       1.0  0.46784  0.28291  0.37020  1.0000
  C   C101      1.0  0.49789  0.26535  0.36315  1.0000
  H   H49       1.0  0.44182  0.32859  0.36145  1.0000
  N   N34       1.0  0.47181  0.21114  0.40243  1.0000
  C   C102      1.0  0.47286  0.17663  0.41462  1.0000
  H   H50       1.0  0.45028  0.16438  0.42903  1.0000
  C   C103      1.0  0.49182  0.37208  0.31538  1.0000
  H   H51       1.0  0.46871  0.38389  0.32675  1.0000
  C   C104      1.0  0.65429  0.00733  0.23851  1.0000
  C   C105      1.0  0.67380  0.03723  0.25706  1.0000
  N   N35       1.0  0.70829  0.03515  0.26986  1.0000
  C   C106      1.0  0.72604  0.00517  0.26293  1.0000
  H   H52       1.0  0.66212  0.06054  0.26639  1.0000
  N   N36       1.0  0.78021  0.03091  0.30558  1.0000
  C   C107      1.0  0.81438  0.02927  0.32327  1.0000
  H   H53       1.0  0.82660  0.05149  0.34121  1.0000
  C   C108      1.0  0.61809  0.00883  0.23889  1.0000
  H   H54       1.0  0.60611  0.03166  0.25247  1.0000
  C   C109      1.0  0.50756  0.98653  0.30821  1.0000
  C   C110      1.0  0.55803  0.93615  0.25941  1.0000
  C   C111      1.0  0.56644  0.97141  0.25728  1.0000
  C   C112      1.0  0.54127  0.99594  0.28076  1.0000
  O   O7        1.0  0.58226  0.91214  0.23756  1.0000
  C   C113      1.0  0.98256  0.51149  0.33530  1.0000
  C   C114      1.0  0.94673  0.50418  0.33443  1.0000
  C   C115      1.0  0.92156  0.52875  0.35787  1.0000
  C   C116      1.0  0.93212  0.56196  0.38366  1.0000
  O   O8        1.0  0.90808  0.58620  0.40521  1.0000
  H   H55       1.0  0.59430  0.90626  0.29297  1.0000
  H   H56       1.0  0.90218  0.59811  0.34963  1.0000
  H   H57       1.0  0.54785  0.52121  0.27533  1.0000
  H   H58       1.0  0.93826  0.98140  0.30924  1.0000
  N   N37       1.0  0.88730  0.52317  0.35030  1.0000
  N   N38       1.0  0.59968  0.97940  0.24089  1.0000
  C   C117      1.0  0.52810  0.78300  0.33702  1.0000
  C   C118      1.0  0.52620  0.81846  0.31926  1.0000
  H   H59       1.0  0.54818  0.83113  0.30110  1.0000
  C   C119      1.0  0.49995  0.72982  0.37997  1.0000
  C   C120      1.0  0.50397  0.65815  0.40284  1.0000
  C   C121      1.0  0.53402  0.67730  0.38330  1.0000
  C   C122      1.0  0.53211  0.71310  0.37026  1.0000
  N   N39       1.0  0.55989  0.73200  0.34538  1.0000
  N   N40       1.0  0.55800  0.76510  0.32975  1.0000
  H   H60       1.0  0.55700  0.66508  0.37257  1.0000
  C   C123      1.0  0.50498  0.62195  0.40237  1.0000
  H   H61       1.0  0.52771  0.60973  0.38903  1.0000
  C   C124      1.0  0.70824  0.47468  0.23986  1.0000
  C   C125      1.0  0.67245  0.47598  0.22756  1.0000
  H   H62       1.0  0.65967  0.45357  0.21401  1.0000
  C   C126      1.0  0.76157  0.50309  0.28016  1.0000
  C   C127      1.0  0.83252  0.49781  0.31494  1.0000
  C   C128      1.0  0.81357  0.46836  0.28919  1.0000
  C   C129      1.0  0.77811  0.47075  0.27205  1.0000
  N   N41       1.0  0.75916  0.44287  0.24834  1.0000
  N   N42       1.0  0.72604  0.44471  0.23343  1.0000
  H   H63       1.0  0.82549  0.44500  0.28239  1.0000
  C   C130      1.0  0.86827  0.49539  0.32821  1.0000
  H   H64       1.0  0.88025  0.47236  0.31710  1.0000
  C   C131      1.0  0.50030  0.95068  0.30923  1.0000
  C   C132      1.0  0.52488  0.92556  0.28552  1.0000
  H   H65       1.0  0.97757  0.94216  0.33459  1.0000
  C   C133      1.0  0.96737  0.57044  0.38562  1.0000
  C   C134      1.0  0.99192  0.54524  0.36242  1.0000
  H   H66       1.0  0.51719  0.55180  0.36780  1.0000
  N   N43       1.0  0.97541  0.60373  0.40135  1.0000
  N   N44       1.0  0.51942  0.89130  0.29306  1.0000
  C   C135      1.0  0.49458  0.83632  0.32804  1.0000
  C   C136      1.0  0.46532  0.81711  0.35381  1.0000
  N   N45       1.0  0.46784  0.78291  0.37020  1.0000
  C   C137      1.0  0.49789  0.76535  0.36315  1.0000
  H   H67       1.0  0.44182  0.82859  0.36145  1.0000
  N   N46       1.0  0.47181  0.71114  0.40243  1.0000
  C   C138      1.0  0.47286  0.67663  0.41462  1.0000
  H   H68       1.0  0.45028  0.66438  0.42903  1.0000
  C   C139      1.0  0.49182  0.87208  0.31538  1.0000
  H   H69       1.0  0.46871  0.88389  0.32675  1.0000
  C   C140      1.0  0.65429  0.50733  0.23851  1.0000
  C   C141      1.0  0.67380  0.53723  0.25706  1.0000
  N   N47       1.0  0.70829  0.53515  0.26986  1.0000
  C   C142      1.0  0.72604  0.50517  0.26293  1.0000
  H   H70       1.0  0.66212  0.56054  0.26639  1.0000
  N   N48       1.0  0.78021  0.53091  0.30558  1.0000
  C   C143      1.0  0.81438  0.52927  0.32327  1.0000
  H   H71       1.0  0.82660  0.55149  0.34121  1.0000
  C   C144      1.0  0.61809  0.50883  0.23889  1.0000
  H   H72       1.0  0.60611  0.53166  0.25247  1.0000
