data_image0
_chemical_formula_structural       CNC4H2CH3CNC4H2CH3C4HCNHCH3C4HCNHCH3CNC2HCH3CNC4H2CH3CNC4H2CH3C4HCNHCH3CNHCNHNCNCNCNCNCNCNCNCNCNCNCNCNCNCNCNC4HCNHCH3CNC4H2CH3CNC4H2CH3C4HNCH3C4HCNHCH3C4HCNHCH3CNC4H2CH3C4H2C4HCH2C2NC4H2CH3C4HCNHCH3C2HCNC4H2CH3CNC4H2CH3CNC4H2CH3C4HCNHCH3C4HCNHCH3C4HCNHCH3C4HCNHCH3C4HCH3CNC4H2CH3CNC4H2CH3CNC4H2CH3C4HCH3CNC4H2CH3CNC4H2CH3C2NCNCNCNCNCNCNCNCNCNCNCNCNCNCNCNCNCNCNCNCNCNCNCNCNCNCNCNCNCNCNCNC4HCNHCH3C4HCNHCH3CNC4H2CH3CHC4HCNHCH3C4HCNHCH3C4HCNHCH3CNC4H2CH3CNC4H2CH3CNC4H2CH3CNC4H2CH3CNH3C4HCNHCH3C4HCNHCH3C4HCNHCH3CNH2C4HCNHCH3C4HCNHCH3
_chemical_formula_sum              "C336 N96 H240"
_cell_length_a       62.7986
_cell_length_b       62.7986
_cell_length_c       14.8309
_cell_angle_alpha    90
_cell_angle_beta     90
_cell_angle_gamma    120

_space_group_name_H-M_alt    "P 1"
_space_group_IT_number       1

loop_
  _space_group_symop_operation_xyz
  'x, y, z'

loop_
  _atom_site_type_symbol
  _atom_site_label
  _atom_site_symmetry_multiplicity
  _atom_site_fract_x
  _atom_site_fract_y
  _atom_site_fract_z
  _atom_site_occupancy
  C   C1        1.0  0.02745  0.07256  0.31281  1.0000
  N   N1        1.0  0.02619  0.09354  0.31374  1.0000
  C   C2        1.0  0.01004  0.12105  0.33965  1.0000
  C   C3        1.0  0.03170  0.14370  0.31542  1.0000
  C   C4        1.0  0.03096  0.16605  0.31633  1.0000
  C   C5        1.0  0.00961  0.16719  0.33846  1.0000
  H   H1        1.0  0.04647  0.18210  0.29925  1.0000
  H   H2        1.0  0.04288  0.07326  0.28702  1.0000
  C   C6        1.0  0.05539  0.14538  0.28915  1.0000
  H   H3        1.0  0.05278  0.13457  0.22829  1.0000
  H   H4        1.0  0.06198  0.13853  0.34378  1.0000
  H   H5        1.0  0.06994  0.16412  0.27463  1.0000
  C   C7        1.0  0.05652  0.98680  0.31287  1.0000
  N   N2        1.0  0.07876  0.98807  0.31378  1.0000
  C   C8        1.0  0.12243  0.00422  0.33964  1.0000
  C   C9        1.0  0.12343  0.98257  0.31540  1.0000
  C   C10       1.0  0.14652  0.98332  0.31630  1.0000
  C   C11       1.0  0.16900  0.00466  0.33844  1.0000
  H   H6        1.0  0.14705  0.96780  0.29920  1.0000
  H   H7        1.0  0.04179  0.97137  0.28712  1.0000
  C   C12       1.0  0.10141  0.95888  0.28910  1.0000
  H   H8        1.0  0.09321  0.96149  0.22825  1.0000
  H   H9        1.0  0.08797  0.95228  0.34374  1.0000
  H   H10       1.0  0.10561  0.94433  0.27454  1.0000
  C   C13       1.0  0.05255  0.25741  0.34421  1.0000
  C   C14       1.0  0.09199  0.30717  0.34343  1.0000
  C   C15       1.0  0.08837  0.29171  0.26752  1.0000
  C   C16       1.0  0.06867  0.26693  0.26975  1.0000
  H   H11       1.0  0.06519  0.25593  0.21436  1.0000
  C   C17       1.0  0.15209  0.36459  0.32469  1.0000
  N   N3        1.0  0.13353  0.34076  0.32501  1.0000
  H   H12       1.0  0.16911  0.36826  0.30393  1.0000
  C   C18       1.0  0.10334  0.30125  0.18405  1.0000
  H   H13       1.0  0.10264  0.31728  0.15952  1.0000
  H   H14       1.0  0.09685  0.28768  0.12985  1.0000
  H   H15       1.0  0.12240  0.30652  0.19813  1.0000
  C   C19       1.0  0.21628  0.96172  0.34420  1.0000
  C   C20       1.0  0.22658  0.92227  0.34346  1.0000
  C   C21       1.0  0.21471  0.92587  0.26759  1.0000
  C   C22       1.0  0.20964  0.94558  0.26982  1.0000
  H   H16       1.0  0.20211  0.94906  0.21445  1.0000
  C   C23       1.0  0.22389  0.86216  0.32471  1.0000
  N   N4        1.0  0.21862  0.88073  0.32506  1.0000
  H   H17       1.0  0.21054  0.84514  0.30399  1.0000
  C   C24       1.0  0.20925  0.91088  0.18416  1.0000
  H   H18       1.0  0.22597  0.91157  0.15956  1.0000
  H   H19       1.0  0.20215  0.91736  0.12999  1.0000
  H   H20       1.0  0.19546  0.89183  0.19832  1.0000
  C   C25       1.0  0.27476  0.05519  0.26603  1.0000
  N   N5        1.0  0.29842  0.07383  0.26953  1.0000
  C   C26       1.0  0.33519  0.10574  0.33724  1.0000
  C   C27       1.0  0.35330  0.09984  0.30840  1.0000
  H   H21       1.0  0.26862  0.04501  0.20823  1.0000
  C   C28       1.0  0.34696  0.07449  0.28155  1.0000
  H   H22       1.0  0.33615  0.06148  0.33454  1.0000
  H   H23       1.0  0.36318  0.07274  0.26982  1.0000
  H   H24       1.0  0.33633  0.06936  0.21921  1.0000
  C   C29       1.0  0.35262  0.51219  0.27116  1.0000
  N   N6        1.0  0.32772  0.50027  0.26934  1.0000
  C   C30       1.0  0.28653  0.47411  0.32130  1.0000
  C   C31       1.0  0.27579  0.48837  0.29316  1.0000
  C   C32       1.0  0.24982  0.47682  0.29054  1.0000
  C   C33       1.0  0.23407  0.45188  0.31499  1.0000
  H   H25       1.0  0.24217  0.48719  0.27148  1.0000
  H   H26       1.0  0.36220  0.52412  0.22011  1.0000
  C   C34       1.0  0.29042  0.51511  0.27166  1.0000
  H   H27       1.0  0.30317  0.52494  0.32663  1.0000
  H   H28       1.0  0.27903  0.52355  0.26192  1.0000
  H   H29       1.0  0.30076  0.51781  0.20951  1.0000
  C   C35       1.0  0.17105  0.66163  0.27135  1.0000
  N   N7        1.0  0.18403  0.68653  0.26954  1.0000
  C   C36       1.0  0.19899  0.72773  0.32132  1.0000
  C   C37       1.0  0.22401  0.73847  0.29351  1.0000
  C   C38       1.0  0.23844  0.76444  0.29097  1.0000
  C   C39       1.0  0.22923  0.78018  0.31522  1.0000
  H   H30       1.0  0.25647  0.77208  0.27214  1.0000
  H   H31       1.0  0.17347  0.65205  0.22051  1.0000
  C   C40       1.0  0.23614  0.72384  0.27228  1.0000
  H   H32       1.0  0.23318  0.71109  0.32727  1.0000
  H   H33       1.0  0.25597  0.73523  0.26276  1.0000
  H   H34       1.0  0.22856  0.71351  0.21006  1.0000
  C   C41       1.0  0.14219  0.56605  0.31962  1.0000
  C   C42       1.0  0.15434  0.52832  0.32426  1.0000
  C   C43       1.0  0.13261  0.52388  0.27880  1.0000
  C   C44       1.0  0.12691  0.54299  0.27795  1.0000
  H   H35       1.0  0.11095  0.53984  0.24753  1.0000
  C   C45       1.0  0.17584  0.48625  0.26084  1.0000
  N   N8        1.0  0.17091  0.50493  0.26326  1.0000
  H   H36       1.0  0.18390  0.48409  0.20432  1.0000
  C   C46       1.0  0.11558  0.49976  0.23628  1.0000
  H   H37       1.0  0.10893  0.48521  0.28691  1.0000
  H   H38       1.0  0.12521  0.49579  0.18357  1.0000
  H   H39       1.0  0.09959  0.49939  0.20560  1.0000
  C   C47       1.0  0.32182  0.83844  0.26083  1.0000
  N   N9        1.0  0.34543  0.84336  0.26324  1.0000
  H   H40       1.0  0.31160  0.83038  0.20430  1.0000
  C   C48       1.0  0.06036  0.58977  0.34601  1.0000
  N   N10       1.0  0.03543  0.57763  0.34663  1.0000
  H   H41       1.0  0.06950  0.60807  0.33045  1.0000
  N   N11       1.0  0.00902  0.98455  0.34405  1.0000
  C   C49       1.0  0.03091  0.00617  0.34401  1.0000
  N   N12       1.0  0.02971  0.02731  0.34404  1.0000
  C   C50       1.0  0.00921  0.18999  0.33986  1.0000
  N   N13       1.0  0.03054  0.21227  0.33881  1.0000
  C   C51       1.0  0.03070  0.23406  0.34174  1.0000
  N   N14       1.0  0.00873  0.23333  0.34403  1.0000
  C   C52       1.0  0.23624  0.02727  0.34415  1.0000
  N   N15       1.0  0.21422  0.02669  0.34278  1.0000
  C   C53       1.0  0.19220  0.00507  0.33982  1.0000
  N   N16       1.0  0.19316  0.98374  0.33881  1.0000
  C   C54       1.0  0.21479  0.98358  0.34177  1.0000
  N   N17       1.0  0.23603  0.00555  0.34399  1.0000
  C   C55       1.0  0.20798  0.44183  0.32169  1.0000
  N   N18       1.0  0.19081  0.41744  0.33173  1.0000
  C   C56       1.0  0.16622  0.40940  0.34266  1.0000
  N   N19       1.0  0.15932  0.42688  0.34424  1.0000
  C   C57       1.0  0.17568  0.45119  0.33392  1.0000
  N   N20       1.0  0.19956  0.45796  0.32285  1.0000
  C   C58       1.0  0.24526  0.80628  0.32191  1.0000
  N   N21       1.0  0.23804  0.82345  0.33181  1.0000
  C   C59       1.0  0.25458  0.84804  0.34262  1.0000
  N   N22       1.0  0.27897  0.85495  0.34419  1.0000
  C   C60       1.0  0.28692  0.83860  0.33392  1.0000
  N   N23       1.0  0.26982  0.81472  0.32297  1.0000
  C   C61       1.0  0.13401  0.58339  0.32900  1.0000
  N   N24       1.0  0.14877  0.60834  0.33023  1.0000
  C   C62       1.0  0.13917  0.62347  0.34235  1.0000
  N   N25       1.0  0.11441  0.61319  0.35338  1.0000
  C   C63       1.0  0.09914  0.58842  0.35317  1.0000
  N   N26       1.0  0.10957  0.57428  0.34067  1.0000
  C   C64       1.0  0.05410  0.00667  0.34447  1.0000
  C   C65       1.0  0.10054  0.00692  0.34453  1.0000
  C   C66       1.0  0.09904  0.02751  0.37927  1.0000
  C   C67       1.0  0.07604  0.02698  0.37719  1.0000
  H   H42       1.0  0.07507  0.04166  0.40222  1.0000
  C   C68       1.0  0.16700  0.02551  0.35944  1.0000
  N   N27       1.0  0.14472  0.02418  0.35934  1.0000
  H   H43       1.0  0.18211  0.04183  0.37674  1.0000
  C   C69       1.0  0.12030  0.04960  0.42003  1.0000
  H   H44       1.0  0.12781  0.04403  0.47575  1.0000
  H   H45       1.0  0.11544  0.06277  0.44711  1.0000
  H   H46       1.0  0.13450  0.05925  0.36920  1.0000
  C   C70       1.0  0.05723  0.27347  0.41744  1.0000
  N   N28       1.0  0.07620  0.29695  0.41403  1.0000
  C   C71       1.0  0.10978  0.33301  0.34878  1.0000
  C   C72       1.0  0.10413  0.35142  0.37597  1.0000
  C   C73       1.0  0.12321  0.37639  0.37481  1.0000
  C   C74       1.0  0.14767  0.38383  0.34867  1.0000
  H   H47       1.0  0.11904  0.38957  0.39335  1.0000
  H   H48       1.0  0.04605  0.26795  0.47288  1.0000
  C   C75       1.0  0.07882  0.34564  0.40103  1.0000
  H   H49       1.0  0.06586  0.33462  0.34819  1.0000
  H   H50       1.0  0.07731  0.36208  0.41031  1.0000
  H   H51       1.0  0.07339  0.33543  0.46431  1.0000
  C   C76       1.0  0.22768  0.95706  0.41742  1.0000
  N   N29       1.0  0.23217  0.93807  0.41402  1.0000
  C   C77       1.0  0.23462  0.90448  0.34879  1.0000
  C   C78       1.0  0.25869  0.91013  0.37592  1.0000
  C   C79       1.0  0.26458  0.89106  0.37475  1.0000
  C   C80       1.0  0.24755  0.86659  0.34862  1.0000
  H   H52       1.0  0.28194  0.89523  0.39327  1.0000
  H   H53       1.0  0.23335  0.96824  0.47284  1.0000
  C   C81       1.0  0.27822  0.93545  0.40096  1.0000
  H   H54       1.0  0.28015  0.94840  0.34813  1.0000
  H   H55       1.0  0.29618  0.93696  0.41019  1.0000
  H   H56       1.0  0.27345  0.94087  0.46426  1.0000
  C   C82       1.0  0.25943  0.04928  0.34233  1.0000
  C   C83       1.0  0.30937  0.08816  0.34310  1.0000
  C   C84       1.0  0.29472  0.08326  0.42234  1.0000
  C   C85       1.0  0.26986  0.06375  0.42029  1.0000
  H   H57       1.0  0.25945  0.05921  0.47777  1.0000
  N   N30       1.0  0.34320  0.12942  0.36254  1.0000
  C   C86       1.0  0.30525  0.09666  0.50823  1.0000
  H   H58       1.0  0.32125  0.09516  0.52721  1.0000
  H   H59       1.0  0.29215  0.08946  0.56392  1.0000
  H   H60       1.0  0.31086  0.11602  0.49998  1.0000
  C   C87       1.0  0.36479  0.50737  0.34100  1.0000
  C   C88       1.0  0.31252  0.48376  0.33185  1.0000
  C   C89       1.0  0.32385  0.47824  0.40468  1.0000
  C   C90       1.0  0.34992  0.48994  0.40672  1.0000
  H   H61       1.0  0.35835  0.48621  0.45851  1.0000
  C   C91       1.0  0.24587  0.43859  0.33884  1.0000
  N   N31       1.0  0.27084  0.45000  0.34159  1.0000
  H   H62       1.0  0.23596  0.42060  0.35833  1.0000
  C   C92       1.0  0.30957  0.46170  0.48047  1.0000
  H   H63       1.0  0.29739  0.46763  0.50946  1.0000
  H   H64       1.0  0.32130  0.46164  0.53464  1.0000
  H   H65       1.0  0.29861  0.44286  0.45614  1.0000
  C   C93       1.0  0.15396  0.64946  0.34092  1.0000
  C   C94       1.0  0.18262  0.70173  0.33180  1.0000
  C   C95       1.0  0.16567  0.69040  0.40435  1.0000
  C   C96       1.0  0.15131  0.66434  0.40636  1.0000
  H   H66       1.0  0.13908  0.65591  0.45796  1.0000
  C   C97       1.0  0.20411  0.76839  0.33867  1.0000
  N   N32       1.0  0.19055  0.74342  0.34136  1.0000
  H   H67       1.0  0.19602  0.77830  0.35794  1.0000
  C   C98       1.0  0.16330  0.70469  0.47988  1.0000
  H   H68       1.0  0.18136  0.71687  0.50917  1.0000
  H   H69       1.0  0.15143  0.69295  0.53390  1.0000
  H   H70       1.0  0.15545  0.71564  0.45519  1.0000
  C   C99       1.0  0.16401  0.56947  0.36024  1.0000
  N   N33       1.0  0.16895  0.55072  0.36261  1.0000
  C   C100      1.0  0.16061  0.50972  0.33528  1.0000
  C   C101      1.0  0.15401  0.49419  0.41229  1.0000
  C   C102      1.0  0.15833  0.47408  0.40979  1.0000
  C   C103      1.0  0.16922  0.46975  0.33394  1.0000
  H   H71       1.0  0.15406  0.46278  0.46475  1.0000
  H   H72       1.0  0.17546  0.58536  0.39390  1.0000
  C   C104      1.0  0.14289  0.49865  0.49340  1.0000
  H   H73       1.0  0.12560  0.49771  0.47539  1.0000
  H   H74       1.0  0.15544  0.51687  0.52064  1.0000
  H   H75       1.0  0.13909  0.48520  0.54664  1.0000
  C   C105      1.0  0.36052  0.85366  0.33525  1.0000
  C   C106      1.0  0.35159  0.86025  0.41227  1.0000
  C   C107      1.0  0.32716  0.85594  0.40978  1.0000
  C   C108      1.0  0.31194  0.84507  0.33390  1.0000
  H   H76       1.0  0.32014  0.86020  0.46475  1.0000
  H   H77       1.0  0.35752  0.87516  0.54664  1.0000
  C   C109      1.0  0.07312  0.57691  0.36137  1.0000
  C   C110      1.0  0.02111  0.55316  0.36343  1.0000
  C   C111      1.0  0.03271  0.53913  0.38222  1.0000
  C   C112      1.0  0.05868  0.55147  0.38044  1.0000
  H   H78       1.0  0.06722  0.54152  0.39277  1.0000
  C   C113      1.0  0.01876  0.51212  0.39881  1.0000
  H   H79       1.0  0.00877  0.50828  0.46239  1.0000
  H   H80       1.0  0.03066  0.50411  0.40301  1.0000
  C   C114      1.0  0.36717  0.87136  0.49340  1.0000
  C   C115      1.0  0.94170  0.95774  0.31277  1.0000
  N   N34       1.0  0.92072  0.93549  0.31370  1.0000
  C   C116      1.0  0.89321  0.89183  0.33965  1.0000
  C   C117      1.0  0.87056  0.89084  0.31548  1.0000
  C   C118      1.0  0.84821  0.86775  0.31637  1.0000
  C   C119      1.0  0.84707  0.84526  0.33843  1.0000
  H   H81       1.0  0.83216  0.86722  0.29932  1.0000
  H   H82       1.0  0.94100  0.97246  0.28694  1.0000
  C   C120      1.0  0.86888  0.91286  0.28927  1.0000
  H   H83       1.0  0.87967  0.92106  0.22839  1.0000
  H   H84       1.0  0.87574  0.92630  0.34392  1.0000
  H   H85       1.0  0.85013  0.90866  0.27481  1.0000
  C   C121      1.0  0.75686  0.79801  0.34420  1.0000
  C   C122      1.0  0.70709  0.78766  0.34343  1.0000
  C   C123      1.0  0.72254  0.79948  0.26746  1.0000
  C   C124      1.0  0.74732  0.80457  0.26968  1.0000
  H   H86       1.0  0.75831  0.81206  0.21425  1.0000
  C   C125      1.0  0.64968  0.79035  0.32468  1.0000
  N   N35       1.0  0.67350  0.79562  0.32499  1.0000
  H   H87       1.0  0.64600  0.80369  0.30388  1.0000
  C   C126      1.0  0.71298  0.80487  0.18395  1.0000
  H   H88       1.0  0.69694  0.78812  0.15951  1.0000
  H   H89       1.0  0.72654  0.81193  0.12972  1.0000
  H   H90       1.0  0.70771  0.81866  0.19794  1.0000
  C   C127      1.0  0.37838  0.11867  0.30961  1.0000
  C   C128      1.0  0.38612  0.14309  0.33705  1.0000
  H   H91       1.0  0.39140  0.11436  0.29002  1.0000
  C   C129      1.0  0.79179  0.73949  0.26601  1.0000
  N   N36       1.0  0.78677  0.71583  0.26952  1.0000
  C   C130      1.0  0.78194  0.67907  0.33719  1.0000
  C   C131      1.0  0.75794  0.66095  0.30836  1.0000
  C   C132      1.0  0.75170  0.63588  0.30956  1.0000
  C   C133      1.0  0.76840  0.62815  0.33698  1.0000
  H   H92       1.0  0.73437  0.62285  0.29000  1.0000
  H   H93       1.0  0.78772  0.74562  0.20825  1.0000
  C   C134      1.0  0.73892  0.66728  0.28153  1.0000
  H   H94       1.0  0.73673  0.67809  0.33453  1.0000
  H   H95       1.0  0.72096  0.65106  0.26984  1.0000
  H   H96       1.0  0.74441  0.67791  0.21918  1.0000
  C   C135      1.0  0.95910  0.22244  0.26615  1.0000
  N   N37       1.0  0.94044  0.22744  0.26965  1.0000
  C   C136      1.0  0.90850  0.23225  0.33730  1.0000
  C   C137      1.0  0.91438  0.25625  0.30844  1.0000
  C   C138      1.0  0.89555  0.26249  0.30966  1.0000
  C   C139      1.0  0.87112  0.24580  0.33712  1.0000
  H   H97       1.0  0.89985  0.27981  0.29008  1.0000
  H   H98       1.0  0.96930  0.22652  0.20840  1.0000
  C   C140      1.0  0.93973  0.27527  0.28157  1.0000
  H   H99       1.0  0.95274  0.27747  0.33456  1.0000
  H   H100      1.0  0.94147  0.29324  0.26988  1.0000
  H   H101      1.0  0.94486  0.26978  0.21922  1.0000
  C   C141      1.0  0.50203  0.84323  0.27124  1.0000
  N   N38       1.0  0.51395  0.83025  0.26942  1.0000
  C   C142      1.0  0.54014  0.81525  0.32134  1.0000
  C   C143      1.0  0.52587  0.79024  0.29335  1.0000
  C   C144      1.0  0.53742  0.77582  0.29076  1.0000
  C   C145      1.0  0.56237  0.78503  0.31515  1.0000
  H   H102      1.0  0.52704  0.75780  0.27180  1.0000
  H   H103      1.0  0.49008  0.84085  0.22026  1.0000
  C   C146      1.0  0.49912  0.77812  0.27196  1.0000
  H   H104      1.0  0.48931  0.78105  0.32694  1.0000
  H   H105      1.0  0.49069  0.75830  0.26232  1.0000
  H   H106      1.0  0.49640  0.78573  0.20978  1.0000
  C   C147      1.0  0.51080  0.36098  0.33651  1.0000
  C   C148      1.0  0.48704  0.30816  0.34567  1.0000
  C   C149      1.0  0.47631  0.31969  0.29363  1.0000
  C   C150      1.0  0.48831  0.34581  0.29159  1.0000
  H   H107      1.0  0.48044  0.35414  0.25635  1.0000
  C   C151      1.0  0.44283  0.24107  0.32607  1.0000
  N   N39       1.0  0.45486  0.26600  0.32289  1.0000
  H   H108      1.0  0.42650  0.23140  0.29261  1.0000
  C   C152      1.0  0.45308  0.30599  0.24103  1.0000
  H   H109      1.0  0.45488  0.29404  0.19192  1.0000
  H   H110      1.0  0.44833  0.31798  0.20345  1.0000
  H   H111      1.0  0.43778  0.29499  0.28644  1.0000
  C   C153      1.0  0.86157  0.50343  0.33646  1.0000
  C   C154      1.0  0.83254  0.52721  0.34576  1.0000
  C   C155      1.0  0.85476  0.53791  0.29353  1.0000
  C   C156      1.0  0.86888  0.52591  0.29145  1.0000
  H   H112      1.0  0.88505  0.53375  0.25606  1.0000
  C   C157      1.0  0.80969  0.57145  0.32635  1.0000
  N   N40       1.0  0.82259  0.55942  0.32312  1.0000
  H   H113      1.0  0.81636  0.58779  0.29296  1.0000
  C   C158      1.0  0.86425  0.56110  0.24076  1.0000
  H   H114      1.0  0.85046  0.55929  0.19180  1.0000
  H   H115      1.0  0.88096  0.56582  0.20301  1.0000
  H   H116      1.0  0.86861  0.57644  0.28609  1.0000
  C   C159      1.0  0.65326  0.15266  0.33709  1.0000
  C   C160      1.0  0.70606  0.18170  0.34647  1.0000
  C   C161      1.0  0.69455  0.15974  0.29279  1.0000
  C   C162      1.0  0.66843  0.14559  0.29072  1.0000
  H   H117      1.0  0.66010  0.12961  0.25423  1.0000
  C   C163      1.0  0.77313  0.20436  0.32841  1.0000
  N   N41       1.0  0.74820  0.19143  0.32521  1.0000
  H   H118      1.0  0.78281  0.19750  0.29621  1.0000
  C   C164      1.0  0.70829  0.15062  0.23823  1.0000
  H   H119      1.0  0.72036  0.16478  0.19053  1.0000
  H   H120      1.0  0.69631  0.13422  0.19891  1.0000
  H   H121      1.0  0.71917  0.14588  0.28250  1.0000
  C   C165      1.0  0.44820  0.57900  0.31966  1.0000
  C   C166      1.0  0.48593  0.62887  0.32429  1.0000
  C   C167      1.0  0.49036  0.61157  0.27878  1.0000
  C   C168      1.0  0.47124  0.58677  0.27793  1.0000
  H   H122      1.0  0.47439  0.57396  0.24747  1.0000
  C   C169      1.0  0.52801  0.69244  0.26089  1.0000
  N   N42       1.0  0.50932  0.66883  0.26332  1.0000
  H   H123      1.0  0.53016  0.70266  0.20438  1.0000
  C   C170      1.0  0.51447  0.61866  0.23619  1.0000
  H   H124      1.0  0.52903  0.62656  0.28678  1.0000
  H   H125      1.0  0.51844  0.63227  0.18349  1.0000
  H   H126      1.0  0.51484  0.60305  0.20547  1.0000
  C   C171      1.0  0.43526  0.87204  0.31954  1.0000
  C   C172      1.0  0.38538  0.85991  0.32424  1.0000
  C   C173      1.0  0.40268  0.88164  0.27871  1.0000
  C   C174      1.0  0.42749  0.88732  0.27784  1.0000
  H   H127      1.0  0.44029  0.90327  0.24738  1.0000
  C   C175      1.0  0.39560  0.89866  0.23614  1.0000
  H   H128      1.0  0.38770  0.90532  0.28675  1.0000
  H   H129      1.0  0.38198  0.88902  0.18345  1.0000
  H   H130      1.0  0.41121  0.91464  0.20542  1.0000
  C   C176      1.0  0.57167  0.15905  0.33166  1.0000
  N   N43       1.0  0.55277  0.16378  0.32911  1.0000
  C   C177      1.0  0.51180  0.15542  0.35729  1.0000
  C   C178      1.0  0.49791  0.15094  0.27665  1.0000
  C   C179      1.0  0.47783  0.15532  0.27750  1.0000
  C   C180      1.0  0.47191  0.16424  0.35536  1.0000
  H   H131      1.0  0.46771  0.15253  0.22007  1.0000
  H   H132      1.0  0.58745  0.17054  0.29748  1.0000
  C   C181      1.0  0.50388  0.14174  0.19356  1.0000
  H   H133      1.0  0.50276  0.12413  0.20717  1.0000
  H   H134      1.0  0.52250  0.15491  0.17149  1.0000
  H   H135      1.0  0.49136  0.13910  0.13810  1.0000
  C   C182      1.0  0.59883  0.44258  0.33129  1.0000
  N   N44       1.0  0.62245  0.46148  0.32876  1.0000
  C   C183      1.0  0.65506  0.50245  0.35711  1.0000
  C   C184      1.0  0.66445  0.51639  0.27658  1.0000
  C   C185      1.0  0.68892  0.53648  0.27750  1.0000
  C   C186      1.0  0.70377  0.54234  0.35531  1.0000
  H   H136      1.0  0.69624  0.54665  0.22015  1.0000
  H   H137      1.0  0.59453  0.42682  0.29699  1.0000
  C   C187      1.0  0.64928  0.51048  0.19355  1.0000
  H   H138      1.0  0.63278  0.51159  0.20731  1.0000
  H   H139      1.0  0.64382  0.49188  0.17128  1.0000
  H   H140      1.0  0.65914  0.52304  0.13816  1.0000
  C   C188      1.0  0.85516  0.41540  0.33125  1.0000
  N   N45       1.0  0.85045  0.39178  0.32873  1.0000
  C   C189      1.0  0.85880  0.35917  0.35713  1.0000
  C   C190      1.0  0.86338  0.34979  0.27663  1.0000
  C   C191      1.0  0.85902  0.32533  0.27757  1.0000
  C   C192      1.0  0.85003  0.31048  0.35537  1.0000
  H   H141      1.0  0.86187  0.31801  0.22023  1.0000
  H   H142      1.0  0.84370  0.41969  0.29689  1.0000
  C   C193      1.0  0.87266  0.36497  0.19362  1.0000
  H   H143      1.0  0.89025  0.38147  0.20742  1.0000
  H   H144      1.0  0.85950  0.37041  0.17130  1.0000
  H   H145      1.0  0.87537  0.35512  0.13825  1.0000
  C   C194      1.0  0.99522  0.54278  0.35849  1.0000
  C   C195      1.0  0.98239  0.54399  0.28120  1.0000
  C   C196      1.0  0.95632  0.53065  0.28321  1.0000
  C   C197      1.0  0.94344  0.51613  0.35837  1.0000
  H   H146      1.0  0.94659  0.53036  0.22733  1.0000
  C   C198      1.0  0.99533  0.55711  0.19745  1.0000
  H   H147      1.0  0.00728  0.55025  0.17408  1.0000
  H   H148      1.0  0.00644  0.57678  0.21070  1.0000
  H   H149      1.0  0.98265  0.55462  0.14279  1.0000
  C   C199      1.0  0.42447  0.47345  0.34591  1.0000
  N   N46       1.0  0.43661  0.46065  0.34654  1.0000
  C   C200      1.0  0.47145  0.45529  0.35844  1.0000
  C   C201      1.0  0.47028  0.44128  0.28110  1.0000
  C   C202      1.0  0.48361  0.42855  0.28313  1.0000
  C   C203      1.0  0.49809  0.43014  0.35838  1.0000
  H   H150      1.0  0.48393  0.41913  0.22723  1.0000
  H   H151      1.0  0.40617  0.46429  0.33032  1.0000
  C   C204      1.0  0.45720  0.44113  0.19730  1.0000
  H   H152      1.0  0.46407  0.45996  0.17400  1.0000
  H   H153      1.0  0.43752  0.43257  0.21045  1.0000
  H   H154      1.0  0.45970  0.43095  0.14262  1.0000
  C   C205      1.0  0.54081  0.95385  0.34595  1.0000
  N   N47       1.0  0.55360  0.97878  0.34657  1.0000
  C   C206      1.0  0.55898  0.01899  0.35844  1.0000
  C   C207      1.0  0.57300  0.03183  0.28110  1.0000
  C   C208      1.0  0.58573  0.05789  0.28314  1.0000
  C   C209      1.0  0.58414  0.07078  0.35839  1.0000
  H   H155      1.0  0.59515  0.06762  0.22724  1.0000
  H   H156      1.0  0.54996  0.94470  0.33039  1.0000
  C   C210      1.0  0.57314  0.01889  0.19730  1.0000
  H   H157      1.0  0.55432  0.00694  0.17399  1.0000
  H   H158      1.0  0.58169  0.00777  0.21047  1.0000
  H   H159      1.0  0.58333  0.03157  0.14263  1.0000
  C   C211      1.0  0.98668  0.98335  0.34400  1.0000
  C   C212      1.0  0.00808  0.02758  0.34400  1.0000
  N   N48       1.0  0.98694  0.00524  0.34403  1.0000
  C   C213      1.0  0.98701  0.21183  0.34425  1.0000
  N   N49       1.0  0.98759  0.19039  0.34286  1.0000
  C   C214      1.0  0.80242  0.77802  0.34411  1.0000
  N   N50       1.0  0.82386  0.80004  0.34276  1.0000
  C   C215      1.0  0.82428  0.82206  0.33982  1.0000
  N   N51       1.0  0.80199  0.82112  0.33881  1.0000
  C   C216      1.0  0.78020  0.79949  0.34171  1.0000
  N   N52       1.0  0.78092  0.77825  0.34392  1.0000
  C   C217      1.0  0.57243  0.76899  0.32177  1.0000
  N   N53       1.0  0.59682  0.77621  0.33180  1.0000
  C   C218      1.0  0.60487  0.75967  0.34268  1.0000
  N   N54       1.0  0.58739  0.73528  0.34425  1.0000
  C   C219      1.0  0.56308  0.72733  0.33393  1.0000
  N   N55       1.0  0.55631  0.74444  0.32290  1.0000
  C   C220      1.0  0.44415  0.20314  0.36310  1.0000
  N   N56       1.0  0.41981  0.18605  0.35233  1.0000
  C   C221      1.0  0.41174  0.16144  0.34295  1.0000
  N   N57       1.0  0.42918  0.15448  0.34326  1.0000
  C   C222      1.0  0.45349  0.17088  0.35409  1.0000
  N   N58       1.0  0.46039  0.19485  0.36402  1.0000
  C   C223      1.0  0.77043  0.57013  0.36333  1.0000
  N   N59       1.0  0.77767  0.59447  0.35245  1.0000
  C   C224      1.0  0.76113  0.60252  0.34295  1.0000
  N   N60       1.0  0.73672  0.58508  0.34320  1.0000
  C   C225      1.0  0.72882  0.56077  0.35409  1.0000
  N   N61       1.0  0.74590  0.55388  0.36415  1.0000
  C   C226      1.0  0.81110  0.24382  0.36360  1.0000
  N   N62       1.0  0.82818  0.23655  0.35275  1.0000
  C   C227      1.0  0.85278  0.25308  0.34316  1.0000
  N   N63       1.0  0.85977  0.27749  0.34330  1.0000
  C   C228      1.0  0.84339  0.28542  0.35416  1.0000
  N   N64       1.0  0.81942  0.26836  0.36427  1.0000
  C   C229      1.0  0.43085  0.55348  0.32906  1.0000
  N   N65       1.0  0.40591  0.54329  0.33032  1.0000
  C   C230      1.0  0.39078  0.51856  0.34244  1.0000
  N   N66       1.0  0.40105  0.50408  0.35338  1.0000
  C   C231      1.0  0.42582  0.51357  0.35310  1.0000
  N   N67       1.0  0.43996  0.53814  0.34065  1.0000
  C   C232      1.0  0.46077  0.88021  0.32894  1.0000
  N   N68       1.0  0.47095  0.86545  0.33025  1.0000
  C   C233      1.0  0.49568  0.87505  0.34243  1.0000
  N   N69       1.0  0.51016  0.89980  0.35342  1.0000
  C   C234      1.0  0.50068  0.91508  0.35315  1.0000
  N   N70       1.0  0.47611  0.90465  0.34061  1.0000
  C   C235      1.0  0.58661  0.13001  0.36682  1.0000
  N   N71       1.0  0.61124  0.14561  0.35440  1.0000
  C   C236      1.0  0.62728  0.13705  0.34239  1.0000
  N   N72       1.0  0.61806  0.11229  0.34293  1.0000
  C   C237      1.0  0.59383  0.09637  0.35609  1.0000
  N   N73       1.0  0.57858  0.10552  0.36792  1.0000
  C   C238      1.0  0.55485  0.42763  0.36653  1.0000
  N   N74       1.0  0.54580  0.40301  0.35398  1.0000
  C   C239      1.0  0.52119  0.38697  0.34208  1.0000
  N   N75       1.0  0.50567  0.39622  0.34278  1.0000
  C   C240      1.0  0.51399  0.42044  0.35605  1.0000
  N   N76       1.0  0.53839  0.43568  0.36783  1.0000
  C   C241      1.0  0.88418  0.45938  0.36651  1.0000
  N   N77       1.0  0.86860  0.46843  0.35393  1.0000
  C   C242      1.0  0.87717  0.49303  0.34197  1.0000
  N   N78       1.0  0.90193  0.50856  0.34272  1.0000
  C   C243      1.0  0.91784  0.50024  0.35603  1.0000
  N   N79       1.0  0.90867  0.47583  0.36782  1.0000
  C   C244      1.0  0.00759  0.05028  0.34446  1.0000
  C   C245      1.0  0.00734  0.09646  0.34453  1.0000
  C   C246      1.0  0.98676  0.07438  0.37931  1.0000
  C   C247      1.0  0.98729  0.05192  0.37722  1.0000
  H   H160      1.0  0.97261  0.03626  0.40229  1.0000
  C   C248      1.0  0.98876  0.14434  0.35945  1.0000
  N   N80       1.0  0.99009  0.12339  0.35934  1.0000
  H   H161      1.0  0.97244  0.14313  0.37673  1.0000
  C   C249      1.0  0.96468  0.07357  0.42013  1.0000
  H   H162      1.0  0.97026  0.08664  0.47583  1.0000
  H   H163      1.0  0.95151  0.05554  0.44726  1.0000
  H   H164      1.0  0.95502  0.07811  0.36932  1.0000
  C   C250      1.0  0.96398  0.96016  0.34446  1.0000
  C   C251      1.0  0.91780  0.91372  0.34453  1.0000
  C   C252      1.0  0.93988  0.91523  0.37936  1.0000
  C   C253      1.0  0.96234  0.93822  0.37727  1.0000
  H   H165      1.0  0.97799  0.93920  0.40237  1.0000
  C   C254      1.0  0.86992  0.84726  0.35936  1.0000
  N   N81       1.0  0.89087  0.86954  0.35926  1.0000
  H   H166      1.0  0.87114  0.83215  0.37660  1.0000
  C   C255      1.0  0.94068  0.89397  0.42024  1.0000
  H   H167      1.0  0.92760  0.88647  0.47591  1.0000
  H   H168      1.0  0.95871  0.89883  0.44742  1.0000
  H   H169      1.0  0.93615  0.87976  0.36945  1.0000
  C   C256      1.0  0.74081  0.78663  0.41745  1.0000
  N   N82       1.0  0.71732  0.78212  0.41406  1.0000
  C   C257      1.0  0.68126  0.77963  0.34881  1.0000
  C   C258      1.0  0.66285  0.75556  0.37605  1.0000
  C   C259      1.0  0.63788  0.74968  0.37489  1.0000
  C   C260      1.0  0.63044  0.76670  0.34874  1.0000
  H   H170      1.0  0.62470  0.73233  0.39348  1.0000
  H   H171      1.0  0.74633  0.78100  0.47292  1.0000
  C   C261      1.0  0.66863  0.73604  0.40116  1.0000
  H   H172      1.0  0.67964  0.73409  0.34831  1.0000
  H   H173      1.0  0.65219  0.71809  0.41048  1.0000
  H   H174      1.0  0.67885  0.74084  0.46442  1.0000
  C   C262      1.0  0.36713  0.14775  0.36261  1.0000
  H   H175      1.0  0.37106  0.16476  0.38454  1.0000
  C   C263      1.0  0.80124  0.75483  0.34227  1.0000
  C   C264      1.0  0.79019  0.70490  0.34305  1.0000
  C   C265      1.0  0.79997  0.71955  0.42225  1.0000
  C   C266      1.0  0.80532  0.74442  0.42018  1.0000
  H   H176      1.0  0.81122  0.75483  0.47764  1.0000
  C   C267      1.0  0.79204  0.64714  0.36255  1.0000
  N   N83       1.0  0.79762  0.67106  0.36247  1.0000
  H   H177      1.0  0.80512  0.64322  0.38449  1.0000
  C   C268      1.0  0.80287  0.70903  0.50810  1.0000
  H   H178      1.0  0.78538  0.69303  0.52716  1.0000
  H   H179      1.0  0.80879  0.72214  0.56378  1.0000
  H   H180      1.0  0.81663  0.70344  0.49977  1.0000
  C   C269      1.0  0.96499  0.21300  0.34244  1.0000
  C   C270      1.0  0.92608  0.22400  0.34316  1.0000
  C   C271      1.0  0.93096  0.21423  0.42235  1.0000
  C   C272      1.0  0.95048  0.20889  0.42033  1.0000
  H   H181      1.0  0.95500  0.20299  0.47777  1.0000
  C   C273      1.0  0.86648  0.22216  0.36274  1.0000
  N   N84       1.0  0.88482  0.21658  0.36264  1.0000
  H   H182      1.0  0.84948  0.20909  0.38472  1.0000
  C   C274      1.0  0.91752  0.21130  0.50820  1.0000
  H   H183      1.0  0.91900  0.22879  0.52728  1.0000
  H   H184      1.0  0.92472  0.20539  0.56388  1.0000
  H   H185      1.0  0.89817  0.19753  0.49983  1.0000
  C   C275      1.0  0.50688  0.86025  0.34100  1.0000
  C   C276      1.0  0.53050  0.83161  0.33185  1.0000
  C   C277      1.0  0.53606  0.84849  0.40459  1.0000
  C   C278      1.0  0.52435  0.86285  0.40662  1.0000
  H   H186      1.0  0.52810  0.87504  0.45834  1.0000
  C   C279      1.0  0.57567  0.81013  0.33878  1.0000
  N   N85       1.0  0.56426  0.82369  0.34150  1.0000
  H   H187      1.0  0.59367  0.81821  0.35814  1.0000
  C   C280      1.0  0.55263  0.85078  0.48028  1.0000
  H   H188      1.0  0.54672  0.83269  0.50937  1.0000
  H   H189      1.0  0.55272  0.86260  0.53440  1.0000
  H   H190      1.0  0.57146  0.85866  0.45582  1.0000
  C   C281      1.0  0.52114  0.34880  0.38289  1.0000
  N   N86       1.0  0.50886  0.32392  0.38587  1.0000
  C   C282      1.0  0.47721  0.28191  0.35953  1.0000
  C   C283      1.0  0.48870  0.27060  0.40834  1.0000
  C   C284      1.0  0.47683  0.24454  0.41091  1.0000
  C   C285      1.0  0.45393  0.22910  0.36883  1.0000
  H   H191      1.0  0.48524  0.23644  0.44409  1.0000
  H   H192      1.0  0.53701  0.35827  0.41924  1.0000
  C   C286      1.0  0.51277  0.28434  0.45614  1.0000
  H   H193      1.0  0.51167  0.29605  0.50816  1.0000
  H   H194      1.0  0.52727  0.29557  0.40815  1.0000
  H   H195      1.0  0.51831  0.27241  0.48971  1.0000
  C   C287      1.0  0.83910  0.49313  0.38310  1.0000
  N   N87       1.0  0.82650  0.50542  0.38612  1.0000
  C   C288      1.0  0.81613  0.53705  0.35965  1.0000
  C   C289      1.0  0.79331  0.52554  0.40837  1.0000
  C   C290      1.0  0.77913  0.53743  0.41099  1.0000
  C   C291      1.0  0.78661  0.56035  0.36907  1.0000
  H   H196      1.0  0.76261  0.52901  0.44411  1.0000
  H   H197      1.0  0.83272  0.47729  0.41956  1.0000
  C   C292      1.0  0.78295  0.50145  0.45598  1.0000
  H   H198      1.0  0.79572  0.50252  0.50808  1.0000
  H   H199      1.0  0.77971  0.48698  0.40789  1.0000
  H   H200      1.0  0.76545  0.49588  0.48940  1.0000
  C   C293      1.0  0.66542  0.17485  0.38551  1.0000
  N   N88       1.0  0.69030  0.18745  0.38845  1.0000
  C   C294      1.0  0.73231  0.19813  0.36023  1.0000
  C   C295      1.0  0.74361  0.22118  0.40736  1.0000
  C   C296      1.0  0.76968  0.23535  0.41000  1.0000
  C   C297      1.0  0.78512  0.22767  0.36940  1.0000
  H   H201      1.0  0.77776  0.25202  0.44204  1.0000
  H   H202      1.0  0.65594  0.18099  0.42312  1.0000
  C   C298      1.0  0.72987  0.23184  0.45296  1.0000
  H   H203      1.0  0.71831  0.21950  0.50630  1.0000
  H   H204      1.0  0.71850  0.23459  0.40400  1.0000
  H   H205      1.0  0.74181  0.24964  0.48447  1.0000
  C   C299      1.0  0.44478  0.59739  0.36034  1.0000
  N   N89       1.0  0.46354  0.62109  0.36270  1.0000
  C   C300      1.0  0.50454  0.65373  0.33531  1.0000
  C   C301      1.0  0.52008  0.66266  0.41229  1.0000
  C   C302      1.0  0.54020  0.68709  0.40979  1.0000
  C   C303      1.0  0.54453  0.70231  0.33394  1.0000
  H   H206      1.0  0.55150  0.69411  0.46473  1.0000
  H   H207      1.0  0.42890  0.59296  0.39405  1.0000
  C   C304      1.0  0.51563  0.64708  0.49340  1.0000
  H   H208      1.0  0.51655  0.63071  0.47535  1.0000
  H   H209      1.0  0.49741  0.64141  0.52066  1.0000
  H   H210      1.0  0.52908  0.65672  0.54661  1.0000
  C   C305      1.0  0.41686  0.85024  0.36027  1.0000
  N   N90       1.0  0.39317  0.84531  0.36265  1.0000
  H   H211      1.0  0.42130  0.83879  0.39397  1.0000
  H   H212      1.0  0.38353  0.88865  0.47539  1.0000
  H   H213      1.0  0.37283  0.85880  0.52062  1.0000
  C   C306      1.0  0.56868  0.13758  0.37403  1.0000
  C   C307      1.0  0.53052  0.14927  0.36859  1.0000
  C   C308      1.0  0.52644  0.12783  0.41544  1.0000
  C   C309      1.0  0.54575  0.12238  0.41672  1.0000
  H   H214      1.0  0.54283  0.10668  0.44856  1.0000
  C   C310      1.0  0.48685  0.16892  0.43220  1.0000
  N   N91       1.0  0.50554  0.16398  0.43094  1.0000
  H   H215      1.0  0.48358  0.17562  0.49019  1.0000
  C   C311      1.0  0.50244  0.11075  0.45860  1.0000
  H   H216      1.0  0.48779  0.10403  0.40837  1.0000
  H   H217      1.0  0.49852  0.12036  0.51157  1.0000
  H   H218      1.0  0.50221  0.09482  0.48913  1.0000
  C   C312      1.0  0.58035  0.44555  0.37381  1.0000
  C   C313      1.0  0.63020  0.48372  0.36837  1.0000
  C   C314      1.0  0.61284  0.48778  0.41534  1.0000
  C   C315      1.0  0.58809  0.46847  0.41661  1.0000
  H   H219      1.0  0.57531  0.47138  0.44854  1.0000
  C   C316      1.0  0.69351  0.52734  0.43202  1.0000
  N   N92       1.0  0.66989  0.50865  0.43072  1.0000
  H   H220      1.0  0.70350  0.53057  0.48996  1.0000
  C   C317      1.0  0.61976  0.51176  0.45864  1.0000
  H   H221      1.0  0.62768  0.52644  0.40847  1.0000
  H   H222      1.0  0.63330  0.51567  0.51156  1.0000
  H   H223      1.0  0.60407  0.51199  0.48926  1.0000
  C   C318      1.0  0.87659  0.43388  0.37383  1.0000
  C   C319      1.0  0.86493  0.38404  0.36841  1.0000
  C   C320      1.0  0.88633  0.40140  0.41544  1.0000
  C   C321      1.0  0.89177  0.42615  0.41670  1.0000
  H   H224      1.0  0.90744  0.43893  0.44868  1.0000
  C   C322      1.0  0.84525  0.32072  0.43204  1.0000
  N   N93       1.0  0.85017  0.34435  0.43073  1.0000
  H   H225      1.0  0.83848  0.31074  0.48997  1.0000
  C   C323      1.0  0.90339  0.39448  0.45883  1.0000
  H   H226      1.0  0.91015  0.38657  0.40869  1.0000
  H   H227      1.0  0.89375  0.38094  0.51172  1.0000
  H   H228      1.0  0.91929  0.41018  0.48948  1.0000
  C   C324      1.0  0.95719  0.51594  0.43301  1.0000
  N   N94       1.0  0.98201  0.52901  0.43010  1.0000
  H   H229      1.0  0.94882  0.50558  0.48896  1.0000
  H   H230      1.0  0.00570  0.50286  0.34411  1.0000
  C   C325      1.0  0.43732  0.49905  0.36127  1.0000
  C   C326      1.0  0.46107  0.47079  0.36338  1.0000
  C   C327      1.0  0.47510  0.49642  0.38222  1.0000
  C   C328      1.0  0.46276  0.51005  0.38042  1.0000
  H   H231      1.0  0.47271  0.52855  0.39279  1.0000
  C   C329      1.0  0.49827  0.44407  0.43303  1.0000
  N   N95       1.0  0.48520  0.45582  0.43010  1.0000
  H   H232      1.0  0.50861  0.44605  0.48901  1.0000
  C   C330      1.0  0.50211  0.50948  0.39887  1.0000
  H   H233      1.0  0.51138  0.50569  0.34417  1.0000
  H   H234      1.0  0.50594  0.50332  0.46244  1.0000
  H   H235      1.0  0.51013  0.52939  0.40312  1.0000
  C   C331      1.0  0.51520  0.94110  0.36131  1.0000
  C   C332      1.0  0.54347  0.99311  0.36337  1.0000
  C   C333      1.0  0.51784  0.98152  0.38218  1.0000
  C   C334      1.0  0.50421  0.95555  0.38040  1.0000
  H   H236      1.0  0.48571  0.94701  0.39275  1.0000
  C   C335      1.0  0.57021  0.05702  0.43305  1.0000
  N   N96       1.0  0.55845  0.03220  0.43011  1.0000
  H   H237      1.0  0.56824  0.06538  0.48904  1.0000
  C   C336      1.0  0.50479  0.99548  0.39879  1.0000
  H   H238      1.0  0.50858  0.00853  0.34409  1.0000
  H   H239      1.0  0.51095  0.00547  0.46236  1.0000
  H   H240      1.0  0.48487  0.98358  0.40302  1.0000
