data_image0
_chemical_formula_structural       C8O2H4N2C8O2H4N2C8O2H4N2C2NHCHC2NHCHC2NHCHC2NHCHC2NHCHC2NHCHC2HOC2OHN2C2HOC2OHN2C2HOC2OHN2C2NOCH3CHC2NOCH3CHC2NOCH3CHC2NOCH3CHC2NOCH3CHC2NOCH3CH
_chemical_formula_sum              "C78 O18 H54 N24"
_cell_length_a       31.1423
_cell_length_b       31.1424
_cell_length_c       15.0761
_cell_angle_alpha    90
_cell_angle_beta     90
_cell_angle_gamma    120

_space_group_name_H-M_alt    "P 1"
_space_group_IT_number       1

loop_
  _space_group_symop_operation_xyz
  'x, y, z'

loop_
  _atom_site_type_symbol
  _atom_site_label
  _atom_site_symmetry_multiplicity
  _atom_site_fract_x
  _atom_site_fract_y
  _atom_site_fract_z
  _atom_site_occupancy
  C   C1        1.0  0.02215  0.51447  0.33165  1.0000
  C   C2        1.0  0.12637  0.58032  0.33398  1.0000
  C   C3        1.0  0.09379  0.59884  0.31832  1.0000
  C   C4        1.0  0.04277  0.56526  0.30672  1.0000
  C   C5        1.0  0.97024  0.48040  0.33194  1.0000
  C   C6        1.0  0.94957  0.42959  0.30708  1.0000
  C   C7        1.0  0.89862  0.39596  0.31933  1.0000
  C   C8        1.0  0.86606  0.41448  0.33538  1.0000
  O   O1        1.0  0.01488  0.58403  0.27314  1.0000
  O   O2        1.0  0.97738  0.41083  0.27301  1.0000
  H   H1        1.0  0.00692  0.57205  0.21167  1.0000
  H   H2        1.0  0.98508  0.42275  0.21147  1.0000
  H   H3        1.0  0.18740  0.62282  0.27615  1.0000
  H   H4        1.0  0.80490  0.37194  0.27796  1.0000
  N   N1        1.0  0.87949  0.34695  0.30397  1.0000
  N   N2        1.0  0.11292  0.64785  0.30304  1.0000
  C   C9        1.0  0.47944  0.50649  0.33180  1.0000
  C   C10       1.0  0.41366  0.54493  0.33501  1.0000
  C   C11       1.0  0.39508  0.49382  0.31913  1.0000
  C   C12       1.0  0.42862  0.47639  0.30701  1.0000
  C   C13       1.0  0.51347  0.48859  0.33153  1.0000
  C   C14       1.0  0.56424  0.51874  0.30650  1.0000
  C   C15       1.0  0.59782  0.50130  0.31813  1.0000
  C   C16       1.0  0.57928  0.45018  0.33374  1.0000
  O   O3        1.0  0.40978  0.42979  0.27310  1.0000
  O   O4        1.0  0.58302  0.56538  0.27282  1.0000
  H   H5        1.0  0.42168  0.43392  0.21155  1.0000
  H   H6        1.0  0.57100  0.56132  0.21136  1.0000
  H   H7        1.0  0.37111  0.56352  0.27753  1.0000
  H   H8        1.0  0.62178  0.43167  0.27588  1.0000
  N   N3        1.0  0.64682  0.53115  0.30274  1.0000
  N   N4        1.0  0.34604  0.46399  0.30392  1.0000
  C   C17       1.0  0.48713  0.97153  0.33215  1.0000
  C   C18       1.0  0.44885  0.86732  0.33545  1.0000
  C   C19       1.0  0.49992  0.89990  0.31940  1.0000
  C   C20       1.0  0.51729  0.95088  0.30737  1.0000
  C   C21       1.0  0.50494  0.02345  0.33194  1.0000
  C   C22       1.0  0.47476  0.04404  0.30700  1.0000
  C   C23       1.0  0.49218  0.09507  0.31856  1.0000
  C   C24       1.0  0.54327  0.12767  0.33432  1.0000
  O   O5        1.0  0.56388  0.97870  0.27342  1.0000
  O   O6        1.0  0.42811  0.01615  0.27335  1.0000
  H   H9        1.0  0.55971  0.98644  0.21187  1.0000
  H   H10       1.0  0.43217  0.00823  0.21186  1.0000
  H   H11       1.0  0.43034  0.80618  0.27806  1.0000
  H   H12       1.0  0.56184  0.18871  0.27651  1.0000
  N   N5        1.0  0.46227  0.11417  0.30322  1.0000
  N   N6        1.0  0.52984  0.88079  0.30424  1.0000
  C   C25       1.0  0.20378  0.49470  0.31704  1.0000
  C   C26       1.0  0.23697  0.49790  0.24992  1.0000
  N   N7        1.0  0.26869  0.48083  0.26433  1.0000
  H   H13       1.0  0.23910  0.51478  0.19055  1.0000
  C   C27       1.0  0.17610  0.51859  0.30508  1.0000
  H   H14       1.0  0.18423  0.54189  0.25186  1.0000
  C   C28       1.0  0.49928  0.70792  0.31764  1.0000
  C   C29       1.0  0.49600  0.73786  0.25049  1.0000
  N   N8        1.0  0.51304  0.78665  0.26480  1.0000
  H   H15       1.0  0.47908  0.72305  0.19116  1.0000
  C   C30       1.0  0.47543  0.65634  0.30578  1.0000
  H   H16       1.0  0.45209  0.64114  0.25262  1.0000
  C   C31       1.0  0.28588  0.78994  0.31763  1.0000
  C   C32       1.0  0.25603  0.75684  0.25028  1.0000
  N   N9        1.0  0.20720  0.72517  0.26428  1.0000
  H   H17       1.0  0.27093  0.75474  0.19105  1.0000
  C   C33       1.0  0.33749  0.81758  0.30609  1.0000
  H   H18       1.0  0.35276  0.80952  0.25295  1.0000
  C   C34       1.0  0.78878  0.50018  0.31750  1.0000
  C   C35       1.0  0.75571  0.49695  0.25012  1.0000
  N   N10       1.0  0.72409  0.51418  0.26407  1.0000
  H   H19       1.0  0.75358  0.47992  0.19091  1.0000
  C   C36       1.0  0.81635  0.47613  0.30601  1.0000
  H   H20       1.0  0.80828  0.45280  0.25286  1.0000
  C   C37       1.0  0.49358  0.28709  0.31691  1.0000
  C   C38       1.0  0.49682  0.25711  0.24982  1.0000
  N   N11       1.0  0.47947  0.20826  0.26404  1.0000
  H   H21       1.0  0.51387  0.27189  0.19058  1.0000
  C   C39       1.0  0.51758  0.33869  0.30505  1.0000
  H   H22       1.0  0.54097  0.35384  0.25194  1.0000
  C   C40       1.0  0.70634  0.20506  0.31734  1.0000
  C   C41       1.0  0.73632  0.23826  0.25023  1.0000
  N   N12       1.0  0.78516  0.26984  0.26452  1.0000
  H   H23       1.0  0.72155  0.24049  0.19096  1.0000
  C   C42       1.0  0.65475  0.17746  0.30550  1.0000
  H   H24       1.0  0.63958  0.18567  0.25238  1.0000
  C   C43       1.0  0.05558  0.49833  0.35759  1.0000
  C   C44       1.0  0.10710  0.52926  0.35000  1.0000
  H   H25       1.0  0.04260  0.46245  0.37717  1.0000
  O   O7        1.0  0.17641  0.61161  0.33724  1.0000
  C   C45       1.0  0.88535  0.46556  0.35122  1.0000
  C   C46       1.0  0.93688  0.49652  0.35839  1.0000
  O   O8        1.0  0.81603  0.38320  0.33897  1.0000
  H   H26       1.0  0.94990  0.53247  0.37760  1.0000
  N   N13       1.0  0.85825  0.48860  0.35176  1.0000
  N   N14       1.0  0.13420  0.50623  0.35077  1.0000
  C   C47       1.0  0.49564  0.55602  0.35814  1.0000
  C   C48       1.0  0.46475  0.57668  0.35081  1.0000
  H   H27       1.0  0.53158  0.57892  0.37736  1.0000
  O   O9        1.0  0.38242  0.56373  0.33854  1.0000
  C   C49       1.0  0.52821  0.41840  0.34977  1.0000
  C   C50       1.0  0.49732  0.43903  0.35756  1.0000
  O   O10       1.0  0.61058  0.43144  0.33698  1.0000
  H   H28       1.0  0.46142  0.41611  0.37697  1.0000
  N   N15       1.0  0.50519  0.36826  0.35053  1.0000
  N   N16       1.0  0.48781  0.62682  0.35148  1.0000
  C   C51       1.0  0.43761  0.93814  0.35849  1.0000
  C   C52       1.0  0.41705  0.88659  0.35134  1.0000
  H   H29       1.0  0.41468  0.95114  0.37770  1.0000
  O   O11       1.0  0.43013  0.81729  0.33905  1.0000
  C   C53       1.0  0.57507  0.10842  0.35041  1.0000
  C   C54       1.0  0.55451  0.05690  0.35791  1.0000
  O   O12       1.0  0.56197  0.17770  0.33762  1.0000
  H   H30       1.0  0.57741  0.04392  0.37744  1.0000
  N   N17       1.0  0.62520  0.13553  0.35108  1.0000
  N   N18       1.0  0.36691  0.85949  0.35184  1.0000
  C   C55       1.0  0.20356  0.47033  0.39662  1.0000
  C   C56       1.0  0.26973  0.45999  0.34270  1.0000
  N   N19       1.0  0.23755  0.45560  0.40756  1.0000
  O   O13       1.0  0.17351  0.46492  0.46710  1.0000
  C   C57       1.0  0.19747  0.50208  0.53466  1.0000
  H   H31       1.0  0.22850  0.50021  0.56442  1.0000
  H   H32       1.0  0.17041  0.49514  0.58663  1.0000
  H   H33       1.0  0.21058  0.53931  0.50847  1.0000
  C   C58       1.0  0.31084  0.45554  0.36492  1.0000
  H   H34       1.0  0.32043  0.45964  0.43080  1.0000
  C   C59       1.0  0.52368  0.73213  0.39714  1.0000
  C   C60       1.0  0.53394  0.80860  0.34312  1.0000
  N   N20       1.0  0.53839  0.78086  0.40799  1.0000
  O   O14       1.0  0.52915  0.70756  0.46767  1.0000
  C   C61       1.0  0.49198  0.69433  0.53522  1.0000
  H   H35       1.0  0.49379  0.72721  0.56492  1.0000
  H   H36       1.0  0.49896  0.67425  0.58723  1.0000
  H   H37       1.0  0.45475  0.67014  0.50904  1.0000
  C   C62       1.0  0.53849  0.85421  0.36535  1.0000
  H   H38       1.0  0.53432  0.85972  0.43116  1.0000
  C   C63       1.0  0.26154  0.79012  0.39698  1.0000
  C   C64       1.0  0.18511  0.72408  0.34245  1.0000
  N   N21       1.0  0.21277  0.75619  0.40751  1.0000
  O   O15       1.0  0.28602  0.82006  0.46767  1.0000
  C   C65       1.0  0.29908  0.79600  0.53524  1.0000
  H   H39       1.0  0.26613  0.76492  0.56472  1.0000
  H   H40       1.0  0.31909  0.82298  0.58739  1.0000
  H   H41       1.0  0.32329  0.78296  0.50915  1.0000
  C   C66       1.0  0.13937  0.68303  0.36425  1.0000
  H   H42       1.0  0.13395  0.67349  0.43014  1.0000
  C   C67       1.0  0.78900  0.52475  0.39681  1.0000
  C   C68       1.0  0.72303  0.53522  0.34220  1.0000
  N   N22       1.0  0.75512  0.53966  0.40727  1.0000
  O   O16       1.0  0.81892  0.53018  0.46751  1.0000
  C   C69       1.0  0.79481  0.49310  0.53512  1.0000
  H   H43       1.0  0.76376  0.49503  0.56458  1.0000
  H   H44       1.0  0.82177  0.50004  0.58729  1.0000
  H   H45       1.0  0.78170  0.45583  0.50910  1.0000
  C   C70       1.0  0.68201  0.53997  0.36396  1.0000
  H   H46       1.0  0.67249  0.53591  0.42987  1.0000
  C   C71       1.0  0.46896  0.26289  0.39628  1.0000
  C   C72       1.0  0.45834  0.18628  0.34222  1.0000
  N   N23       1.0  0.45394  0.21409  0.40703  1.0000
  O   O17       1.0  0.46350  0.28752  0.46673  1.0000
  C   C73       1.0  0.50051  0.30054  0.53450  1.0000
  H   H47       1.0  0.49849  0.26756  0.56422  1.0000
  H   H48       1.0  0.49356  0.32066  0.58645  1.0000
  H   H49       1.0  0.53782  0.32462  0.50854  1.0000
  C   C74       1.0  0.45325  0.14042  0.36445  1.0000
  H   H50       1.0  0.45746  0.13498  0.43024  1.0000
  C   C75       1.0  0.73052  0.20469  0.39677  1.0000
  C   C76       1.0  0.80709  0.27074  0.34276  1.0000
  N   N24       1.0  0.77929  0.23854  0.40759  1.0000
  O   O18       1.0  0.70590  0.17462  0.46724  1.0000
  C   C77       1.0  0.69285  0.19861  0.53497  1.0000
  H   H51       1.0  0.72581  0.22957  0.56469  1.0000
  H   H52       1.0  0.67272  0.17153  0.58692  1.0000
  H   H53       1.0  0.66876  0.21181  0.50895  1.0000
  C   C78       1.0  0.85282  0.31169  0.36491  1.0000
  H   H54       1.0  0.85811  0.32114  0.43085  1.0000
