data_image0
_chemical_formula_structural       C4NC2NHOHC4NC2NHOHC4NC2NHOHC2H2CH2C2H2CH2C2H2CH2C2H2CH2C2H2CH2C2H2CH3NC18H12NC18H12NC18H12NC18H12NC18H12NC18H12C2H2CH2C2H2CH2C2H2CH2C4NC2NHOHC4NC2NHOHC4NC2NHOHC4NC2NHOHC4NC2NHOHC4NC2NHO
_chemical_formula_sum              "C189 N24 H126 O9"
_cell_length_a       52.8264
_cell_length_b       52.8264
_cell_length_c       14.9501
_cell_angle_alpha    90
_cell_angle_beta     90
_cell_angle_gamma    120

_space_group_name_H-M_alt    "P 1"
_space_group_IT_number       1

loop_
  _space_group_symop_operation_xyz
  'x, y, z'

loop_
  _atom_site_type_symbol
  _atom_site_label
  _atom_site_symmetry_multiplicity
  _atom_site_fract_x
  _atom_site_fract_y
  _atom_site_fract_z
  _atom_site_occupancy
  C   C1        1.0  0.97214  0.48767  0.32194  1.0000
  C   C2        1.0  0.98887  0.50076  0.24302  1.0000
  C   C3        1.0  0.02013  0.51687  0.24415  1.0000
  C   C4        1.0  0.03619  0.51915  0.32306  1.0000
  N   N1        1.0  0.03409  0.53052  0.16713  1.0000
  C   C5        1.0  0.02045  0.52878  0.08882  1.0000
  C   C6        1.0  0.98995  0.51138  0.08526  1.0000
  N   N2        1.0  0.97589  0.49877  0.16270  1.0000
  H   H1        1.0  0.03230  0.53969  0.03370  1.0000
  O   O1        1.0  0.97517  0.51030  0.00890  1.0000
  H   H2        1.0  0.93705  0.46977  0.02843  1.0000
  C   C7        1.0  0.51658  0.48519  0.32169  1.0000
  C   C8        1.0  0.50330  0.48871  0.24300  1.0000
  C   C9        1.0  0.48720  0.50387  0.24437  1.0000
  C   C10       1.0  0.48510  0.51777  0.32325  1.0000
  N   N3        1.0  0.47337  0.50408  0.16765  1.0000
  C   C11       1.0  0.47490  0.49205  0.08936  1.0000
  C   C12       1.0  0.49229  0.47893  0.08553  1.0000
  N   N4        1.0  0.50508  0.47759  0.16270  1.0000
  H   H3        1.0  0.46387  0.49292  0.03446  1.0000
  O   O2        1.0  0.49321  0.46514  0.00918  1.0000
  H   H4        1.0  0.53396  0.46795  0.02738  1.0000
  C   C13       1.0  0.51910  0.03215  0.32234  1.0000
  C   C14       1.0  0.51537  0.01541  0.24336  1.0000
  C   C15       1.0  0.50021  0.98415  0.24449  1.0000
  C   C16       1.0  0.48649  0.96810  0.32347  1.0000
  N   N5        1.0  0.49983  0.97019  0.16740  1.0000
  C   C17       1.0  0.51167  0.98383  0.08903  1.0000
  C   C18       1.0  0.52475  0.01433  0.08549  1.0000
  N   N6        1.0  0.52629  0.02839  0.16300  1.0000
  H   H5        1.0  0.51065  0.97197  0.03384  1.0000
  O   O3        1.0  0.53838  0.02908  0.00901  1.0000
  H   H6        1.0  0.53639  0.06739  0.02923  1.0000
  C   C19       1.0  0.26373  0.55452  0.27572  1.0000
  C   C20       1.0  0.29108  0.55636  0.26815  1.0000
  H   H7        1.0  0.30167  0.56361  0.20858  1.0000
  H   H8        1.0  0.25650  0.56138  0.22255  1.0000
  C   C21       1.0  0.31069  0.53630  0.03305  1.0000
  H   H9        1.0  0.31776  0.52759  0.08753  1.0000
  H   H10       1.0  0.29808  0.54563  0.06157  1.0000
  C   C22       1.0  0.44981  0.70999  0.27639  1.0000
  C   C23       1.0  0.44792  0.73547  0.26865  1.0000
  H   H11       1.0  0.44071  0.73880  0.20898  1.0000
  H   H12       1.0  0.44305  0.69591  0.22320  1.0000
  C   C24       1.0  0.46731  0.77541  0.03260  1.0000
  H   H13       1.0  0.47593  0.79105  0.08745  1.0000
  H   H14       1.0  0.45745  0.75338  0.06073  1.0000
  C   C25       1.0  0.29399  0.74090  0.27512  1.0000
  C   C26       1.0  0.26850  0.71354  0.26736  1.0000
  H   H15       1.0  0.26518  0.70299  0.20773  1.0000
  H   H16       1.0  0.30810  0.74817  0.22201  1.0000
  C   C27       1.0  0.22839  0.69332  0.03155  1.0000
  H   H17       1.0  0.21263  0.68627  0.08607  1.0000
  H   H18       1.0  0.25035  0.70564  0.06010  1.0000
  C   C28       1.0  0.74022  0.44480  0.27720  1.0000
  C   C29       1.0  0.71330  0.44385  0.26884  1.0000
  H   H19       1.0  0.70295  0.43701  0.20882  1.0000
  H   H20       1.0  0.74722  0.43767  0.22414  1.0000
  C   C30       1.0  0.69410  0.46556  0.03275  1.0000
  H   H21       1.0  0.68735  0.47480  0.08658  1.0000
  H   H22       1.0  0.70604  0.45566  0.06218  1.0000
  C   C31       1.0  0.55918  0.29594  0.27686  1.0000
  C   C32       1.0  0.56012  0.26996  0.26865  1.0000
  H   H23       1.0  0.56699  0.26644  0.20868  1.0000
  H   H24       1.0  0.56633  0.31006  0.22377  1.0000
  C   C33       1.0  0.53828  0.22921  0.03276  1.0000
  H   H25       1.0  0.52904  0.21322  0.08657  1.0000
  H   H26       1.0  0.54809  0.25105  0.06219  1.0000
  C   C34       1.0  0.70817  0.26404  0.27748  1.0000
  C   C35       1.0  0.73417  0.29094  0.26921  1.0000
  H   H27       1.0  0.73769  0.30130  0.20920  1.0000
  H   H28       1.0  0.69407  0.25705  0.22435  1.0000
  C   C36       1.0  0.77492  0.30988  0.03346  1.0000
  H   H29       1.0  0.79092  0.31661  0.08724  1.0000
  H   H30       1.0  0.75309  0.29784  0.06292  1.0000
  H   H31       1.0  0.77760  0.32950  0.00034  1.0000
  N   N7        1.0  0.16184  0.57847  0.33999  1.0000
  C   C37       1.0  0.17995  0.60940  0.32609  1.0000
  C   C38       1.0  0.13075  0.56384  0.33501  1.0000
  C   C39       1.0  0.17641  0.56234  0.35761  1.0000
  C   C40       1.0  0.19512  0.56961  0.43243  1.0000
  C   C41       1.0  0.21740  0.56232  0.43449  1.0000
  C   C42       1.0  0.22108  0.54676  0.36319  1.0000
  C   C43       1.0  0.20045  0.53714  0.29267  1.0000
  C   C44       1.0  0.17871  0.54507  0.28946  1.0000
  C   C45       1.0  0.17608  0.63006  0.37519  1.0000
  C   C46       1.0  0.19727  0.66004  0.37379  1.0000
  C   C47       1.0  0.22452  0.67055  0.32972  1.0000
  C   C48       1.0  0.22756  0.64972  0.27762  1.0000
  C   C49       1.0  0.20540  0.62024  0.27284  1.0000
  C   C50       1.0  0.11412  0.56432  0.40817  1.0000
  C   C51       1.0  0.08340  0.55036  0.40329  1.0000
  C   C52       1.0  0.06779  0.53404  0.32689  1.0000
  C   C53       1.0  0.08480  0.53256  0.25570  1.0000
  C   C54       1.0  0.11558  0.54781  0.25849  1.0000
  H   H32       1.0  0.19272  0.67391  0.40847  1.0000
  H   H33       1.0  0.15801  0.62348  0.41412  1.0000
  H   H34       1.0  0.20950  0.60613  0.23740  1.0000
  H   H35       1.0  0.24674  0.65524  0.24575  1.0000
  H   H36       1.0  0.19516  0.58356  0.47991  1.0000
  H   H37       1.0  0.23266  0.57108  0.48433  1.0000
  H   H38       1.0  0.12436  0.57515  0.46548  1.0000
  H   H39       1.0  0.07255  0.55246  0.45682  1.0000
  H   H40       1.0  0.07498  0.52002  0.20058  1.0000
  H   H41       1.0  0.12682  0.54691  0.20424  1.0000
  H   H42       1.0  0.16676  0.54078  0.23222  1.0000
  H   H43       1.0  0.20265  0.52641  0.23888  1.0000
  N   N8        1.0  0.42596  0.58424  0.34108  1.0000
  C   C55       1.0  0.39505  0.57151  0.32701  1.0000
  C   C56       1.0  0.44053  0.56773  0.33583  1.0000
  C   C57       1.0  0.44214  0.61495  0.35860  1.0000
  C   C58       1.0  0.43479  0.62638  0.43327  1.0000
  C   C59       1.0  0.44211  0.65595  0.43546  1.0000
  C   C60       1.0  0.45763  0.67518  0.36411  1.0000
  C   C61       1.0  0.46730  0.66418  0.29364  1.0000
  C   C62       1.0  0.45947  0.63454  0.29056  1.0000
  C   C63       1.0  0.37433  0.54705  0.37629  1.0000
  C   C64       1.0  0.34439  0.53840  0.37491  1.0000
  C   C65       1.0  0.33396  0.55517  0.33058  1.0000
  C   C66       1.0  0.35485  0.57896  0.27835  1.0000
  C   C67       1.0  0.38430  0.58615  0.27357  1.0000
  C   C68       1.0  0.44009  0.55063  0.40892  1.0000
  C   C69       1.0  0.45401  0.53383  0.40386  1.0000
  C   C70       1.0  0.47024  0.53451  0.32726  1.0000
  C   C71       1.0  0.47166  0.55297  0.25609  1.0000
  C   C72       1.0  0.45646  0.56855  0.25912  1.0000
  H   H44       1.0  0.33047  0.51999  0.40962  1.0000
  H   H45       1.0  0.38087  0.53556  0.41538  1.0000
  H   H46       1.0  0.39845  0.60432  0.23804  1.0000
  H   H47       1.0  0.34941  0.59265  0.24634  1.0000
  H   H48       1.0  0.42094  0.61248  0.48097  1.0000
  H   H49       1.0  0.43335  0.66245  0.48532  1.0000
  H   H50       1.0  0.42931  0.55005  0.46632  1.0000
  H   H51       1.0  0.45196  0.52090  0.45738  1.0000
  H   H52       1.0  0.48413  0.55564  0.20082  1.0000
  H   H53       1.0  0.45733  0.58069  0.20491  1.0000
  H   H54       1.0  0.46371  0.62688  0.23322  1.0000
  H   H55       1.0  0.47801  0.67710  0.23982  1.0000
  N   N9        1.0  0.41988  0.84244  0.34053  1.0000
  C   C73       1.0  0.43258  0.82420  0.32694  1.0000
  C   C74       1.0  0.43644  0.87353  0.33548  1.0000
  C   C75       1.0  0.38916  0.82798  0.35776  1.0000
  C   C76       1.0  0.37763  0.80926  0.43252  1.0000
  C   C77       1.0  0.34803  0.78707  0.43441  1.0000
  C   C78       1.0  0.32886  0.78346  0.36300  1.0000
  C   C79       1.0  0.33999  0.80409  0.29247  1.0000
  C   C80       1.0  0.36968  0.82579  0.28945  1.0000
  C   C81       1.0  0.45705  0.82800  0.37622  1.0000
  C   C82       1.0  0.46572  0.80672  0.37507  1.0000
  C   C83       1.0  0.44896  0.77949  0.33090  1.0000
  C   C84       1.0  0.42516  0.77654  0.27861  1.0000
  C   C85       1.0  0.41794  0.79876  0.27364  1.0000
  C   C86       1.0  0.45357  0.89014  0.40861  1.0000
  C   C87       1.0  0.47041  0.92085  0.40370  1.0000
  C   C88       1.0  0.46973  0.93649  0.32730  1.0000
  C   C89       1.0  0.45122  0.91950  0.25613  1.0000
  C   C90       1.0  0.43564  0.88872  0.25894  1.0000
  H   H56       1.0  0.48413  0.81122  0.40980  1.0000
  H   H57       1.0  0.46857  0.84607  0.41513  1.0000
  H   H58       1.0  0.39978  0.79473  0.23805  1.0000
  H   H59       1.0  0.41149  0.75737  0.24667  1.0000
  H   H60       1.0  0.39146  0.80928  0.48043  1.0000
  H   H61       1.0  0.34141  0.77188  0.48451  1.0000
  H   H62       1.0  0.45413  0.87990  0.46595  1.0000
  H   H63       1.0  0.48337  0.93169  0.45723  1.0000
  H   H64       1.0  0.44850  0.92932  0.20104  1.0000
  H   H65       1.0  0.42348  0.87749  0.20468  1.0000
  H   H66       1.0  0.37742  0.83764  0.23207  1.0000
  H   H67       1.0  0.32715  0.80193  0.23847  1.0000
  N   N10       1.0  0.84512  0.42432  0.33914  1.0000
  C   C91       1.0  0.82665  0.39334  0.32383  1.0000
  C   C92       1.0  0.87651  0.43969  0.33383  1.0000
  C   C93       1.0  0.82980  0.43983  0.35667  1.0000
  C   C94       1.0  0.81173  0.43287  0.43303  1.0000
  C   C95       1.0  0.78866  0.43905  0.43572  1.0000
  C   C96       1.0  0.78342  0.45321  0.36343  1.0000
  C   C97       1.0  0.80328  0.46250  0.29092  1.0000
  C   C98       1.0  0.82556  0.45538  0.28678  1.0000
  C   C99       1.0  0.82868  0.37209  0.37592  1.0000
  C   C100      1.0  0.80651  0.34248  0.37507  1.0000
  C   C101      1.0  0.77971  0.33285  0.32918  1.0000
  C   C102      1.0  0.77862  0.35405  0.27318  1.0000
  C   C103      1.0  0.80195  0.38301  0.26724  1.0000
  C   C104      1.0  0.89369  0.43505  0.39690  1.0000
  C   C105      1.0  0.92444  0.44961  0.39047  1.0000
  C   C106      1.0  0.94023  0.47180  0.32585  1.0000
  C   C107      1.0  0.92265  0.47781  0.26750  1.0000
  C   C108      1.0  0.89188  0.46134  0.26843  1.0000
  H   H68       1.0  0.81002  0.32831  0.41206  1.0000
  H   H69       1.0  0.84584  0.37788  0.41784  1.0000
  H   H70       1.0  0.79903  0.39739  0.22910  1.0000
  H   H71       1.0  0.76000  0.34934  0.23920  1.0000
  H   H72       1.0  0.81296  0.42002  0.48206  1.0000
  H   H73       1.0  0.77411  0.43066  0.48752  1.0000
  H   H74       1.0  0.88405  0.42101  0.44891  1.0000
  H   H75       1.0  0.93510  0.44362  0.43515  1.0000
  H   H76       1.0  0.93180  0.49487  0.22379  1.0000
  H   H77       1.0  0.88095  0.46614  0.22171  1.0000
  H   H78       1.0  0.83588  0.45832  0.22699  1.0000
  H   H79       1.0  0.79997  0.47205  0.23600  1.0000
  N   N11       1.0  0.57990  0.42145  0.33845  1.0000
  C   C109      1.0  0.61088  0.43391  0.32320  1.0000
  C   C110      1.0  0.56456  0.43750  0.33320  1.0000
  C   C111      1.0  0.56435  0.39062  0.35610  1.0000
  C   C112      1.0  0.57127  0.37948  0.43246  1.0000
  C   C113      1.0  0.56502  0.35020  0.43523  1.0000
  C   C114      1.0  0.55084  0.33080  0.36295  1.0000
  C   C115      1.0  0.54164  0.34142  0.29034  1.0000
  C   C116      1.0  0.54880  0.37083  0.28620  1.0000
  C   C117      1.0  0.63214  0.45726  0.37508  1.0000
  C   C118      1.0  0.66175  0.46468  0.37434  1.0000
  C   C119      1.0  0.67137  0.44747  0.32867  1.0000
  C   C120      1.0  0.65017  0.42513  0.27282  1.0000
  C   C121      1.0  0.62120  0.41948  0.26684  1.0000
  C   C122      1.0  0.56921  0.45931  0.39630  1.0000
  C   C123      1.0  0.55466  0.47552  0.38996  1.0000
  C   C124      1.0  0.53244  0.46913  0.32544  1.0000
  C   C125      1.0  0.52643  0.44555  0.26703  1.0000
  C   C126      1.0  0.54289  0.43124  0.26787  1.0000
  H   H80       1.0  0.67593  0.48239  0.41122  1.0000
  H   H81       1.0  0.62637  0.46867  0.41689  1.0000
  H   H82       1.0  0.60682  0.40215  0.22883  1.0000
  H   H83       1.0  0.65488  0.41120  0.23900  1.0000
  H   H84       1.0  0.58412  0.39353  0.48150  1.0000
  H   H85       1.0  0.57336  0.34401  0.48708  1.0000
  H   H86       1.0  0.58326  0.46369  0.44829  1.0000
  H   H87       1.0  0.56070  0.49217  0.43465  1.0000
  H   H88       1.0  0.50934  0.43761  0.22346  1.0000
  H   H89       1.0  0.53805  0.41548  0.22119  1.0000
  H   H90       1.0  0.54587  0.37822  0.22640  1.0000
  H   H91       1.0  0.53204  0.32855  0.23547  1.0000
  N   N12       1.0  0.58274  0.15916  0.33913  1.0000
  C   C127      1.0  0.57023  0.17761  0.32370  1.0000
  C   C128      1.0  0.56674  0.12777  0.33394  1.0000
  C   C129      1.0  0.61358  0.17448  0.35673  1.0000
  C   C130      1.0  0.62466  0.19254  0.43313  1.0000
  C   C131      1.0  0.65392  0.21562  0.43583  1.0000
  C   C132      1.0  0.67333  0.22084  0.36358  1.0000
  C   C133      1.0  0.66276  0.20101  0.29103  1.0000
  C   C134      1.0  0.63338  0.17868  0.28692  1.0000
  C   C135      1.0  0.54686  0.17550  0.37547  1.0000
  C   C136      1.0  0.53937  0.19764  0.37453  1.0000
  C   C137      1.0  0.55655  0.22447  0.32875  1.0000
  C   C138      1.0  0.57893  0.22563  0.27302  1.0000
  C   C139      1.0  0.58463  0.20234  0.26723  1.0000
  C   C140      1.0  0.54499  0.11061  0.39722  1.0000
  C   C141      1.0  0.52881  0.07986  0.39091  1.0000
  C   C142      1.0  0.53517  0.06406  0.32622  1.0000
  C   C143      1.0  0.55870  0.08162  0.26767  1.0000
  C   C144      1.0  0.57297  0.11238  0.26847  1.0000
  H   H92       1.0  0.52165  0.19411  0.41136  1.0000
  H   H93       1.0  0.53546  0.15833  0.41732  1.0000
  H   H94       1.0  0.60199  0.20531  0.22930  1.0000
  H   H95       1.0  0.59285  0.24427  0.23916  1.0000
  H   H96       1.0  0.61055  0.19134  0.48195  1.0000
  H   H97       1.0  0.66008  0.23018  0.48760  1.0000
  H   H98       1.0  0.54063  0.12028  0.44925  1.0000
  H   H99       1.0  0.51219  0.06921  0.43572  1.0000
  H   H100      1.0  0.56657  0.07246  0.22388  1.0000
  H   H101      1.0  0.58866  0.12331  0.22162  1.0000
  H   H102      1.0  0.62598  0.16832  0.22719  1.0000
  H   H103      1.0  0.67567  0.20425  0.23629  1.0000
  C   C145      1.0  0.01948  0.50570  0.40064  1.0000
  C   C146      1.0  0.98875  0.49112  0.40032  1.0000
  H   H104      1.0  0.97873  0.48323  0.46029  1.0000
  H   H105      1.0  0.02954  0.50616  0.45953  1.0000
  C   C147      1.0  0.95441  0.48129  0.64598  1.0000
  H   H106      1.0  0.94442  0.48312  0.58442  1.0000
  H   H107      1.0  0.96513  0.46856  0.63201  1.0000
  C   C148      1.0  0.49873  0.51463  0.40059  1.0000
  C   C149      1.0  0.51330  0.49848  0.40005  1.0000
  H   H108      1.0  0.52133  0.49645  0.45988  1.0000
  H   H109      1.0  0.49840  0.52433  0.45944  1.0000
  C   C150      1.0  0.52217  0.47358  0.64533  1.0000
  H   H110      1.0  0.52024  0.46171  0.58380  1.0000
  H   H111      1.0  0.53469  0.49702  0.63102  1.0000
  C   C151      1.0  0.48984  0.98481  0.40112  1.0000
  C   C152      1.0  0.50601  0.01554  0.40078  1.0000
  H   H112      1.0  0.50821  0.02557  0.46077  1.0000
  H   H113      1.0  0.48027  0.97476  0.46005  1.0000
  C   C153      1.0  0.53034  0.05004  0.64661  1.0000
  H   H114      1.0  0.54212  0.06001  0.58499  1.0000
  H   H115      1.0  0.50689  0.03951  0.63293  1.0000
  C   C154      1.0  0.30426  0.54965  0.34001  1.0000
  C   C155      1.0  0.28735  0.53930  0.41998  1.0000
  C   C156      1.0  0.25920  0.53680  0.42714  1.0000
  C   C157      1.0  0.24729  0.54510  0.35561  1.0000
  N   N13       1.0  0.24385  0.52603  0.50441  1.0000
  C   C158      1.0  0.25395  0.51794  0.57570  1.0000
  C   C159      1.0  0.28205  0.52141  0.57093  1.0000
  N   N14       1.0  0.29723  0.53174  0.49364  1.0000
  H   H116      1.0  0.24142  0.50984  0.63183  1.0000
  O   O4        1.0  0.29317  0.51283  0.63934  1.0000
  H   H117      1.0  0.33010  0.55351  0.66648  1.0000
  C   C160      1.0  0.45452  0.75534  0.34050  1.0000
  C   C161      1.0  0.46485  0.74882  0.42059  1.0000
  C   C162      1.0  0.46744  0.72323  0.42787  1.0000
  C   C163      1.0  0.45926  0.70303  0.35636  1.0000
  N   N15       1.0  0.47818  0.71870  0.50528  1.0000
  C   C164      1.0  0.48614  0.73687  0.57659  1.0000
  C   C165      1.0  0.48257  0.76143  0.57171  1.0000
  N   N16       1.0  0.47228  0.76625  0.49428  1.0000
  H   H118      1.0  0.49423  0.73247  0.63281  1.0000
  O   O5        1.0  0.49102  0.78107  0.64024  1.0000
  H   H119      1.0  0.45055  0.77808  0.66497  1.0000
  C   C166      1.0  0.24862  0.70028  0.33921  1.0000
  C   C167      1.0  0.25511  0.71716  0.41924  1.0000
  C   C168      1.0  0.28072  0.74532  0.42655  1.0000
  C   C169      1.0  0.30097  0.75728  0.35513  1.0000
  N   N17       1.0  0.28523  0.76062  0.50388  1.0000
  C   C170      1.0  0.26701  0.75046  0.57511  1.0000
  C   C171      1.0  0.24242  0.72234  0.57019  1.0000
  N   N18       1.0  0.23763  0.70721  0.49283  1.0000
  H   H120      1.0  0.27139  0.76296  0.63127  1.0000
  O   O6        1.0  0.22271  0.71120  0.63853  1.0000
  H   H121      1.0  0.22593  0.67389  0.66436  1.0000
  C   C172      1.0  0.70050  0.45139  0.33984  1.0000
  C   C173      1.0  0.71734  0.46124  0.42023  1.0000
  C   C174      1.0  0.74517  0.46300  0.42795  1.0000
  C   C175      1.0  0.75682  0.45426  0.35685  1.0000
  N   N19       1.0  0.76059  0.47372  0.50514  1.0000
  C   C176      1.0  0.75082  0.48230  0.57611  1.0000
  C   C177      1.0  0.72298  0.47943  0.57107  1.0000
  N   N20       1.0  0.70781  0.46928  0.49369  1.0000
  H   H122      1.0  0.76340  0.49032  0.63216  1.0000
  O   O7        1.0  0.71230  0.48870  0.63891  1.0000
  H   H123      1.0  0.67449  0.44871  0.66600  1.0000
  C   C178      1.0  0.55260  0.24966  0.33976  1.0000
  C   C179      1.0  0.54271  0.25667  0.42004  1.0000
  C   C180      1.0  0.54096  0.28274  0.42762  1.0000
  C   C181      1.0  0.54972  0.30312  0.35645  1.0000
  N   N21       1.0  0.53022  0.28747  0.50473  1.0000
  C   C182      1.0  0.52162  0.26914  0.57574  1.0000
  C   C183      1.0  0.52446  0.24415  0.57081  1.0000
  N   N22       1.0  0.53464  0.23911  0.49354  1.0000
  H   H124      1.0  0.51358  0.27371  0.63172  1.0000
  O   O8        1.0  0.51518  0.22422  0.63869  1.0000
  H   H125      1.0  0.55521  0.22653  0.66623  1.0000
  C   C184      1.0  0.75449  0.30373  0.34029  1.0000
  C   C185      1.0  0.74746  0.28686  0.42063  1.0000
  C   C186      1.0  0.72137  0.25904  0.42825  1.0000
  C   C187      1.0  0.70101  0.24742  0.35708  1.0000
  N   N23       1.0  0.71664  0.24359  0.50540  1.0000
  C   C188      1.0  0.73496  0.25333  0.57642  1.0000
  C   C189      1.0  0.75996  0.28115  0.57147  1.0000
  N   N24       1.0  0.76501  0.29635  0.49413  1.0000
  H   H126      1.0  0.73039  0.24071  0.63240  1.0000
  O   O9        1.0  0.77991  0.29180  0.63927  1.0000
