data_image0
_chemical_formula_structural       C2NC2OH3NCHNCHNCHC2NC2OH3C2NC2OH3C2NC2OH3C2NC2OH3NCHNCHC2NC2OH3C2NC2OH3NCHNCHC2NC2OH3C2NC2OH3NCHNCHC2NC2OH3C2NC2OH3NCHNCHNCHC2NC2OH3CNCNCNCNCNCNCNCNCNCNCNCNCNCNCNCNCNCNCNCNCNCNCNCNCNCNCNCNCNCNCNCNCNCNCNCNCNCNCNCNCNCNCNCNCNCNCNCN2CHC2NC2OH3C2NC2OH3C2NC2OH3NCHNCHNCHNCHC2NC2OH3C2NC2OH3NCHNCHC2NC2OH3C2NC2OH3NCHNCHC2NC2OH3C2NC2OH3NCHNCHC2NC2OH3C2NC2OH3C2NC2OH3NCH
_chemical_formula_sum              "C168 N96 O24 H96"
_cell_length_a       53.8746
_cell_length_b       27.7767
_cell_length_c       14.8351
_cell_angle_alpha    90
_cell_angle_beta     90
_cell_angle_gamma    90

_space_group_name_H-M_alt    "P 1"
_space_group_IT_number       1

loop_
  _space_group_symop_operation_xyz
  'x, y, z'

loop_
  _atom_site_type_symbol
  _atom_site_label
  _atom_site_symmetry_multiplicity
  _atom_site_fract_x
  _atom_site_fract_y
  _atom_site_fract_z
  _atom_site_occupancy
  C   C1        1.0  0.49206  0.46160  0.33954  1.0000
  C   C2        1.0  0.51715  0.55085  0.33953  1.0000
  N   N1        1.0  0.49215  0.54700  0.32815  1.0000
  C   C3        1.0  0.47883  0.50541  0.32723  1.0000
  C   C4        1.0  0.45176  0.50994  0.31045  1.0000
  O   O1        1.0  0.44432  0.48657  0.22871  1.0000
  H   H1        1.0  0.44615  0.54779  0.30718  1.0000
  H   H2        1.0  0.44166  0.49392  0.36667  1.0000
  H   H3        1.0  0.45198  0.50369  0.17764  1.0000
  N   N2        1.0  0.99393  0.96551  0.33856  1.0000
  C   C5        1.0  0.98093  0.00737  0.33825  1.0000
  H   H4        1.0  0.96213  0.00664  0.32928  1.0000
  N   N3        1.0  0.37908  0.35655  0.31793  1.0000
  C   C6        1.0  0.40263  0.37449  0.31478  1.0000
  H   H5        1.0  0.40578  0.40713  0.28519  1.0000
  N   N4        1.0  0.63154  0.65318  0.31808  1.0000
  C   C7        1.0  0.60801  0.63508  0.31477  1.0000
  H   H6        1.0  0.60491  0.60251  0.28486  1.0000
  C   C8        1.0  0.13833  0.81287  0.33530  1.0000
  C   C9        1.0  0.08871  0.84611  0.34140  1.0000
  N   N5        1.0  0.09517  0.80340  0.30347  1.0000
  C   C10       1.0  0.11860  0.78544  0.29714  1.0000
  C   C11       1.0  0.12145  0.74024  0.24455  1.0000
  O   O2        1.0  0.13858  0.74547  0.17132  1.0000
  H   H7        1.0  0.10359  0.72805  0.21771  1.0000
  H   H8        1.0  0.12813  0.71174  0.28856  1.0000
  H   H9        1.0  0.13148  0.76837  0.12766  1.0000
  C   C12       1.0  0.87334  0.19693  0.33520  1.0000
  C   C13       1.0  0.92293  0.16342  0.34186  1.0000
  N   N6        1.0  0.91653  0.20619  0.30395  1.0000
  C   C14       1.0  0.89313  0.22423  0.29721  1.0000
  C   C15       1.0  0.89040  0.26955  0.24490  1.0000
  O   O3        1.0  0.87331  0.26461  0.17150  1.0000
  H   H10       1.0  0.90830  0.28166  0.21829  1.0000
  H   H11       1.0  0.88375  0.29801  0.28906  1.0000
  H   H12       1.0  0.88038  0.24174  0.12772  1.0000
  C   C16       1.0  0.53524  0.20798  0.31390  1.0000
  C   C17       1.0  0.50635  0.29134  0.33107  1.0000
  N   N7        1.0  0.49904  0.25377  0.27955  1.0000
  C   C18       1.0  0.51222  0.21282  0.26680  1.0000
  C   C19       1.0  0.50090  0.17732  0.20379  1.0000
  O   O4        1.0  0.51817  0.16025  0.13767  1.0000
  H   H13       1.0  0.48485  0.19274  0.16888  1.0000
  H   H14       1.0  0.49396  0.14661  0.24192  1.0000
  H   H15       1.0  0.52280  0.18746  0.09859  1.0000
  C   C20       1.0  0.47598  0.80375  0.30414  1.0000
  C   C21       1.0  0.50468  0.72034  0.32354  1.0000
  N   N8        1.0  0.51204  0.75726  0.27054  1.0000
  C   C22       1.0  0.49889  0.79817  0.25662  1.0000
  C   C23       1.0  0.51027  0.83323  0.19297  1.0000
  O   O5        1.0  0.49287  0.85141  0.12838  1.0000
  H   H16       1.0  0.52591  0.81710  0.15671  1.0000
  H   H17       1.0  0.51783  0.86345  0.23087  1.0000
  H   H18       1.0  0.48764  0.82456  0.08940  1.0000
  N   N9        1.0  0.96807  0.74639  0.32570  1.0000
  C   C24       1.0  0.98108  0.78821  0.31780  1.0000
  H   H19       1.0  0.97439  0.81520  0.27784  1.0000
  N   N10       1.0  0.04293  0.26593  0.33372  1.0000
  C   C25       1.0  0.03006  0.22402  0.32502  1.0000
  H   H20       1.0  0.03670  0.19764  0.28351  1.0000
  C   C26       1.0  0.31383  0.18201  0.32856  1.0000
  C   C27       1.0  0.30548  0.08124  0.33370  1.0000
  N   N11       1.0  0.32516  0.10149  0.29073  1.0000
  C   C28       1.0  0.33014  0.14934  0.28417  1.0000
  C   C29       1.0  0.35155  0.16286  0.22623  1.0000
  O   O6        1.0  0.34472  0.19612  0.15672  1.0000
  H   H21       1.0  0.35995  0.13107  0.19500  1.0000
  H   H22       1.0  0.36593  0.17937  0.26733  1.0000
  H   H23       1.0  0.33328  0.17970  0.11504  1.0000
  C   C30       1.0  0.69684  0.82802  0.33010  1.0000
  C   C31       1.0  0.70544  0.92880  0.33580  1.0000
  N   N12       1.0  0.68570  0.90877  0.29280  1.0000
  C   C32       1.0  0.68061  0.86095  0.28596  1.0000
  C   C33       1.0  0.65918  0.84771  0.22790  1.0000
  O   O7        1.0  0.66597  0.81461  0.15806  1.0000
  H   H24       1.0  0.65084  0.87962  0.19698  1.0000
  H   H25       1.0  0.64479  0.83114  0.26883  1.0000
  H   H26       1.0  0.67744  0.83109  0.11655  1.0000
  N   N13       1.0  0.21760  0.66210  0.31946  1.0000
  C   C34       1.0  0.22268  0.61389  0.31671  1.0000
  H   H27       1.0  0.23787  0.60189  0.28219  1.0000
  N   N14       1.0  0.79388  0.34774  0.31803  1.0000
  C   C35       1.0  0.78866  0.39590  0.31509  1.0000
  H   H28       1.0  0.77342  0.40768  0.28061  1.0000
  C   C36       1.0  0.24670  0.42049  0.34250  1.0000
  C   C37       1.0  0.28448  0.34905  0.34268  1.0000
  N   N15       1.0  0.28948  0.39703  0.33683  1.0000
  C   C38       1.0  0.27227  0.43322  0.33618  1.0000
  C   C39       1.0  0.28181  0.48305  0.32633  1.0000
  O   O8        1.0  0.27338  0.50544  0.24488  1.0000
  H   H29       1.0  0.30212  0.48367  0.32732  1.0000
  H   H30       1.0  0.27556  0.50452  0.38358  1.0000
  H   H31       1.0  0.28069  0.48810  0.19340  1.0000
  C   C40       1.0  0.76382  0.58918  0.34295  1.0000
  C   C41       1.0  0.72604  0.66072  0.34334  1.0000
  N   N16       1.0  0.72103  0.61271  0.33737  1.0000
  C   C42       1.0  0.73825  0.57651  0.33662  1.0000
  C   C43       1.0  0.72877  0.52664  0.32670  1.0000
  O   O9        1.0  0.73718  0.50438  0.24509  1.0000
  H   H32       1.0  0.70846  0.52593  0.32790  1.0000
  H   H33       1.0  0.73511  0.50515  0.38378  1.0000
  H   H34       1.0  0.72980  0.52173  0.19374  1.0000
  N   N17       1.0  0.26923  0.87231  0.34088  1.0000
  C   C44       1.0  0.25197  0.83674  0.34082  1.0000
  H   H35       1.0  0.25769  0.80176  0.33615  1.0000
  N   N18       1.0  0.74249  0.13738  0.34028  1.0000
  C   C45       1.0  0.75973  0.17299  0.34008  1.0000
  H   H36       1.0  0.75399  0.20794  0.33531  1.0000
  C   C46       1.0  0.10676  0.41328  0.33061  1.0000
  C   C47       1.0  0.15724  0.43946  0.33629  1.0000
  N   N19       1.0  0.13996  0.46629  0.29305  1.0000
  C   C48       1.0  0.11550  0.45553  0.28593  1.0000
  C   C49       1.0  0.10058  0.48981  0.23125  1.0000
  O   O10       1.0  0.08571  0.46613  0.16459  1.0000
  H   H37       1.0  0.11245  0.51623  0.19741  1.0000
  H   H38       1.0  0.08847  0.51019  0.27591  1.0000
  H   H39       1.0  0.09690  0.45098  0.12040  1.0000
  C   C50       1.0  0.90276  0.60177  0.32661  1.0000
  C   C51       1.0  0.85298  0.57239  0.33468  1.0000
  N   N20       1.0  0.86983  0.54970  0.28190  1.0000
  C   C52       1.0  0.89402  0.56254  0.27333  1.0000
  C   C53       1.0  0.90885  0.53473  0.20665  1.0000
  O   O11       1.0  0.92188  0.56527  0.14490  1.0000
  H   H40       1.0  0.89707  0.51004  0.16818  1.0000
  H   H41       1.0  0.92239  0.51251  0.24173  1.0000
  H   H42       1.0  0.90957  0.58236  0.10769  1.0000
  N   N21       1.0  0.38688  0.88530  0.31702  1.0000
  C   C54       1.0  0.36215  0.89577  0.31463  1.0000
  H   H43       1.0  0.35031  0.87381  0.27994  1.0000
  N   N22       1.0  0.62543  0.12560  0.31124  1.0000
  C   C55       1.0  0.64995  0.11368  0.30758  1.0000
  H   H44       1.0  0.66151  0.13215  0.26535  1.0000
  N   N23       1.0  0.00912  0.54992  0.33156  1.0000
  C   C56       1.0  0.02773  0.51730  0.33015  1.0000
  H   H45       1.0  0.04489  0.52754  0.30833  1.0000
  C   C57       1.0  0.52564  0.04016  0.33066  1.0000
  C   C58       1.0  0.48855  0.96997  0.33122  1.0000
  N   N24       1.0  0.51207  0.96045  0.30314  1.0000
  C   C59       1.0  0.53097  0.99273  0.30084  1.0000
  C   C60       1.0  0.55489  0.97633  0.26182  1.0000
  O   O12       1.0  0.56209  0.00428  0.18499  1.0000
  H   H46       1.0  0.55398  0.93836  0.24232  1.0000
  H   H47       1.0  0.56937  0.97931  0.31271  1.0000
  H   H48       1.0  0.55000  0.99847  0.13640  1.0000
  C   C61       1.0  0.44801  0.35831  0.34329  1.0000
  N   N25       1.0  0.45690  0.40429  0.34225  1.0000
  C   C62       1.0  0.48177  0.41429  0.34078  1.0000
  N   N26       1.0  0.49776  0.37634  0.33985  1.0000
  C   C63       1.0  0.48976  0.33018  0.33961  1.0000
  N   N27       1.0  0.46491  0.32202  0.34102  1.0000
  C   C64       1.0  0.56252  0.65152  0.34156  1.0000
  N   N28       1.0  0.55324  0.60570  0.34213  1.0000
  C   C65       1.0  0.52820  0.59718  0.33941  1.0000
  N   N29       1.0  0.51262  0.63560  0.33545  1.0000
  C   C66       1.0  0.52108  0.68134  0.33369  1.0000
  N   N30       1.0  0.54600  0.68848  0.33645  1.0000
  C   C67       1.0  0.06310  0.85831  0.34554  1.0000
  N   N31       1.0  0.05420  0.90429  0.34660  1.0000
  C   C68       1.0  0.02933  0.91428  0.34811  1.0000
  N   N32       1.0  0.01334  0.87632  0.34905  1.0000
  C   C69       1.0  0.02135  0.83017  0.34929  1.0000
  N   N33       1.0  0.04620  0.82202  0.34784  1.0000
  C   C70       1.0  0.94859  0.15152  0.34726  1.0000
  N   N34       1.0  0.95787  0.10569  0.34670  1.0000
  C   C71       1.0  0.98291  0.09718  0.34945  1.0000
  N   N35       1.0  0.99849  0.13560  0.35342  1.0000
  C   C72       1.0  0.99002  0.18133  0.35518  1.0000
  N   N36       1.0  0.96511  0.18848  0.35240  1.0000
  C   C73       1.0  0.31815  0.23274  0.33540  1.0000
  N   N37       1.0  0.29951  0.26595  0.33753  1.0000
  C   C74       1.0  0.30404  0.31439  0.34255  1.0000
  N   N38       1.0  0.32821  0.32910  0.34709  1.0000
  C   C75       1.0  0.34751  0.29743  0.34856  1.0000
  N   N39       1.0  0.34173  0.24993  0.34179  1.0000
  C   C76       1.0  0.69245  0.77724  0.33649  1.0000
  N   N40       1.0  0.71106  0.74394  0.33857  1.0000
  C   C77       1.0  0.70651  0.69548  0.34322  1.0000
  N   N41       1.0  0.68234  0.68083  0.34742  1.0000
  C   C78       1.0  0.66304  0.71251  0.34885  1.0000
  N   N42       1.0  0.66885  0.76004  0.34250  1.0000
  C   C79       1.0  0.19296  0.73274  0.35346  1.0000
  N   N43       1.0  0.21160  0.76595  0.35134  1.0000
  C   C80       1.0  0.20707  0.81439  0.34633  1.0000
  N   N44       1.0  0.18290  0.82910  0.34179  1.0000
  C   C81       1.0  0.16360  0.79744  0.34032  1.0000
  N   N45       1.0  0.16938  0.74992  0.34707  1.0000
  C   C82       1.0  0.81866  0.27724  0.35237  1.0000
  N   N46       1.0  0.80005  0.24394  0.35029  1.0000
  C   C83       1.0  0.80460  0.19548  0.34564  1.0000
  N   N47       1.0  0.82877  0.18083  0.34144  1.0000
  C   C84       1.0  0.84807  0.21251  0.34000  1.0000
  N   N48       1.0  0.84226  0.26005  0.34636  1.0000
  C   C85       1.0  0.04743  0.34861  0.37476  1.0000
  N   N49       1.0  0.07216  0.35628  0.35839  1.0000
  C   C86       1.0  0.08117  0.40175  0.34244  1.0000
  N   N50       1.0  0.06470  0.43885  0.34387  1.0000
  C   C87       1.0  0.04013  0.43254  0.35768  1.0000
  N   N51       1.0  0.03227  0.38725  0.37176  1.0000
  C   C88       1.0  0.96299  0.66360  0.36660  1.0000
  N   N52       1.0  0.93809  0.65742  0.35164  1.0000
  C   C89       1.0  0.92832  0.61230  0.33913  1.0000
  N   N53       1.0  0.94395  0.57401  0.34384  1.0000
  C   C90       1.0  0.96862  0.57879  0.35668  1.0000
  N   N54       1.0  0.97742  0.62383  0.36593  1.0000
  C   C91       1.0  0.46371  0.84863  0.31459  1.0000
  N   N55       1.0  0.43896  0.85630  0.33065  1.0000
  C   C92       1.0  0.42994  0.90179  0.34639  1.0000
  N   N56       1.0  0.44641  0.93889  0.34497  1.0000
  C   C93       1.0  0.47098  0.93258  0.33127  1.0000
  N   N57       1.0  0.47886  0.88729  0.31739  1.0000
  C   C94       1.0  0.54813  0.16364  0.32267  1.0000
  N   N58       1.0  0.57304  0.15744  0.33743  1.0000
  C   C95       1.0  0.58280  0.11231  0.34992  1.0000
  N   N59       1.0  0.56716  0.07403  0.34519  1.0000
  C   C96       1.0  0.54249  0.07884  0.33242  1.0000
  N   N60       1.0  0.53369  0.12388  0.32324  1.0000
  C   C97       1.0  0.20627  0.53003  0.34875  1.0000
  N   N61       1.0  0.22698  0.50159  0.34655  1.0000
  C   C98       1.0  0.22565  0.45224  0.34363  1.0000
  N   N62       1.0  0.20249  0.43206  0.34227  1.0000
  C   C99       1.0  0.18144  0.45885  0.34258  1.0000
  N   N63       1.0  0.18398  0.50734  0.34603  1.0000
  C   C100      1.0  0.80479  0.48006  0.34693  1.0000
  N   N64       1.0  0.78388  0.50807  0.34573  1.0000
  C   C101      1.0  0.78491  0.55749  0.34355  1.0000
  N   N65       1.0  0.80793  0.57808  0.34207  1.0000
  C   C102      1.0  0.82912  0.55178  0.34148  1.0000
  N   N66       1.0  0.82698  0.50321  0.34394  1.0000
  C   C103      1.0  0.30484  0.03003  0.34006  1.0000
  N   N67       1.0  0.28413  0.00159  0.34229  1.0000
  C   C104      1.0  0.28546  0.95223  0.34523  1.0000
  N   N68       1.0  0.30861  0.93206  0.34660  1.0000
  C   C105      1.0  0.32966  0.95884  0.34630  1.0000
  N   N69       1.0  0.32713  0.00734  0.34282  1.0000
  C   C106      1.0  0.70632  0.98006  0.34185  1.0000
  N   N70       1.0  0.72723  0.00807  0.34309  1.0000
  C   C107      1.0  0.72621  0.05749  0.34530  1.0000
  N   N71       1.0  0.70318  0.07807  0.34680  1.0000
  C   C108      1.0  0.68200  0.05177  0.34742  1.0000
  N   N72       1.0  0.68413  0.00319  0.34490  1.0000
  N   N73       1.0  0.51718  0.46552  0.35032  1.0000
  C   C109      1.0  0.53017  0.50737  0.35065  1.0000
  H   H49       1.0  0.54897  0.50665  0.35958  1.0000
  C   C110      1.0  0.01905  0.96159  0.34935  1.0000
  C   C111      1.0  0.99396  0.05084  0.34935  1.0000
  N   N74       1.0  0.01895  0.04699  0.36074  1.0000
  C   C112      1.0  0.03227  0.00539  0.36169  1.0000
  C   C113      1.0  0.05935  0.00993  0.37841  1.0000
  O   O13       1.0  0.06681  0.98655  0.46013  1.0000
  H   H50       1.0  0.06496  0.04778  0.38168  1.0000
  H   H51       1.0  0.06944  0.99392  0.32217  1.0000
  H   H52       1.0  0.05915  0.00367  0.51122  1.0000
  C   C114      1.0  0.37278  0.31287  0.35355  1.0000
  C   C115      1.0  0.42240  0.34611  0.34744  1.0000
  N   N75       1.0  0.41594  0.30339  0.38537  1.0000
  C   C116      1.0  0.39251  0.28543  0.39171  1.0000
  C   C117      1.0  0.38966  0.24024  0.44431  1.0000
  O   O14       1.0  0.37254  0.24547  0.51754  1.0000
  H   H53       1.0  0.40752  0.22805  0.47114  1.0000
  H   H54       1.0  0.38298  0.21174  0.40031  1.0000
  H   H55       1.0  0.37963  0.26838  0.56120  1.0000
  C   C118      1.0  0.63777  0.69692  0.35366  1.0000
  C   C119      1.0  0.58818  0.66342  0.34697  1.0000
  N   N76       1.0  0.59458  0.70619  0.38489  1.0000
  C   C120      1.0  0.61798  0.72423  0.39165  1.0000
  C   C121      1.0  0.62071  0.76955  0.44397  1.0000
  O   O15       1.0  0.63780  0.76460  0.51737  1.0000
  H   H56       1.0  0.60281  0.78165  0.47056  1.0000
  H   H57       1.0  0.62736  0.79800  0.39981  1.0000
  H   H58       1.0  0.63073  0.74173  0.56113  1.0000
  N   N77       1.0  0.13203  0.85655  0.37093  1.0000
  C   C122      1.0  0.10848  0.87449  0.37406  1.0000
  H   H59       1.0  0.10533  0.90713  0.40366  1.0000
  N   N78       1.0  0.87957  0.15318  0.37077  1.0000
  C   C123      1.0  0.90310  0.13508  0.37406  1.0000
  H   H60       1.0  0.90620  0.10251  0.40397  1.0000
  N   N79       1.0  0.54304  0.24644  0.36342  1.0000
  C   C124      1.0  0.53003  0.28825  0.37125  1.0000
  H   H61       1.0  0.53669  0.31524  0.41129  1.0000
  N   N80       1.0  0.46819  0.76594  0.35534  1.0000
  C   C125      1.0  0.48105  0.72401  0.36394  1.0000
  H   H62       1.0  0.47442  0.69762  0.40543  1.0000
  C   C126      1.0  0.97591  0.70793  0.37514  1.0000
  C   C127      1.0  0.00477  0.79131  0.35785  1.0000
  N   N81       1.0  0.01211  0.75373  0.40931  1.0000
  C   C128      1.0  0.99894  0.71277  0.42211  1.0000
  C   C129      1.0  0.01029  0.67728  0.48506  1.0000
  O   O16       1.0  0.99307  0.66022  0.55131  1.0000
  H   H63       1.0  0.02637  0.69269  0.51984  1.0000
  H   H64       1.0  0.01721  0.64655  0.44688  1.0000
  H   H65       1.0  0.98845  0.68744  0.59042  1.0000
  C   C130      1.0  0.03514  0.30374  0.38496  1.0000
  C   C131      1.0  0.00642  0.22034  0.36538  1.0000
  N   N82       1.0  0.99907  0.25724  0.41842  1.0000
  C   C132      1.0  0.01222  0.29814  0.43243  1.0000
  C   C133      1.0  0.00084  0.33317  0.49613  1.0000
  O   O17       1.0  0.01823  0.35128  0.56080  1.0000
  H   H66       1.0  0.98519  0.31704  0.53232  1.0000
  H   H67       1.0  0.99330  0.36342  0.45828  1.0000
  H   H68       1.0  0.02345  0.32441  0.59972  1.0000
  N   N83       1.0  0.29351  0.16210  0.36939  1.0000
  C   C134      1.0  0.28843  0.11389  0.37213  1.0000
  H   H69       1.0  0.27323  0.10189  0.40665  1.0000
  N   N84       1.0  0.71723  0.84773  0.37081  1.0000
  C   C135      1.0  0.72245  0.89590  0.37373  1.0000
  H   H70       1.0  0.73770  0.90767  0.40819  1.0000
  C   C136      1.0  0.19728  0.68201  0.36028  1.0000
  C   C137      1.0  0.20563  0.58124  0.35516  1.0000
  N   N85       1.0  0.18595  0.60149  0.39812  1.0000
  C   C138      1.0  0.18097  0.64934  0.40469  1.0000
  C   C139      1.0  0.15956  0.66286  0.46264  1.0000
  O   O18       1.0  0.16639  0.69612  0.53214  1.0000
  H   H71       1.0  0.15117  0.63107  0.49387  1.0000
  H   H72       1.0  0.14518  0.67937  0.42153  1.0000
  H   H73       1.0  0.17783  0.67970  0.57381  1.0000
  C   C140      1.0  0.81426  0.32803  0.35877  1.0000
  C   C141      1.0  0.80567  0.42881  0.35301  1.0000
  N   N86       1.0  0.82541  0.40878  0.39603  1.0000
  C   C142      1.0  0.83050  0.36096  0.40289  1.0000
  C   C143      1.0  0.85193  0.34771  0.46096  1.0000
  O   O19       1.0  0.84513  0.31463  0.53081  1.0000
  H   H74       1.0  0.86028  0.37964  0.49186  1.0000
  H   H75       1.0  0.86632  0.33115  0.42003  1.0000
  H   H76       1.0  0.83367  0.33112  0.57231  1.0000
  N   N87       1.0  0.24188  0.37231  0.34799  1.0000
  C   C144      1.0  0.25914  0.33674  0.34806  1.0000
  H   H77       1.0  0.25342  0.30176  0.35274  1.0000
  N   N88       1.0  0.76862  0.63738  0.34858  1.0000
  C   C145      1.0  0.75138  0.67299  0.34879  1.0000
  H   H78       1.0  0.75711  0.70794  0.35357  1.0000
  C   C146      1.0  0.26441  0.92049  0.34636  1.0000
  C   C147      1.0  0.22663  0.84904  0.34620  1.0000
  N   N89       1.0  0.22162  0.89703  0.35205  1.0000
  C   C148      1.0  0.23884  0.93322  0.35269  1.0000
  C   C149      1.0  0.22930  0.98305  0.36253  1.0000
  O   O20       1.0  0.23773  0.00545  0.44398  1.0000
  H   H79       1.0  0.20898  0.98367  0.36155  1.0000
  H   H80       1.0  0.23555  0.00452  0.30529  1.0000
  H   H81       1.0  0.23042  0.98811  0.49546  1.0000
  C   C150      1.0  0.74730  0.08918  0.34591  1.0000
  C   C151      1.0  0.78507  0.16072  0.34553  1.0000
  N   N90       1.0  0.79008  0.11271  0.35148  1.0000
  C   C152      1.0  0.77287  0.07651  0.35223  1.0000
  C   C153      1.0  0.78234  0.02664  0.36214  1.0000
  O   O21       1.0  0.77394  0.00438  0.44374  1.0000
  H   H82       1.0  0.80266  0.02593  0.36093  1.0000
  H   H83       1.0  0.77601  0.00515  0.30505  1.0000
  H   H84       1.0  0.78131  0.02172  0.49509  1.0000
  N   N91       1.0  0.12423  0.38529  0.37183  1.0000
  C   C154      1.0  0.14896  0.39577  0.37423  1.0000
  H   H85       1.0  0.16080  0.37381  0.40893  1.0000
  N   N92       1.0  0.88568  0.62560  0.37771  1.0000
  C   C155      1.0  0.86116  0.61369  0.38134  1.0000
  H   H86       1.0  0.84960  0.63214  0.42360  1.0000
  C   C156      1.0  0.40435  0.91331  0.35822  1.0000
  C   C157      1.0  0.35387  0.93946  0.35258  1.0000
  N   N93       1.0  0.37115  0.96630  0.39581  1.0000
  C   C158      1.0  0.39560  0.95554  0.40293  1.0000
  C   C159      1.0  0.41053  0.98984  0.45760  1.0000
  O   O22       1.0  0.42540  0.96616  0.52425  1.0000
  H   H87       1.0  0.39865  0.01624  0.49145  1.0000
  H   H88       1.0  0.42263  0.01022  0.41294  1.0000
  H   H89       1.0  0.41422  0.95100  0.56843  1.0000
  C   C160      1.0  0.60836  0.10175  0.36233  1.0000
  C   C161      1.0  0.65814  0.07238  0.35420  1.0000
  N   N94       1.0  0.64129  0.04968  0.40699  1.0000
  C   C162      1.0  0.61711  0.06251  0.41559  1.0000
  C   C163      1.0  0.60227  0.03469  0.48227  1.0000
  O   O23       1.0  0.58925  0.06523  0.54406  1.0000
  H   H90       1.0  0.61406  0.01000  0.52071  1.0000
  H   H91       1.0  0.58873  0.01248  0.44720  1.0000
  H   H92       1.0  0.60157  0.08231  0.58126  1.0000
  C   C164      1.0  0.98547  0.54012  0.35833  1.0000
  C   C165      1.0  0.02255  0.46992  0.35766  1.0000
  N   N95       1.0  0.99903  0.46039  0.38569  1.0000
  C   C166      1.0  0.98013  0.49266  0.38797  1.0000
  C   C167      1.0  0.95622  0.47626  0.42707  1.0000
  O   O24       1.0  0.94905  0.50417  0.50400  1.0000
  H   H93       1.0  0.95712  0.43828  0.44650  1.0000
  H   H94       1.0  0.94172  0.47929  0.37626  1.0000
  H   H95       1.0  0.96116  0.49832  0.55251  1.0000
  N   N96       1.0  0.50199  0.04996  0.35745  1.0000
  C   C168      1.0  0.48337  0.01735  0.35877  1.0000
  H   H96       1.0  0.46622  0.02757  0.38068  1.0000
