data_image0
_chemical_formula_structural       C3NO2HC3HNO2C3HNO2CHCNCNCNC18H12CNCNCNC18H12C3HNO2C3HNO2C2NO2
_chemical_formula_sum              "C60 N12 O12 H30"
_cell_length_a       29.4695
_cell_length_b       29.4695
_cell_length_c       14.9316
_cell_angle_alpha    90
_cell_angle_beta     90
_cell_angle_gamma    120

_space_group_name_H-M_alt    "P 1"
_space_group_IT_number       1

loop_
  _space_group_symop_operation_xyz
  'x, y, z'

loop_
  _atom_site_type_symbol
  _atom_site_label
  _atom_site_symmetry_multiplicity
  _atom_site_fract_x
  _atom_site_fract_y
  _atom_site_fract_z
  _atom_site_occupancy
  C   C1        1.0  0.03065  0.51582  0.25570  1.0000
  C   C2        1.0  0.03122  0.51637  0.41939  1.0000
  C   C3        1.0  0.05884  0.53014  0.33747  1.0000
  N   N1        1.0  0.05844  0.52949  0.17362  1.0000
  O   O1        1.0  0.04814  0.48947  0.12852  1.0000
  O   O2        1.0  0.04780  0.55858  0.12740  1.0000
  H   H1        1.0  0.05150  0.52672  0.47860  1.0000
  C   C4        1.0  0.47544  0.53012  0.33763  1.0000
  C   C5        1.0  0.48967  0.51621  0.25581  1.0000
  C   C6        1.0  0.51750  0.48859  0.25795  1.0000
  H   H2        1.0  0.52776  0.47862  0.19870  1.0000
  N   N2        1.0  0.47601  0.53040  0.17379  1.0000
  O   O3        1.0  0.51603  0.56015  0.12873  1.0000
  O   O4        1.0  0.44691  0.49071  0.12748  1.0000
  C   C7        1.0  0.47621  0.94664  0.33737  1.0000
  C   C8        1.0  0.49033  0.97485  0.25563  1.0000
  C   C9        1.0  0.51794  0.03030  0.25792  1.0000
  H   H3        1.0  0.52807  0.05059  0.19872  1.0000
  N   N3        1.0  0.47677  0.94709  0.17353  1.0000
  O   O5        1.0  0.51685  0.95761  0.12841  1.0000
  O   O6        1.0  0.44752  0.95752  0.12732  1.0000
  C   C10       1.0  0.97521  0.48796  0.25794  1.0000
  H   H4        1.0  0.95493  0.47763  0.19873  1.0000
  C   C11       1.0  0.36370  0.72307  0.34019  1.0000
  N   N4        1.0  0.38898  0.69507  0.34050  1.0000
  C   C12       1.0  0.36354  0.64179  0.34054  1.0000
  N   N5        1.0  0.31026  0.61649  0.34031  1.0000
  C   C13       1.0  0.28242  0.64195  0.34005  1.0000
  N   N6        1.0  0.31040  0.69524  0.33993  1.0000
  C   C14       1.0  0.39152  0.61378  0.34041  1.0000
  C   C15       1.0  0.44706  0.64046  0.34398  1.0000
  C   C16       1.0  0.47473  0.61298  0.34350  1.0000
  C   C17       1.0  0.44759  0.55779  0.33923  1.0000
  C   C18       1.0  0.39238  0.53063  0.33551  1.0000
  C   C19       1.0  0.36486  0.55825  0.33630  1.0000
  C   C20       1.0  0.39187  0.77906  0.33990  1.0000
  C   C21       1.0  0.44743  0.80776  0.34250  1.0000
  C   C22       1.0  0.47527  0.86291  0.34204  1.0000
  C   C23       1.0  0.44828  0.89113  0.33882  1.0000
  C   C24       1.0  0.39304  0.86324  0.33606  1.0000
  C   C25       1.0  0.36536  0.80809  0.33675  1.0000
  C   C26       1.0  0.22643  0.61399  0.33978  1.0000
  C   C27       1.0  0.19758  0.64067  0.33571  1.0000
  C   C28       1.0  0.14243  0.61317  0.33509  1.0000
  C   C29       1.0  0.11435  0.55796  0.33894  1.0000
  C   C30       1.0  0.14240  0.53081  0.34313  1.0000
  C   C31       1.0  0.19754  0.55845  0.34345  1.0000
  H   H5        1.0  0.51537  0.88229  0.34376  1.0000
  H   H6        1.0  0.46856  0.78885  0.34479  1.0000
  H   H7        1.0  0.37259  0.88287  0.33346  1.0000
  H   H8        1.0  0.32533  0.78943  0.33459  1.0000
  H   H9        1.0  0.21639  0.68069  0.33273  1.0000
  H   H10       1.0  0.12293  0.63374  0.33175  1.0000
  H   H11       1.0  0.21631  0.53720  0.34650  1.0000
  H   H12       1.0  0.12288  0.49072  0.34562  1.0000
  H   H13       1.0  0.32484  0.53703  0.33333  1.0000
  H   H14       1.0  0.37183  0.49056  0.33212  1.0000
  H   H15       1.0  0.51482  0.63358  0.34592  1.0000
  H   H16       1.0  0.46829  0.68047  0.34702  1.0000
  C   C32       1.0  0.64282  0.28147  0.33705  1.0000
  N   N7        1.0  0.61745  0.30939  0.33700  1.0000
  C   C33       1.0  0.64288  0.36270  0.33697  1.0000
  N   N8        1.0  0.69617  0.38804  0.33704  1.0000
  C   C34       1.0  0.72404  0.36263  0.33708  1.0000
  N   N9        1.0  0.69610  0.30936  0.33712  1.0000
  C   C35       1.0  0.61497  0.39079  0.33718  1.0000
  C   C36       1.0  0.55944  0.36421  0.33358  1.0000
  C   C37       1.0  0.53187  0.39179  0.33399  1.0000
  C   C38       1.0  0.55909  0.44699  0.33824  1.0000
  C   C39       1.0  0.61430  0.47405  0.34201  1.0000
  C   C40       1.0  0.64172  0.44632  0.34128  1.0000
  C   C41       1.0  0.61492  0.22547  0.33732  1.0000
  C   C42       1.0  0.55938  0.19649  0.34021  1.0000
  C   C43       1.0  0.53187  0.14134  0.34090  1.0000
  C   C44       1.0  0.55918  0.11341  0.33841  1.0000
  C   C45       1.0  0.61440  0.14159  0.33544  1.0000
  C   C46       1.0  0.64174  0.19673  0.33496  1.0000
  C   C47       1.0  0.78003  0.39055  0.33734  1.0000
  C   C48       1.0  0.80882  0.36380  0.34115  1.0000
  C   C49       1.0  0.86396  0.39123  0.34185  1.0000
  C   C50       1.0  0.89208  0.44645  0.33837  1.0000
  C   C51       1.0  0.86410  0.47367  0.33443  1.0000
  C   C52       1.0  0.80896  0.44608  0.33403  1.0000
  H   H17       1.0  0.49178  0.12173  0.34332  1.0000
  H   H18       1.0  0.53805  0.21519  0.34220  1.0000
  H   H19       1.0  0.63509  0.12218  0.33390  1.0000
  H   H20       1.0  0.68178  0.21559  0.33285  1.0000
  H   H21       1.0  0.78998  0.32377  0.34388  1.0000
  H   H22       1.0  0.88342  0.37062  0.34498  1.0000
  H   H23       1.0  0.79022  0.46737  0.33120  1.0000
  H   H24       1.0  0.88366  0.51376  0.33220  1.0000
  H   H25       1.0  0.68174  0.46749  0.34427  1.0000
  H   H26       1.0  0.63492  0.51411  0.34539  1.0000
  H   H27       1.0  0.49178  0.37127  0.33154  1.0000
  H   H28       1.0  0.53815  0.32420  0.33052  1.0000
  C   C53       1.0  0.53135  0.47477  0.33982  1.0000
  C   C54       1.0  0.51717  0.48873  0.42163  1.0000
  C   C55       1.0  0.48933  0.51634  0.41949  1.0000
  H   H29       1.0  0.47907  0.52632  0.47874  1.0000
  N   N10       1.0  0.53091  0.47464  0.50367  1.0000
  O   O7        1.0  0.49093  0.44494  0.54887  1.0000
  O   O8        1.0  0.56005  0.51438  0.54983  1.0000
  C   C56       1.0  0.53160  0.05789  0.33986  1.0000
  C   C57       1.0  0.51771  0.02968  0.42160  1.0000
  C   C58       1.0  0.49010  0.97424  0.41931  1.0000
  H   H30       1.0  0.48003  0.95394  0.47850  1.0000
  N   N11       1.0  0.53187  0.05745  0.50371  1.0000
  O   O9        1.0  0.56162  0.04713  0.54868  1.0000
  O   O10       1.0  0.49218  0.04681  0.55004  1.0000
  C   C59       1.0  0.94759  0.47420  0.33987  1.0000
  C   C60       1.0  0.97577  0.48853  0.42163  1.0000
  N   N12       1.0  0.94798  0.47496  0.50371  1.0000
  O   O11       1.0  0.95825  0.51503  0.54860  1.0000
  O   O12       1.0  0.95861  0.44593  0.55014  1.0000
