data_image0
_chemical_formula_structural       C2NC2NC2NC2NC2NC2NC2NC2N2CHNCHNCHNCHNCHNCHNCHNCHC2NC2NC2NC2NC2NC2NC2NC2NC2NC2NC2NC2NC2NC2NC2NC2N2CHNCHNCHNCHNCHNCHNCHNCHNCHNCHC6H3C6H3C6H3C6H3C6H3C6H3C6H3C6H3C6H3C6H3C6H3C6H3C6H3C6H3C6H3C6H3C6H3C6H3C6H3C6H3NCHNCHNCHNCHC2NC2NC2NC2NC2NC2NC2NC2NC2NC2NC2NC2NC2NC2NC2NC2N2CHNCHNCHNCHNCHNCHNCHNCHC2NC2NC2NC2NC2NC2NC2NC2NC2NC2NC2NC2NC2NC2NC2NC2NC2NC2NC2NC2N
_chemical_formula_sum              "C270 N90 H90"
_cell_length_a       43.9973
_cell_length_b       43.9973
_cell_length_c       14.8869
_cell_angle_alpha    90
_cell_angle_beta     90
_cell_angle_gamma    90

_space_group_name_H-M_alt    "P 1"
_space_group_IT_number       1

loop_
  _space_group_symop_operation_xyz
  'x, y, z'

loop_
  _atom_site_type_symbol
  _atom_site_label
  _atom_site_symmetry_multiplicity
  _atom_site_fract_x
  _atom_site_fract_y
  _atom_site_fract_z
  _atom_site_occupancy
  C   C1        1.0  0.31131  0.03910  0.33142  1.0000
  C   C2        1.0  0.37265  0.05579  0.34069  1.0000
  N   N1        1.0  0.36279  0.03401  0.28281  1.0000
  C   C3        1.0  0.33339  0.02496  0.27564  1.0000
  C   C4        1.0  0.32740  0.00529  0.21290  1.0000
  N   N2        1.0  0.32216  0.98793  0.15742  1.0000
  C   C5        1.0  0.69634  0.96627  0.31992  1.0000
  C   C6        1.0  0.63405  0.95375  0.33100  1.0000
  N   N3        1.0  0.65272  0.93784  0.27549  1.0000
  C   C7        1.0  0.68294  0.94300  0.26699  1.0000
  C   C8        1.0  0.69740  0.92649  0.20844  1.0000
  N   N4        1.0  0.71016  0.91192  0.15674  1.0000
  C   C9        1.0  0.96792  0.31114  0.33135  1.0000
  C   C10       1.0  0.95140  0.37254  0.34064  1.0000
  N   N5        1.0  0.97317  0.36262  0.28282  1.0000
  C   C11       1.0  0.98213  0.33319  0.27564  1.0000
  C   C12       1.0  0.00182  0.32717  0.21296  1.0000
  N   N6        1.0  0.01920  0.32191  0.15754  1.0000
  C   C13       1.0  0.04080  0.69608  0.31945  1.0000
  C   C14       1.0  0.05350  0.63384  0.33066  1.0000
  N   N7        1.0  0.06928  0.65251  0.27485  1.0000
  C   C15       1.0  0.06402  0.68271  0.26626  1.0000
  C   C16       1.0  0.08044  0.69718  0.20748  1.0000
  N   N8        1.0  0.09492  0.70996  0.15559  1.0000
  N   N9        1.0  0.18381  0.55970  0.28582  1.0000
  C   C17       1.0  0.15443  0.56867  0.28083  1.0000
  H   H1        1.0  0.14851  0.58517  0.23589  1.0000
  N   N10       1.0  0.82238  0.44813  0.29715  1.0000
  C   C18       1.0  0.85164  0.43895  0.29180  1.0000
  H   H2        1.0  0.85740  0.42246  0.24658  1.0000
  N   N11       1.0  0.55937  0.82375  0.28579  1.0000
  C   C19       1.0  0.56845  0.85309  0.28090  1.0000
  H   H3        1.0  0.58497  0.85897  0.23595  1.0000
  N   N12       1.0  0.44776  0.18511  0.29719  1.0000
  C   C20       1.0  0.43866  0.15582  0.29184  1.0000
  H   H4        1.0  0.42219  0.15002  0.24660  1.0000
  N   N13       1.0  0.17709  0.11929  0.29711  1.0000
  C   C21       1.0  0.18679  0.08988  0.29420  1.0000
  H   H5        1.0  0.18002  0.07623  0.24242  1.0000
  N   N14       1.0  0.83065  0.88823  0.30130  1.0000
  C   C22       1.0  0.82088  0.91761  0.29877  1.0000
  H   H6        1.0  0.82734  0.93123  0.24657  1.0000
  N   N15       1.0  0.88791  0.17666  0.29835  1.0000
  C   C23       1.0  0.91729  0.18645  0.29503  1.0000
  H   H7        1.0  0.93094  0.17963  0.24331  1.0000
  N   N16       1.0  0.11896  0.83016  0.30009  1.0000
  C   C24       1.0  0.08958  0.82041  0.29789  1.0000
  H   H8        1.0  0.07584  0.82695  0.24605  1.0000
  C   C25       1.0  0.32016  0.63885  0.32053  1.0000
  C   C26       1.0  0.29699  0.57906  0.32091  1.0000
  N   N17       1.0  0.28833  0.60016  0.25911  1.0000
  C   C27       1.0  0.29921  0.62894  0.25413  1.0000
  C   C28       1.0  0.28867  0.64579  0.18941  1.0000
  N   N18       1.0  0.27930  0.66072  0.13251  1.0000
  C   C29       1.0  0.68710  0.36909  0.32507  1.0000
  C   C30       1.0  0.70959  0.42914  0.32709  1.0000
  N   N19       1.0  0.71860  0.40827  0.26504  1.0000
  C   C31       1.0  0.70803  0.37939  0.25920  1.0000
  C   C32       1.0  0.71886  0.36281  0.19428  1.0000
  N   N20       1.0  0.72847  0.34812  0.13719  1.0000
  C   C33       1.0  0.63848  0.68760  0.32158  1.0000
  C   C34       1.0  0.57863  0.71061  0.32115  1.0000
  N   N21       1.0  0.59979  0.71924  0.25947  1.0000
  C   C35       1.0  0.62860  0.70842  0.25485  1.0000
  C   C36       1.0  0.64549  0.71890  0.19015  1.0000
  N   N22       1.0  0.66046  0.72821  0.13325  1.0000
  C   C37       1.0  0.36874  0.32067  0.32368  1.0000
  C   C38       1.0  0.42869  0.29793  0.32665  1.0000
  N   N23       1.0  0.40788  0.28892  0.26445  1.0000
  C   C39       1.0  0.37905  0.29958  0.25821  1.0000
  C   C40       1.0  0.36251  0.28874  0.19323  1.0000
  N   N24       1.0  0.34786  0.27910  0.13609  1.0000
  C   C41       1.0  0.21460  0.90388  0.32342  1.0000
  C   C42       1.0  0.22566  0.96730  0.32299  1.0000
  N   N25       1.0  0.24151  0.94750  0.27050  1.0000
  C   C43       1.0  0.23704  0.91702  0.26685  1.0000
  C   C44       1.0  0.25363  0.90224  0.20925  1.0000
  N   N26       1.0  0.26837  0.88929  0.15837  1.0000
  C   C45       1.0  0.79170  0.10332  0.32590  1.0000
  C   C46       1.0  0.78040  0.03982  0.32535  1.0000
  N   N27       1.0  0.76446  0.05977  0.27356  1.0000
  C   C47       1.0  0.76897  0.09027  0.27013  1.0000
  C   C48       1.0  0.75229  0.10513  0.21296  1.0000
  N   N28       1.0  0.73749  0.11818  0.16247  1.0000
  C   C49       1.0  0.10345  0.21489  0.32365  1.0000
  C   C50       1.0  0.03997  0.22570  0.32352  1.0000
  N   N29       1.0  0.05971  0.24172  0.27129  1.0000
  C   C51       1.0  0.09022  0.23739  0.26753  1.0000
  C   C52       1.0  0.10492  0.25415  0.21017  1.0000
  N   N30       1.0  0.11781  0.26902  0.15949  1.0000
  C   C53       1.0  0.90403  0.79189  0.32584  1.0000
  C   C54       1.0  0.96745  0.78035  0.32502  1.0000
  N   N31       1.0  0.94745  0.76458  0.27296  1.0000
  C   C55       1.0  0.91698  0.76923  0.26964  1.0000
  C   C56       1.0  0.90205  0.75273  0.21216  1.0000
  N   N32       1.0  0.88895  0.73808  0.16140  1.0000
  N   N33       1.0  0.30866  0.42260  0.30374  1.0000
  C   C57       1.0  0.30411  0.45321  0.30059  1.0000
  H   H9        1.0  0.31679  0.46611  0.25759  1.0000
  N   N34       1.0  0.69840  0.58541  0.30722  1.0000
  C   C58       1.0  0.70286  0.55478  0.30541  1.0000
  H   H10       1.0  0.69050  0.54177  0.26192  1.0000
  N   N35       1.0  0.42229  0.69886  0.30318  1.0000
  C   C59       1.0  0.45290  0.70344  0.30023  1.0000
  H   H11       1.0  0.46581  0.69092  0.25688  1.0000
  N   N36       1.0  0.58507  0.30910  0.30790  1.0000
  C   C60       1.0  0.55442  0.30470  0.30596  1.0000
  H   H12       1.0  0.54145  0.31715  0.26261  1.0000
  N   N37       1.0  0.23314  0.29823  0.30365  1.0000
  C   C61       1.0  0.20954  0.27818  0.29974  1.0000
  H   H13       1.0  0.19119  0.28336  0.26069  1.0000
  N   N38       1.0  0.77404  0.70957  0.30556  1.0000
  C   C62       1.0  0.79771  0.72953  0.30193  1.0000
  H   H14       1.0  0.81612  0.72424  0.26323  1.0000
  N   N39       1.0  0.70919  0.23339  0.30602  1.0000
  C   C63       1.0  0.72913  0.20971  0.30209  1.0000
  H   H15       1.0  0.72378  0.19128  0.26353  1.0000
  N   N40       1.0  0.29787  0.77431  0.30324  1.0000
  C   C64       1.0  0.27778  0.79787  0.29954  1.0000
  H   H16       1.0  0.28291  0.81625  0.26053  1.0000
  N   N41       1.0  0.50212  0.97943  0.30298  1.0000
  C   C65       1.0  0.47914  0.99976  0.29716  1.0000
  H   H17       1.0  0.46209  0.99611  0.25184  1.0000
  N   N42       1.0  0.02812  0.50192  0.30303  1.0000
  C   C66       1.0  0.00778  0.47893  0.29732  1.0000
  H   H18       1.0  0.01132  0.46197  0.25166  1.0000
  C   C67       1.0  0.27942  0.03346  0.33089  1.0000
  C   C68       1.0  0.25895  0.05790  0.34027  1.0000
  C   C69       1.0  0.22716  0.05363  0.34472  1.0000
  C   C70       1.0  0.21568  0.02357  0.33748  1.0000
  C   C71       1.0  0.23554  0.99824  0.32804  1.0000
  C   C72       1.0  0.26725  0.00387  0.32600  1.0000
  H   H19       1.0  0.19270  0.02013  0.33997  1.0000
  H   H20       1.0  0.28202  0.98589  0.32495  1.0000
  H   H21       1.0  0.26755  0.07956  0.34260  1.0000
  C   C73       1.0  0.72801  0.97229  0.32534  1.0000
  C   C74       1.0  0.74863  0.94840  0.34081  1.0000
  C   C75       1.0  0.78023  0.95343  0.34877  1.0000
  C   C76       1.0  0.79112  0.98372  0.34183  1.0000
  C   C77       1.0  0.77091  0.00865  0.32907  1.0000
  C   C78       1.0  0.73942  0.00219  0.32137  1.0000
  H   H22       1.0  0.81397  0.98761  0.34701  1.0000
  H   H23       1.0  0.72421  0.01960  0.31310  1.0000
  H   H24       1.0  0.74030  0.92673  0.34657  1.0000
  C   C79       1.0  0.97361  0.27924  0.33111  1.0000
  C   C80       1.0  0.94923  0.25872  0.34067  1.0000
  C   C81       1.0  0.95358  0.22692  0.34527  1.0000
  C   C82       1.0  0.98368  0.21554  0.33809  1.0000
  C   C83       1.0  0.00897  0.23546  0.32864  1.0000
  C   C84       1.0  0.00323  0.26715  0.32644  1.0000
  H   H25       1.0  0.98719  0.19257  0.34070  1.0000
  H   H26       1.0  0.02116  0.28197  0.32538  1.0000
  H   H27       1.0  0.92754  0.26726  0.34292  1.0000
  C   C85       1.0  0.03480  0.72775  0.32489  1.0000
  C   C86       1.0  0.05874  0.74830  0.34048  1.0000
  C   C87       1.0  0.05378  0.77990  0.34845  1.0000
  C   C88       1.0  0.02353  0.79087  0.34147  1.0000
  C   C89       1.0  0.99856  0.77073  0.32874  1.0000
  C   C90       1.0  0.00492  0.73922  0.32098  1.0000
  H   H28       1.0  0.01971  0.81374  0.34658  1.0000
  H   H29       1.0  0.98747  0.72406  0.31267  1.0000
  H   H30       1.0  0.08040  0.73992  0.34620  1.0000
  C   C91       1.0  0.22638  0.53213  0.34163  1.0000
  C   C92       1.0  0.24686  0.55661  0.33300  1.0000
  C   C93       1.0  0.27871  0.55244  0.33030  1.0000
  C   C94       1.0  0.29020  0.52237  0.33776  1.0000
  C   C95       1.0  0.27036  0.49696  0.34576  1.0000
  C   C96       1.0  0.23863  0.50255  0.34652  1.0000
  H   H31       1.0  0.31320  0.51899  0.33672  1.0000
  H   H32       1.0  0.22393  0.48453  0.34728  1.0000
  H   H33       1.0  0.23825  0.57827  0.33085  1.0000
  C   C97       1.0  0.78010  0.47582  0.35307  1.0000
  C   C98       1.0  0.75960  0.45139  0.34352  1.0000
  C   C99       1.0  0.72781  0.45569  0.33827  1.0000
  C   C100      1.0  0.71638  0.48579  0.34449  1.0000
  C   C101      1.0  0.73624  0.51114  0.35379  1.0000
  C   C102      1.0  0.76794  0.50544  0.35699  1.0000
  H   H34       1.0  0.69341  0.48925  0.34146  1.0000
  H   H35       1.0  0.78272  0.52341  0.35837  1.0000
  H   H36       1.0  0.76813  0.42970  0.34190  1.0000
  C   C103      1.0  0.53173  0.78124  0.34161  1.0000
  C   C104      1.0  0.55621  0.76075  0.33309  1.0000
  C   C105      1.0  0.55203  0.72890  0.33039  1.0000
  C   C106      1.0  0.52197  0.71742  0.33773  1.0000
  C   C107      1.0  0.49656  0.73725  0.34567  1.0000
  C   C108      1.0  0.50214  0.76899  0.34654  1.0000
  H   H37       1.0  0.51859  0.69442  0.33667  1.0000
  H   H38       1.0  0.48412  0.78369  0.34736  1.0000
  H   H39       1.0  0.57787  0.76935  0.33099  1.0000
  C   C109      1.0  0.47539  0.22745  0.35301  1.0000
  C   C110      1.0  0.45097  0.24796  0.34337  1.0000
  C   C111      1.0  0.45527  0.27975  0.33812  1.0000
  C   C112      1.0  0.48538  0.29117  0.34446  1.0000
  C   C113      1.0  0.51072  0.27131  0.35384  1.0000
  C   C114      1.0  0.50501  0.23961  0.35693  1.0000
  H   H40       1.0  0.48884  0.31414  0.34141  1.0000
  H   H41       1.0  0.52297  0.22483  0.35835  1.0000
  H   H42       1.0  0.42928  0.23942  0.34167  1.0000
  C   C115      1.0  0.18913  0.22627  0.34256  1.0000
  C   C116      1.0  0.19802  0.19540  0.34990  1.0000
  C   C117      1.0  0.17682  0.17114  0.34976  1.0000
  C   C118      1.0  0.14571  0.17826  0.33902  1.0000
  C   C119      1.0  0.13544  0.20866  0.33105  1.0000
  C   C120      1.0  0.15756  0.23221  0.33417  1.0000
  H   H43       1.0  0.13021  0.16089  0.33789  1.0000
  H   H44       1.0  0.15044  0.25432  0.33412  1.0000
  H   H45       1.0  0.22069  0.19032  0.35345  1.0000
  C   C121      1.0  0.81830  0.78131  0.34510  1.0000
  C   C122      1.0  0.80965  0.81223  0.35307  1.0000
  C   C123      1.0  0.83104  0.83632  0.35344  1.0000
  C   C124      1.0  0.86209  0.82897  0.34223  1.0000
  C   C125      1.0  0.87212  0.79850  0.33359  1.0000
  C   C126      1.0  0.84981  0.77514  0.33657  1.0000
  H   H46       1.0  0.87772  0.84622  0.34138  1.0000
  H   H47       1.0  0.85675  0.75298  0.33628  1.0000
  H   H48       1.0  0.78702  0.81747  0.35684  1.0000
  C   C127      1.0  0.78098  0.18908  0.34458  1.0000
  C   C128      1.0  0.81192  0.19778  0.35157  1.0000
  C   C129      1.0  0.83605  0.17645  0.35147  1.0000
  C   C130      1.0  0.82872  0.14537  0.34096  1.0000
  C   C131      1.0  0.79824  0.13526  0.33328  1.0000
  C   C132      1.0  0.77485  0.15755  0.33656  1.0000
  H   H49       1.0  0.84599  0.12976  0.33979  1.0000
  H   H50       1.0  0.75269  0.15057  0.33682  1.0000
  H   H51       1.0  0.81712  0.22043  0.35478  1.0000
  C   C133      1.0  0.22595  0.81826  0.34319  1.0000
  C   C134      1.0  0.19510  0.80940  0.35158  1.0000
  C   C135      1.0  0.17087  0.83062  0.35183  1.0000
  C   C136      1.0  0.17797  0.86169  0.34029  1.0000
  C   C137      1.0  0.20835  0.87193  0.33133  1.0000
  C   C138      1.0  0.23189  0.84980  0.33425  1.0000
  H   H52       1.0  0.16060  0.87720  0.33940  1.0000
  H   H53       1.0  0.25400  0.85691  0.33355  1.0000
  H   H54       1.0  0.19001  0.78673  0.35556  1.0000
  C   C139      1.0  0.31616  0.72442  0.34595  1.0000
  C   C140      1.0  0.30792  0.69350  0.33572  1.0000
  C   C141      1.0  0.32965  0.66978  0.33145  1.0000
  C   C142      1.0  0.36069  0.67753  0.34026  1.0000
  C   C143      1.0  0.37040  0.70814  0.34895  1.0000
  C   C144      1.0  0.34766  0.73114  0.34909  1.0000
  H   H55       1.0  0.37653  0.66048  0.33884  1.0000
  H   H56       1.0  0.35408  0.75344  0.35203  1.0000
  H   H57       1.0  0.28541  0.68804  0.33008  1.0000
  C   C145      1.0  0.69122  0.28340  0.34865  1.0000
  C   C146      1.0  0.69946  0.31435  0.33854  1.0000
  C   C147      1.0  0.67774  0.33810  0.33511  1.0000
  C   C148      1.0  0.64672  0.33036  0.34429  1.0000
  C   C149      1.0  0.63701  0.29976  0.35278  1.0000
  C   C150      1.0  0.65971  0.27672  0.35241  1.0000
  H   H58       1.0  0.63088  0.34742  0.34354  1.0000
  H   H59       1.0  0.65324  0.25444  0.35550  1.0000
  H   H60       1.0  0.72196  0.31980  0.33263  1.0000
  C   C151      1.0  0.72404  0.69156  0.34785  1.0000
  C   C152      1.0  0.69314  0.69985  0.33698  1.0000
  C   C153      1.0  0.66939  0.67815  0.33297  1.0000
  C   C154      1.0  0.67706  0.64712  0.34258  1.0000
  C   C155      1.0  0.70762  0.63738  0.35199  1.0000
  C   C156      1.0  0.73068  0.66006  0.35196  1.0000
  H   H61       1.0  0.65998  0.63130  0.34139  1.0000
  H   H62       1.0  0.75296  0.65358  0.35555  1.0000
  H   H63       1.0  0.68775  0.72235  0.33077  1.0000
  C   C157      1.0  0.28304  0.31647  0.34662  1.0000
  C   C158      1.0  0.31402  0.30828  0.33713  1.0000
  C   C159      1.0  0.33773  0.33004  0.33344  1.0000
  C   C160      1.0  0.32991  0.36107  0.34180  1.0000
  C   C161      1.0  0.29928  0.37074  0.34968  1.0000
  C   C162      1.0  0.27629  0.34798  0.34950  1.0000
  H   H64       1.0  0.34694  0.37694  0.34080  1.0000
  H   H65       1.0  0.25398  0.35439  0.35199  1.0000
  H   H66       1.0  0.31953  0.28578  0.33175  1.0000
  C   C163      1.0  0.44367  0.10317  0.34911  1.0000
  C   C164      1.0  0.41270  0.09478  0.34494  1.0000
  C   C165      1.0  0.40373  0.06397  0.34270  1.0000
  C   C166      1.0  0.42640  0.04131  0.34255  1.0000
  C   C167      1.0  0.45753  0.04894  0.34885  1.0000
  C   C168      1.0  0.46579  0.07996  0.35378  1.0000
  H   H67       1.0  0.42005  0.01890  0.34239  1.0000
  H   H68       1.0  0.48833  0.08577  0.35599  1.0000
  H   H69       1.0  0.39638  0.11137  0.34354  1.0000
  C   C169      1.0  0.56327  0.90576  0.34013  1.0000
  C   C170      1.0  0.59408  0.91462  0.33303  1.0000
  C   C171      1.0  0.60293  0.94549  0.33720  1.0000
  C   C172      1.0  0.58006  0.96776  0.34691  1.0000
  C   C173      1.0  0.54911  0.95972  0.35487  1.0000
  C   C174      1.0  0.54109  0.92865  0.35158  1.0000
  H   H70       1.0  0.58594  0.99025  0.34423  1.0000
  H   H71       1.0  0.51863  0.92264  0.35620  1.0000
  H   H72       1.0  0.61051  0.89822  0.32808  1.0000
  C   C175      1.0  0.90430  0.44375  0.34921  1.0000
  C   C176      1.0  0.91257  0.41274  0.34499  1.0000
  C   C177      1.0  0.94335  0.40366  0.34271  1.0000
  C   C178      1.0  0.96609  0.42625  0.34250  1.0000
  C   C179      1.0  0.95857  0.45740  0.34906  1.0000
  C   C180      1.0  0.92759  0.46577  0.35399  1.0000
  H   H73       1.0  0.98847  0.41982  0.34246  1.0000
  H   H74       1.0  0.92186  0.48834  0.35628  1.0000
  H   H75       1.0  0.89592  0.39649  0.34355  1.0000
  C   C181      1.0  0.10174  0.56325  0.33985  1.0000
  C   C182      1.0  0.09276  0.59403  0.33261  1.0000
  C   C183      1.0  0.06186  0.60276  0.33695  1.0000
  C   C184      1.0  0.03968  0.57982  0.34683  1.0000
  C   C185      1.0  0.04784  0.54890  0.35487  1.0000
  C   C186      1.0  0.07894  0.54099  0.35143  1.0000
  H   H76       1.0  0.01717  0.58563  0.34437  1.0000
  H   H77       1.0  0.08503  0.51856  0.35616  1.0000
  H   H78       1.0  0.10910  0.61052  0.32770  1.0000
  N   N43       1.0  0.32152  0.06076  0.38941  1.0000
  C   C187      1.0  0.35082  0.06964  0.39649  1.0000
  H   H79       1.0  0.35653  0.08591  0.44246  1.0000
  N   N44       1.0  0.67763  0.98239  0.37493  1.0000
  C   C188      1.0  0.64730  0.97746  0.38158  1.0000
  H   H80       1.0  0.63497  0.98999  0.42638  1.0000
  N   N45       1.0  0.94626  0.32140  0.38926  1.0000
  C   C189      1.0  0.93745  0.35073  0.39632  1.0000
  H   H81       1.0  0.92118  0.35648  0.44223  1.0000
  N   N46       1.0  0.02479  0.67737  0.37472  1.0000
  C   C190      1.0  0.02982  0.64706  0.38147  1.0000
  H   H82       1.0  0.01735  0.63471  0.42637  1.0000
  C   C191      1.0  0.19441  0.53775  0.34225  1.0000
  C   C192      1.0  0.13288  0.55476  0.33762  1.0000
  N   N47       1.0  0.14326  0.53273  0.39392  1.0000
  C   C193      1.0  0.17264  0.52343  0.39865  1.0000
  C   C194      1.0  0.17890  0.50350  0.46044  1.0000
  N   N48       1.0  0.18435  0.48587  0.51500  1.0000
  C   C195      1.0  0.81202  0.47006  0.35395  1.0000
  C   C196      1.0  0.87333  0.45262  0.34859  1.0000
  N   N49       1.0  0.86330  0.47476  0.40509  1.0000
  C   C197      1.0  0.83396  0.48424  0.41014  1.0000
  C   C198      1.0  0.82782  0.50421  0.47189  1.0000
  N   N50       1.0  0.82246  0.52187  0.52645  1.0000
  C   C199      1.0  0.53739  0.81319  0.34219  1.0000
  C   C200      1.0  0.55464  0.87466  0.33783  1.0000
  N   N51       1.0  0.53258  0.86433  0.39410  1.0000
  C   C201      1.0  0.52316  0.83499  0.39871  1.0000
  C   C202      1.0  0.50323  0.82876  0.46052  1.0000
  N   N52       1.0  0.48560  0.82334  0.51510  1.0000
  C   C203      1.0  0.46967  0.19553  0.35399  1.0000
  C   C204      1.0  0.45241  0.13417  0.34857  1.0000
  N   N53       1.0  0.47450  0.14426  0.40513  1.0000
  C   C205      1.0  0.48386  0.17363  0.41030  1.0000
  C   C206      1.0  0.50387  0.17981  0.47192  1.0000
  N   N54       1.0  0.52156  0.18520  0.52636  1.0000
  C   C207      1.0  0.18661  0.14025  0.35867  1.0000
  C   C208      1.0  0.20904  0.08022  0.35617  1.0000
  N   N55       1.0  0.21813  0.10103  0.41829  1.0000
  C   C209      1.0  0.20763  0.12992  0.42429  1.0000
  C   C210      1.0  0.21849  0.14638  0.48940  1.0000
  N   N56       1.0  0.22817  0.16097  0.54664  1.0000
  C   C211      1.0  0.82139  0.86725  0.36315  1.0000
  C   C212      1.0  0.79885  0.92725  0.36147  1.0000
  N   N57       1.0  0.78989  0.90639  0.42361  1.0000
  C   C213      1.0  0.80053  0.87753  0.42929  1.0000
  C   C214      1.0  0.78976  0.86095  0.49430  1.0000
  N   N58       1.0  0.78015  0.84627  0.55140  1.0000
  C   C215      1.0  0.86700  0.18618  0.36009  1.0000
  C   C216      1.0  0.92703  0.20872  0.35686  1.0000
  N   N59       1.0  0.90627  0.21780  0.41915  1.0000
  C   C217      1.0  0.87740  0.20725  0.42550  1.0000
  C   C218      1.0  0.86101  0.21815  0.49072  1.0000
  N   N60       1.0  0.84649  0.22787  0.54804  1.0000
  C   C219      1.0  0.14000  0.82085  0.36165  1.0000
  C   C220      1.0  0.07999  0.79846  0.36087  1.0000
  N   N61       1.0  0.10091  0.78947  0.42278  1.0000
  C   C221      1.0  0.12980  0.80004  0.42805  1.0000
  C   C222      1.0  0.14646  0.78929  0.49289  1.0000
  N   N62       1.0  0.16121  0.77971  0.54988  1.0000
  N   N63       1.0  0.32925  0.61763  0.38186  1.0000
  C   C223      1.0  0.31919  0.58831  0.38364  1.0000
  H   H83       1.0  0.32573  0.57436  0.43498  1.0000
  N   N64       1.0  0.67773  0.39005  0.38681  1.0000
  C   C224      1.0  0.68742  0.41948  0.38937  1.0000
  H   H84       1.0  0.68085  0.43313  0.44137  1.0000
  N   N65       1.0  0.61723  0.67859  0.38292  1.0000
  C   C225      1.0  0.58788  0.68852  0.38424  1.0000
  H   H85       1.0  0.57397  0.68219  0.43589  1.0000
  N   N66       1.0  0.38968  0.33007  0.38547  1.0000
  C   C226      1.0  0.41908  0.32029  0.38841  1.0000
  H   H86       1.0  0.43270  0.32692  0.44039  1.0000
  N   N67       1.0  0.19826  0.92381  0.37470  1.0000
  C   C227      1.0  0.20236  0.95448  0.37599  1.0000
  H   H87       1.0  0.18990  0.96742  0.41941  1.0000
  N   N68       1.0  0.80812  0.08328  0.37657  1.0000
  C   C228      1.0  0.80386  0.05262  0.37788  1.0000
  H   H88       1.0  0.81653  0.03964  0.42066  1.0000
  N   N69       1.0  0.08359  0.19837  0.37468  1.0000
  C   C229      1.0  0.05290  0.20239  0.37619  1.0000
  H   H89       1.0  0.04000  0.18974  0.41925  1.0000
  N   N70       1.0  0.92412  0.80812  0.37685  1.0000
  C   C230      1.0  0.95475  0.80372  0.37810  1.0000
  H   H90       1.0  0.96779  0.81627  0.42102  1.0000
  C   C231      1.0  0.29229  0.40268  0.35505  1.0000
  C   C232      1.0  0.28039  0.46605  0.35184  1.0000
  N   N71       1.0  0.26448  0.44631  0.40432  1.0000
  C   C233      1.0  0.26929  0.41589  0.40959  1.0000
  C   C234      1.0  0.25267  0.40137  0.46766  1.0000
  N   N72       1.0  0.23789  0.38870  0.51902  1.0000
  C   C235      1.0  0.71450  0.60547  0.35877  1.0000
  C   C236      1.0  0.72627  0.54209  0.35827  1.0000
  N   N73       1.0  0.74191  0.56199  0.41094  1.0000
  C   C237      1.0  0.73713  0.59243  0.41495  1.0000
  C   C238      1.0  0.75346  0.60715  0.47332  1.0000
  N   N74       1.0  0.76800  0.61999  0.52493  1.0000
  C   C239      1.0  0.40233  0.71512  0.35467  1.0000
  C   C240      1.0  0.46567  0.72717  0.35162  1.0000
  N   N75       1.0  0.44589  0.74298  0.40427  1.0000
  C   C241      1.0  0.41549  0.73807  0.40949  1.0000
  C   C242      1.0  0.40094  0.75459  0.46776  1.0000
  N   N76       1.0  0.38825  0.76929  0.51929  1.0000
  C   C243      1.0  0.60509  0.29289  0.35926  1.0000
  C   C244      1.0  0.54169  0.28122  0.35845  1.0000
  N   N77       1.0  0.56156  0.26549  0.41101  1.0000
  C   C245      1.0  0.59201  0.27021  0.41518  1.0000
  C   C246      1.0  0.60670  0.25376  0.47328  1.0000
  N   N78       1.0  0.61953  0.23911  0.52466  1.0000
  C   C247      1.0  0.25942  0.29371  0.35062  1.0000
  C   C248      1.0  0.21167  0.25002  0.34525  1.0000
  N   N79       1.0  0.23765  0.24583  0.39345  1.0000
  C   C249      1.0  0.26111  0.26586  0.39901  1.0000
  C   C250      1.0  0.28303  0.25827  0.45313  1.0000
  N   N80       1.0  0.30232  0.25147  0.50108  1.0000
  C   C251      1.0  0.74770  0.71424  0.35205  1.0000
  C   C252      1.0  0.79561  0.75770  0.34735  1.0000
  N   N81       1.0  0.76955  0.76205  0.39502  1.0000
  C   C253      1.0  0.74599  0.74214  0.40020  1.0000
  C   C254      1.0  0.72393  0.74984  0.45371  1.0000
  N   N82       1.0  0.70453  0.75674  0.50112  1.0000
  C   C255      1.0  0.71392  0.25973  0.35248  1.0000
  C   C256      1.0  0.75737  0.21177  0.34722  1.0000
  N   N83       1.0  0.76177  0.23781  0.39490  1.0000
  C   C257      1.0  0.74187  0.26139  0.40037  1.0000
  C   C258      1.0  0.74966  0.28338  0.45399  1.0000
  N   N84       1.0  0.75662  0.30274  0.50149  1.0000
  C   C259      1.0  0.29342  0.74803  0.35025  1.0000
  C   C260      1.0  0.24970  0.79573  0.34548  1.0000
  N   N85       1.0  0.24559  0.76974  0.39369  1.0000
  C   C261      1.0  0.26563  0.74629  0.39893  1.0000
  C   C262      1.0  0.25814  0.72433  0.45307  1.0000
  N   N86       1.0  0.25144  0.70501  0.50102  1.0000
  C   C263      1.0  0.52626  0.98244  0.35941  1.0000
  C   C264      1.0  0.48013  0.02606  0.35130  1.0000
  N   N87       1.0  0.50414  0.02907  0.40811  1.0000
  C   C265      1.0  0.52712  0.00868  0.41490  1.0000
  C   C266      1.0  0.54765  0.01406  0.47572  1.0000
  N   N88       1.0  0.56575  0.01878  0.52951  1.0000
  C   C267      1.0  0.02519  0.52600  0.35971  1.0000
  C   C268      1.0  0.98153  0.47992  0.35165  1.0000
  N   N89       1.0  0.97861  0.50387  0.40872  1.0000
  C   C269      1.0  0.99904  0.52681  0.41553  1.0000
  C   C270      1.0  0.99375  0.54729  0.47658  1.0000
  N   N90       1.0  0.98912  0.56535  0.53058  1.0000
