data_image0
_chemical_formula_structural       C5NC2HNHNHCNC2HNHNHCNC2HNHNHC5H3C2O3C5H3C2O3C4HC5HO2NHC4HC5HO2NHC4HC5HO2NH
_chemical_formula_sum              "C54 N12 H24 O12"
_cell_length_a       29.3921
_cell_length_b       29.3921
_cell_length_c       15.133
_cell_angle_alpha    90
_cell_angle_beta     90
_cell_angle_gamma    120

_space_group_name_H-M_alt    "P 1"
_space_group_IT_number       1

loop_
  _space_group_symop_operation_xyz
  'x, y, z'

loop_
  _atom_site_type_symbol
  _atom_site_label
  _atom_site_symmetry_multiplicity
  _atom_site_fract_x
  _atom_site_fract_y
  _atom_site_fract_z
  _atom_site_occupancy
  C   C1        1.0  0.36518  0.64651  0.32092  1.0000
  C   C2        1.0  0.40332  0.63071  0.32635  1.0000
  C   C3        1.0  0.62210  0.34523  0.31934  1.0000
  C   C4        1.0  0.58438  0.36161  0.31890  1.0000
  C   C5        1.0  0.54938  0.43904  0.27700  1.0000
  N   N1        1.0  0.52305  0.46557  0.27066  1.0000
  C   C6        1.0  0.44235  0.54404  0.23017  1.0000
  C   C7        1.0  0.42576  0.56352  0.30071  1.0000
  H   H1        1.0  0.56154  0.42965  0.22015  1.0000
  N   N2        1.0  0.46872  0.51825  0.24689  1.0000
  H   H2        1.0  0.43521  0.54947  0.16609  1.0000
  N   N3        1.0  0.39681  0.58700  0.28425  1.0000
  H   H3        1.0  0.36986  0.57116  0.23864  1.0000
  C   C8        1.0  0.54997  0.10815  0.27700  1.0000
  N   N4        1.0  0.52344  0.05528  0.27067  1.0000
  C   C9        1.0  0.44497  0.89611  0.23019  1.0000
  C   C10       1.0  0.42549  0.86003  0.30073  1.0000
  H   H4        1.0  0.55937  0.12969  0.22016  1.0000
  N   N5        1.0  0.47076  0.94826  0.24690  1.0000
  H   H5        1.0  0.43954  0.88353  0.16611  1.0000
  N   N6        1.0  0.40201  0.80761  0.28427  1.0000
  H   H6        1.0  0.41785  0.79649  0.23866  1.0000
  C   C11       1.0  0.88087  0.43965  0.27698  1.0000
  N   N7        1.0  0.93373  0.46598  0.27065  1.0000
  C   C12       1.0  0.09290  0.54667  0.23016  1.0000
  C   C13       1.0  0.12898  0.56326  0.30070  1.0000
  H   H7        1.0  0.85933  0.42750  0.22014  1.0000
  N   N8        1.0  0.04075  0.52031  0.24688  1.0000
  H   H8        1.0  0.10548  0.55382  0.16607  1.0000
  N   N9        1.0  0.18140  0.59220  0.28424  1.0000
  H   H9        1.0  0.19252  0.61916  0.23863  1.0000
  C   C14       1.0  0.34250  0.71646  0.32095  1.0000
  C   C15       1.0  0.28880  0.67790  0.32154  1.0000
  C   C16       1.0  0.27254  0.62383  0.32092  1.0000
  C   C17       1.0  0.31111  0.60869  0.32152  1.0000
  C   C18       1.0  0.38032  0.70021  0.32149  1.0000
  H   H10       1.0  0.29954  0.56958  0.32432  1.0000
  H   H11       1.0  0.41943  0.72776  0.32437  1.0000
  H   H12       1.0  0.26125  0.68947  0.32436  1.0000
  C   C19       1.0  0.35830  0.77040  0.32639  1.0000
  C   C20       1.0  0.21861  0.58569  0.32633  1.0000
  O   O1        1.0  0.44663  0.65997  0.37634  1.0000
  O   O2        1.0  0.32904  0.78446  0.37635  1.0000
  O   O3        1.0  0.20455  0.54237  0.37631  1.0000
  C   C21       1.0  0.64378  0.27467  0.31934  1.0000
  C   C22       1.0  0.69763  0.31275  0.31852  1.0000
  C   C23       1.0  0.71434  0.36691  0.31933  1.0000
  C   C24       1.0  0.67626  0.38268  0.31852  1.0000
  C   C25       1.0  0.60633  0.29138  0.31854  1.0000
  H   H13       1.0  0.68818  0.42192  0.31755  1.0000
  H   H14       1.0  0.56709  0.26406  0.31758  1.0000
  H   H15       1.0  0.72495  0.30083  0.31756  1.0000
  C   C26       1.0  0.62740  0.22057  0.31891  1.0000
  C   C27       1.0  0.76844  0.40463  0.31888  1.0000
  O   O4        1.0  0.54044  0.33382  0.26959  1.0000
  O   O5        1.0  0.65520  0.20443  0.26960  1.0000
  O   O6        1.0  0.78458  0.44858  0.26959  1.0000
  C   C28       1.0  0.56139  0.42665  0.36078  1.0000
  C   C29       1.0  0.50700  0.48160  0.34222  1.0000
  C   C30       1.0  0.51825  0.47117  0.42871  1.0000
  C   C31       1.0  0.54632  0.44394  0.43657  1.0000
  H   H16       1.0  0.55554  0.43603  0.49770  1.0000
  C   C32       1.0  0.47969  0.50897  0.32996  1.0000
  C   C33       1.0  0.43571  0.55357  0.38797  1.0000
  C   C34       1.0  0.46305  0.52635  0.40424  1.0000
  C   C35       1.0  0.47387  0.51569  0.49047  1.0000
  C   C36       1.0  0.50143  0.48835  0.50263  1.0000
  H   H17       1.0  0.42176  0.56525  0.43995  1.0000
  O   O7        1.0  0.45826  0.53159  0.56265  1.0000
  O   O8        1.0  0.51130  0.47890  0.58606  1.0000
  N   N10       1.0  0.59084  0.40296  0.36869  1.0000
  H   H18       1.0  0.61830  0.41690  0.41369  1.0000
  C   C37       1.0  0.56236  0.13254  0.36078  1.0000
  C   C38       1.0  0.50742  0.02320  0.34223  1.0000
  C   C39       1.0  0.51785  0.04489  0.42871  1.0000
  C   C40       1.0  0.54507  0.10018  0.43658  1.0000
  H   H19       1.0  0.55298  0.11732  0.49771  1.0000
  C   C41       1.0  0.48003  0.96851  0.32997  1.0000
  C   C42       1.0  0.43544  0.87994  0.38799  1.0000
  C   C43       1.0  0.46266  0.93450  0.40425  1.0000
  C   C44       1.0  0.47332  0.95598  0.49048  1.0000
  C   C45       1.0  0.50065  0.01088  0.50264  1.0000
  H   H20       1.0  0.42376  0.85431  0.43997  1.0000
  O   O9        1.0  0.45742  0.92448  0.56266  1.0000
  O   O10       1.0  0.51011  0.03020  0.58607  1.0000
  N   N11       1.0  0.58605  0.18569  0.36869  1.0000
  H   H21       1.0  0.57212  0.19920  0.41369  1.0000
  C   C46       1.0  0.85648  0.42763  0.36076  1.0000
  C   C47       1.0  0.96581  0.48203  0.34221  1.0000
  C   C48       1.0  0.94413  0.47077  0.42869  1.0000
  C   C49       1.0  0.88883  0.44270  0.43655  1.0000
  H   H22       1.0  0.87170  0.43347  0.49768  1.0000
  C   C50       1.0  0.02050  0.50933  0.32994  1.0000
  C   C51       1.0  0.10907  0.55330  0.38795  1.0000
  C   C52       1.0  0.05452  0.52597  0.40422  1.0000
  C   C53       1.0  0.03303  0.51514  0.49045  1.0000
  C   C54       1.0  0.97813  0.48757  0.50262  1.0000
  H   H23       1.0  0.13471  0.56725  0.43993  1.0000
  O   O11       1.0  0.06454  0.53074  0.56263  1.0000
  O   O12       1.0  0.95881  0.47771  0.58605  1.0000
  N   N12       1.0  0.80333  0.39818  0.36867  1.0000
  H   H24       1.0  0.78981  0.37072  0.41367  1.0000
