data_image0
_chemical_formula_structural       C13NC2N2HCNC2N2HCNC2N2HCNC2N2HCNC2N2HCNC2N2HNC3N2HNC3N2HNC3N2HNC3N2HNC3N2HNC3N2HCNC2N2HCNC2N2HCNC2N2HCNC2N2HCNC2N2HCNC2N2HC5H3C2O3C5H3C2O3C5H3C2O3C5H3C2O3C5H3C2O3C5H3C2O3C6H3C3O3C6H3C3O3C6H3C3O3C6H3C3O3C6H3C3O3C6H3C3O3NC3N2HNC3N2HNC3N2HNC3N2HNC3N2HNC3N2HCNC2N2HCNC2N2HCNC2N2HCNC2N2HCNC2N2HCNC2N2HNC3N2HNC3N2HNC3N2HNC3N2HNC3N2HNC3N2H
_chemical_formula_sum              "C216 N108 H72 O36"
_cell_length_a       57.8288
_cell_length_b       57.8288
_cell_length_c       15.0789
_cell_angle_alpha    90
_cell_angle_beta     90
_cell_angle_gamma    120

_space_group_name_H-M_alt    "P 1"
_space_group_IT_number       1

loop_
  _space_group_symop_operation_xyz
  'x, y, z'

loop_
  _atom_site_type_symbol
  _atom_site_label
  _atom_site_symmetry_multiplicity
  _atom_site_fract_x
  _atom_site_fract_y
  _atom_site_fract_z
  _atom_site_occupancy
  C   C1        1.0  0.09838  0.42982  0.35554  1.0000
  C   C2        1.0  0.07766  0.40294  0.34949  1.0000
  C   C3        1.0  0.58238  0.68587  0.35620  1.0000
  C   C4        1.0  0.60921  0.69188  0.34966  1.0000
  C   C5        1.0  0.32795  0.91544  0.35642  1.0000
  C   C6        1.0  0.32216  0.93644  0.35226  1.0000
  C   C7        1.0  0.90691  0.58998  0.35553  1.0000
  C   C8        1.0  0.92783  0.61679  0.34987  1.0000
  C   C9        1.0  0.42221  0.33384  0.35821  1.0000
  C   C10       1.0  0.39531  0.32757  0.35156  1.0000
  C   C11       1.0  0.67714  0.10557  0.35398  1.0000
  C   C12       1.0  0.68298  0.08460  0.34888  1.0000
  C   C13       1.0  0.24439  0.44796  0.29814  1.0000
  N   N1        1.0  0.20809  0.45583  0.28869  1.0000
  C   C14       1.0  0.22833  0.45489  0.24701  1.0000
  C   C15       1.0  0.23285  0.46201  0.16424  1.0000
  N   N2        1.0  0.23683  0.46839  0.09117  1.0000
  N   N3        1.0  0.26682  0.44877  0.26735  1.0000
  H   H1        1.0  0.26525  0.43824  0.21490  1.0000
  C   C16       1.0  0.56426  0.81333  0.29195  1.0000
  N   N4        1.0  0.55656  0.76920  0.28578  1.0000
  C   C17       1.0  0.55731  0.79006  0.24247  1.0000
  C   C18       1.0  0.54992  0.78690  0.15991  1.0000
  N   N5        1.0  0.54331  0.78401  0.08700  1.0000
  N   N6        1.0  0.56296  0.83454  0.25975  1.0000
  H   H2        1.0  0.57489  0.84451  0.21112  1.0000
  C   C19       1.0  0.19952  0.76770  0.29591  1.0000
  N   N7        1.0  0.24319  0.80475  0.28353  1.0000
  C   C20       1.0  0.22207  0.78405  0.24331  1.0000
  C   C21       1.0  0.22437  0.77941  0.16040  1.0000
  N   N8        1.0  0.22650  0.77532  0.08721  1.0000
  N   N9        1.0  0.17785  0.74513  0.26605  1.0000
  H   H3        1.0  0.16887  0.74649  0.21329  1.0000
  C   C22       1.0  0.75985  0.57121  0.29965  1.0000
  N   N10       1.0  0.79671  0.56427  0.28798  1.0000
  C   C23       1.0  0.77614  0.56484  0.24739  1.0000
  C   C24       1.0  0.77156  0.55790  0.16447  1.0000
  N   N11       1.0  0.76753  0.55168  0.09127  1.0000
  N   N12       1.0  0.73738  0.57045  0.26938  1.0000
  H   H4        1.0  0.73878  0.58048  0.21574  1.0000
  C   C25       1.0  0.44077  0.20753  0.28724  1.0000
  N   N13       1.0  0.44913  0.25191  0.28540  1.0000
  C   C26       1.0  0.44836  0.23133  0.24016  1.0000
  C   C27       1.0  0.45598  0.23505  0.15779  1.0000
  N   N14       1.0  0.46275  0.23843  0.08504  1.0000
  N   N15       1.0  0.44217  0.18659  0.25306  1.0000
  H   H5        1.0  0.42872  0.17564  0.20944  1.0000
  C   C28       1.0  0.80611  0.25183  0.30151  1.0000
  N   N16       1.0  0.76199  0.21556  0.28928  1.0000
  C   C29       1.0  0.78341  0.23590  0.24894  1.0000
  C   C30       1.0  0.78123  0.24069  0.16611  1.0000
  N   N17       1.0  0.77920  0.24492  0.09296  1.0000
  N   N18       1.0  0.82801  0.27421  0.27177  1.0000
  H   H6        1.0  0.83656  0.27286  0.21787  1.0000
  N   N19       1.0  0.12239  0.55262  0.27766  1.0000
  C   C31       1.0  0.12345  0.57541  0.24973  1.0000
  C   C32       1.0  0.11940  0.59122  0.31269  1.0000
  C   C33       1.0  0.12791  0.58126  0.16596  1.0000
  N   N20       1.0  0.13195  0.58661  0.09210  1.0000
  N   N21       1.0  0.12147  0.61527  0.29272  1.0000
  H   H7        1.0  0.13412  0.62586  0.24634  1.0000
  N   N22       1.0  0.45930  0.58778  0.27835  1.0000
  C   C34       1.0  0.43652  0.56613  0.25005  1.0000
  C   C35       1.0  0.42070  0.54614  0.31263  1.0000
  C   C36       1.0  0.43070  0.56489  0.16628  1.0000
  N   N23       1.0  0.42539  0.56372  0.09244  1.0000
  N   N24       1.0  0.39678  0.52407  0.29215  1.0000
  H   H8        1.0  0.38613  0.52611  0.24592  1.0000
  N   N25       1.0  0.42603  0.89043  0.27771  1.0000
  C   C37       1.0  0.44774  0.88933  0.24995  1.0000
  C   C38       1.0  0.46741  0.89303  0.31325  1.0000
  C   C39       1.0  0.44929  0.88514  0.16605  1.0000
  N   N26       1.0  0.45075  0.88131  0.09210  1.0000
  N   N27       1.0  0.48941  0.89101  0.29315  1.0000
  H   H9        1.0  0.48751  0.87878  0.24547  1.0000
  N   N28       1.0  0.88145  0.46670  0.27773  1.0000
  C   C40       1.0  0.88022  0.44384  0.24973  1.0000
  C   C41       1.0  0.88440  0.42807  0.31248  1.0000
  C   C42       1.0  0.87560  0.43793  0.16604  1.0000
  N   N29       1.0  0.87141  0.43256  0.09223  1.0000
  N   N30       1.0  0.88244  0.40409  0.29241  1.0000
  H   H10       1.0  0.86951  0.39327  0.24700  1.0000
  N   N31       1.0  0.54493  0.43251  0.27980  1.0000
  C   C43       1.0  0.56769  0.45413  0.25122  1.0000
  C   C44       1.0  0.58347  0.47427  0.31342  1.0000
  C   C45       1.0  0.57354  0.45519  0.16754  1.0000
  N   N32       1.0  0.57886  0.45618  0.09375  1.0000
  N   N33       1.0  0.60746  0.49623  0.29285  1.0000
  H   H11       1.0  0.61815  0.49403  0.24717  1.0000
  N   N34       1.0  0.57888  0.13036  0.27540  1.0000
  C   C46       1.0  0.55714  0.13140  0.24758  1.0000
  C   C47       1.0  0.53744  0.12765  0.31080  1.0000
  C   C48       1.0  0.55564  0.13562  0.16367  1.0000
  N   N35       1.0  0.55423  0.13948  0.08973  1.0000
  N   N36       1.0  0.51539  0.12962  0.29063  1.0000
  H   H12       1.0  0.51717  0.14153  0.24207  1.0000
  C   C49       1.0  0.03296  0.37589  0.29194  1.0000
  N   N37       1.0  0.98828  0.35495  0.23857  1.0000
  C   C50       1.0  0.01471  0.36695  0.22013  1.0000
  C   C51       1.0  0.02168  0.37155  0.13717  1.0000
  N   N38       1.0  0.02785  0.37557  0.06391  1.0000
  N   N39       1.0  0.05945  0.39465  0.28264  1.0000
  H   H13       1.0  0.06407  0.40639  0.23123  1.0000
  C   C52       1.0  0.63628  0.67432  0.29133  1.0000
  N   N40       1.0  0.65714  0.65055  0.23796  1.0000
  C   C53       1.0  0.64485  0.66469  0.21943  1.0000
  C   C54       1.0  0.63946  0.66624  0.13667  1.0000
  N   N41       1.0  0.63476  0.66767  0.06355  1.0000
  N   N42       1.0  0.61732  0.68183  0.28267  1.0000
  H   H14       1.0  0.60537  0.67448  0.23184  1.0000
  C   C55       1.0  0.33951  0.98141  0.29692  1.0000
  N   N43       1.0  0.36259  0.02630  0.24563  1.0000
  C   C56       1.0  0.34903  0.99994  0.22590  1.0000
  C   C57       1.0  0.34779  0.99340  0.14280  1.0000
  N   N44       1.0  0.34665  0.98761  0.06942  1.0000
  N   N45       1.0  0.33246  0.95511  0.28686  1.0000
  H   H15       1.0  0.33998  0.95090  0.23557  1.0000
  C   C58       1.0  0.97265  0.64395  0.29282  1.0000
  N   N46       1.0  0.01739  0.66504  0.24018  1.0000
  C   C59       1.0  0.99098  0.65262  0.22125  1.0000
  C   C60       1.0  0.98417  0.64739  0.13833  1.0000
  N   N47       1.0  0.97815  0.64282  0.06508  1.0000
  N   N48       1.0  0.94622  0.62497  0.28358  1.0000
  H   H16       1.0  0.94172  0.61314  0.23244  1.0000
  C   C61       1.0  0.36832  0.34527  0.29379  1.0000
  N   N49       1.0  0.34755  0.36917  0.24036  1.0000
  C   C62       1.0  0.35951  0.35469  0.22195  1.0000
  C   C63       1.0  0.36421  0.35240  0.13903  1.0000
  N   N50       1.0  0.36831  0.35033  0.06579  1.0000
  N   N51       1.0  0.38706  0.33751  0.28460  1.0000
  H   H17       1.0  0.39889  0.34465  0.23341  1.0000
  C   C64       1.0  0.66566  0.03973  0.29290  1.0000
  N   N52       1.0  0.64232  0.99483  0.24179  1.0000
  C   C65       1.0  0.65592  0.02119  0.22193  1.0000
  C   C66       1.0  0.65688  0.02771  0.13894  1.0000
  N   N53       1.0  0.65776  0.03348  0.06563  1.0000
  N   N54       1.0  0.67272  0.06604  0.28311  1.0000
  H   H18       1.0  0.66516  0.07034  0.23217  1.0000
  C   C67       1.0  0.14578  0.46262  0.37986  1.0000
  C   C68       1.0  0.13970  0.48331  0.36928  1.0000
  C   C69       1.0  0.11346  0.47779  0.35110  1.0000
  C   C70       1.0  0.09304  0.45091  0.34291  1.0000
  C   C71       1.0  0.12462  0.43586  0.37501  1.0000
  H   H19       1.0  0.07393  0.44664  0.32973  1.0000
  H   H20       1.0  0.12846  0.42043  0.37804  1.0000
  H   H21       1.0  0.15485  0.50278  0.37030  1.0000
  C   C72       1.0  0.17281  0.46861  0.38100  1.0000
  C   C73       1.0  0.10831  0.49888  0.33365  1.0000
  O   O1        1.0  0.07454  0.38689  0.41931  1.0000
  O   O2        1.0  0.19106  0.49112  0.33875  1.0000
  O   O3        1.0  0.09188  0.49583  0.26503  1.0000
  C   C74       1.0  0.54979  0.70073  0.38098  1.0000
  C   C75       1.0  0.52899  0.67397  0.37095  1.0000
  C   C76       1.0  0.53436  0.65316  0.35258  1.0000
  C   C77       1.0  0.56118  0.65948  0.34398  1.0000
  C   C78       1.0  0.57649  0.70619  0.37549  1.0000
  H   H22       1.0  0.56533  0.64455  0.33073  1.0000
  H   H23       1.0  0.59200  0.72541  0.37840  1.0000
  H   H24       1.0  0.50955  0.66974  0.37220  1.0000
  C   C79       1.0  0.54387  0.72182  0.38198  1.0000
  C   C80       1.0  0.51315  0.62697  0.33512  1.0000
  O   O4        1.0  0.62562  0.70533  0.41818  1.0000
  O   O5        1.0  0.52110  0.71743  0.34126  1.0000
  O   O6        1.0  0.51610  0.61354  0.26648  1.0000
  C   C81       1.0  0.31272  0.86770  0.37556  1.0000
  C   C82       1.0  0.33946  0.87360  0.36602  1.0000
  C   C83       1.0  0.36045  0.89990  0.35072  1.0000
  C   C84       1.0  0.35434  0.92060  0.34462  1.0000
  C   C85       1.0  0.30743  0.88909  0.37273  1.0000
  H   H25       1.0  0.36941  0.93977  0.33358  1.0000
  H   H26       1.0  0.28821  0.88542  0.37536  1.0000
  H   H27       1.0  0.34358  0.85831  0.36563  1.0000
  C   C86       1.0  0.29150  0.84075  0.37418  1.0000
  C   C87       1.0  0.38669  0.90492  0.33414  1.0000
  O   O7        1.0  0.30850  0.93888  0.42114  1.0000
  O   O8        1.0  0.29585  0.82271  0.33088  1.0000
  O   O9        1.0  0.40051  0.92180  0.26699  1.0000
  C   C88       1.0  0.85935  0.55748  0.37861  1.0000
  C   C89       1.0  0.86523  0.53663  0.36855  1.0000
  C   C90       1.0  0.89144  0.54193  0.35113  1.0000
  C   C91       1.0  0.91204  0.56874  0.34333  1.0000
  C   C92       1.0  0.88068  0.58416  0.37403  1.0000
  H   H28       1.0  0.93113  0.57283  0.33076  1.0000
  H   H29       1.0  0.87699  0.59969  0.37698  1.0000
  H   H30       1.0  0.84996  0.51722  0.36931  1.0000
  C   C93       1.0  0.83237  0.55166  0.37909  1.0000
  C   C94       1.0  0.89636  0.52067  0.33401  1.0000
  O   O10       1.0  0.93070  0.63303  0.41880  1.0000
  O   O11       1.0  0.81414  0.52919  0.33663  1.0000
  O   O12       1.0  0.91284  0.52358  0.26572  1.0000
  C   C95       1.0  0.45515  0.31945  0.38379  1.0000
  C   C96       1.0  0.47575  0.34629  0.37358  1.0000
  C   C97       1.0  0.47013  0.36690  0.35461  1.0000
  C   C98       1.0  0.44324  0.36030  0.34569  1.0000
  C   C99       1.0  0.42836  0.31373  0.37806  1.0000
  H   H31       1.0  0.43891  0.37509  0.33206  1.0000
  H   H32       1.0  0.41298  0.29445  0.38107  1.0000
  H   H33       1.0  0.49526  0.35074  0.37499  1.0000
  C   C100      1.0  0.46139  0.29856  0.38485  1.0000
  C   C101      1.0  0.49117  0.39314  0.33674  1.0000
  O   O13       1.0  0.37910  0.31446  0.42087  1.0000
  O   O14       1.0  0.48433  0.30328  0.34469  1.0000
  O   O15       1.0  0.48811  0.40629  0.26744  1.0000
  C   C102      1.0  0.69222  0.15313  0.37727  1.0000
  C   C103      1.0  0.66553  0.14731  0.36659  1.0000
  C   C104      1.0  0.64464  0.12113  0.34880  1.0000
  C   C105      1.0  0.65081  0.10050  0.34126  1.0000
  C   C106      1.0  0.69754  0.13178  0.37279  1.0000
  H   H34       1.0  0.63580  0.08141  0.32868  1.0000
  H   H35       1.0  0.71675  0.13544  0.37617  1.0000
  H   H36       1.0  0.66141  0.16260  0.36719  1.0000
  C   C107      1.0  0.71343  0.18007  0.37856  1.0000
  C   C108      1.0  0.61847  0.11620  0.33145  1.0000
  O   O16       1.0  0.69686  0.08214  0.41705  1.0000
  O   O17       1.0  0.70943  0.19848  0.33629  1.0000
  O   O18       1.0  0.60490  0.09964  0.26333  1.0000
  C   C109      1.0  0.45349  0.15179  0.28377  1.0000
  C   C110      1.0  0.47447  0.14651  0.30060  1.0000
  C   C111      1.0  0.46976  0.12020  0.30976  1.0000
  C   C112      1.0  0.44326  0.09885  0.30306  1.0000
  C   C113      1.0  0.42201  0.10350  0.28407  1.0000
  C   C114      1.0  0.42732  0.12990  0.27330  1.0000
  H   H37       1.0  0.43947  0.07963  0.30978  1.0000
  H   H38       1.0  0.41152  0.13303  0.26550  1.0000
  H   H39       1.0  0.49342  0.16216  0.31020  1.0000
  C   C115      1.0  0.45823  0.17831  0.29022  1.0000
  C   C116      1.0  0.39563  0.08188  0.27766  1.0000
  C   C117      1.0  0.49107  0.11556  0.33035  1.0000
  O   O19       1.0  0.38237  0.07937  0.20102  1.0000
  O   O20       1.0  0.47809  0.19529  0.34519  1.0000
  O   O21       1.0  0.48608  0.09547  0.38734  1.0000
  C   C118      1.0  0.69122  0.55925  0.29349  1.0000
  C   C119      1.0  0.66496  0.53809  0.30872  1.0000
  C   C120      1.0  0.64291  0.54230  0.30876  1.0000
  C   C121      1.0  0.64763  0.56844  0.29493  1.0000
  C   C122      1.0  0.67360  0.58974  0.27716  1.0000
  C   C123      1.0  0.69519  0.58497  0.27520  1.0000
  H   H40       1.0  0.63194  0.57196  0.29636  1.0000
  H   H41       1.0  0.71412  0.60091  0.26873  1.0000
  H   H42       1.0  0.66195  0.51952  0.32380  1.0000
  C   C124      1.0  0.71329  0.55553  0.30935  1.0000
  C   C125      1.0  0.67805  0.61591  0.26770  1.0000
  C   C126      1.0  0.61694  0.52097  0.32854  1.0000
  O   O22       1.0  0.68794  0.62829  0.18917  1.0000
  O   O23       1.0  0.71069  0.53823  0.37462  1.0000
  O   O24       1.0  0.60102  0.52630  0.38040  1.0000
  C   C127      1.0  0.86266  0.32058  0.29455  1.0000
  C   C128      1.0  0.86747  0.34678  0.30908  1.0000
  C   C129      1.0  0.89360  0.36902  0.30834  1.0000
  C   C130      1.0  0.91520  0.36459  0.29431  1.0000
  C   C131      1.0  0.91081  0.33869  0.27721  1.0000
  C   C132      1.0  0.88456  0.31688  0.27608  1.0000
  H   H43       1.0  0.93433  0.38042  0.29535  1.0000
  H   H44       1.0  0.88178  0.29801  0.27017  1.0000
  H   H45       1.0  0.85179  0.34959  0.32432  1.0000
  C   C133      1.0  0.83703  0.29836  0.31124  1.0000
  C   C134      1.0  0.93271  0.33451  0.26812  1.0000
  C   C135      1.0  0.89799  0.39492  0.32783  1.0000
  O   O25       1.0  0.93523  0.32440  0.19010  1.0000
  O   O26       1.0  0.82227  0.30096  0.37629  1.0000
  O   O27       1.0  0.91927  0.41108  0.37912  1.0000
  C   C136      1.0  0.55166  0.86934  0.28843  1.0000
  C   C137      1.0  0.53063  0.87454  0.30519  1.0000
  C   C138      1.0  0.53518  0.90086  0.31123  1.0000
  C   C139      1.0  0.56154  0.92227  0.30155  1.0000
  C   C140      1.0  0.58279  0.91762  0.28251  1.0000
  C   C141      1.0  0.57766  0.89121  0.27489  1.0000
  H   H46       1.0  0.56523  0.94150  0.30643  1.0000
  H   H47       1.0  0.59348  0.88811  0.26682  1.0000
  H   H48       1.0  0.51182  0.85888  0.31697  1.0000
  C   C142      1.0  0.54732  0.84308  0.29836  1.0000
  C   C143      1.0  0.60906  0.93928  0.27432  1.0000
  C   C144      1.0  0.51386  0.90547  0.33169  1.0000
  O   O28       1.0  0.62195  0.94162  0.19697  1.0000
  O   O29       1.0  0.52858  0.82695  0.35800  1.0000
  O   O30       1.0  0.51895  0.92594  0.38704  1.0000
  C   C145      1.0  0.31321  0.46060  0.29137  1.0000
  C   C146      1.0  0.33940  0.48193  0.30650  1.0000
  C   C147      1.0  0.36155  0.47791  0.30829  1.0000
  C   C148      1.0  0.35704  0.45178  0.29596  1.0000
  C   C149      1.0  0.33117  0.43029  0.27828  1.0000
  C   C150      1.0  0.30946  0.43487  0.27484  1.0000
  H   H49       1.0  0.37282  0.44842  0.29848  1.0000
  H   H50       1.0  0.29059  0.41885  0.26825  1.0000
  H   H51       1.0  0.34224  0.50051  0.32051  1.0000
  C   C151      1.0  0.29103  0.46425  0.30600  1.0000
  C   C152      1.0  0.32695  0.40416  0.26994  1.0000
  C   C153      1.0  0.38741  0.49940  0.32829  1.0000
  O   O31       1.0  0.31630  0.39112  0.19292  1.0000
  O   O32       1.0  0.29361  0.48199  0.36956  1.0000
  O   O33       1.0  0.40332  0.49434  0.38111  1.0000
  C   C154      1.0  0.14280  0.69916  0.29279  1.0000
  C   C155      1.0  0.13761  0.67289  0.30844  1.0000
  C   C156      1.0  0.11129  0.65096  0.31035  1.0000
  C   C157      1.0  0.08990  0.65582  0.29797  1.0000
  C   C158      1.0  0.09463  0.68180  0.27994  1.0000
  C   C159      1.0  0.12105  0.70326  0.27617  1.0000
  H   H52       1.0  0.07066  0.64021  0.30050  1.0000
  H   H53       1.0  0.12417  0.72222  0.26908  1.0000
  H   H54       1.0  0.15319  0.66980  0.32239  1.0000
  C   C160      1.0  0.16878  0.72114  0.30671  1.0000
  C   C161      1.0  0.07299  0.68640  0.27094  1.0000
  C   C162      1.0  0.10660  0.62497  0.33003  1.0000
  O   O34       1.0  0.07043  0.69620  0.19233  1.0000
  O   O35       1.0  0.18381  0.71864  0.37093  1.0000
  O   O36       1.0  0.08563  0.60923  0.38314  1.0000
  N   N55       1.0  0.23776  0.44135  0.38473  1.0000
  C   C163      1.0  0.21689  0.44137  0.42532  1.0000
  C   C164      1.0  0.20178  0.45000  0.37605  1.0000
  C   C165      1.0  0.21282  0.43468  0.50854  1.0000
  N   N56       1.0  0.20919  0.42859  0.58192  1.0000
  N   N57       1.0  0.18031  0.45096  0.40924  1.0000
  H   H55       1.0  0.16856  0.43662  0.44914  1.0000
  N   N58       1.0  0.57113  0.81393  0.37859  1.0000
  C   C166      1.0  0.57135  0.79337  0.42073  1.0000
  C   C167      1.0  0.56264  0.76932  0.37322  1.0000
  C   C168      1.0  0.57819  0.79652  0.50386  1.0000
  N   N59       1.0  0.58438  0.79945  0.57717  1.0000
  N   N60       1.0  0.56175  0.74713  0.40820  1.0000
  H   H56       1.0  0.57639  0.75000  0.44708  1.0000
  N   N61       1.0  0.19981  0.77462  0.38235  1.0000
  C   C169      1.0  0.22062  0.79592  0.42154  1.0000
  C   C170      1.0  0.24398  0.81132  0.37076  1.0000
  C   C171      1.0  0.21829  0.80020  0.50478  1.0000
  N   N62       1.0  0.21607  0.80402  0.57818  1.0000
  N   N63       1.0  0.26634  0.83315  0.40249  1.0000
  H   H57       1.0  0.26369  0.84475  0.44297  1.0000
  N   N64       1.0  0.76669  0.57782  0.38614  1.0000
  C   C172      1.0  0.78787  0.57814  0.42570  1.0000
  C   C173      1.0  0.80320  0.57002  0.37525  1.0000
  C   C174      1.0  0.79214  0.58480  0.50891  1.0000
  N   N65       1.0  0.79595  0.59087  0.58228  1.0000
  N   N66       1.0  0.82494  0.56937  0.40724  1.0000
  H   H58       1.0  0.83669  0.58371  0.44713  1.0000
  N   N67       1.0  0.43365  0.20628  0.37388  1.0000
  C   C175      1.0  0.43356  0.22664  0.41801  1.0000
  C   C176      1.0  0.44270  0.25112  0.37279  1.0000
  C   C177      1.0  0.42649  0.22288  0.50092  1.0000
  N   N68       1.0  0.42013  0.21943  0.57408  1.0000
  N   N69       1.0  0.44356  0.27309  0.40975  1.0000
  H   H59       1.0  0.42883  0.26999  0.44855  1.0000
  N   N70       1.0  0.80563  0.24488  0.38799  1.0000
  C   C178      1.0  0.78450  0.22389  0.42725  1.0000
  C   C179      1.0  0.76102  0.20896  0.37655  1.0000
  C   C180      1.0  0.78667  0.21949  0.51049  1.0000
  N   N71       1.0  0.78874  0.21555  0.58391  1.0000
  N   N72       1.0  0.73841  0.18739  0.40825  1.0000
  H   H60       1.0  0.74078  0.17546  0.44793  1.0000
  C   C181      1.0  0.11788  0.54384  0.36306  1.0000
  N   N73       1.0  0.11537  0.58266  0.39842  1.0000
  C   C182      1.0  0.11462  0.56002  0.42653  1.0000
  C   C183      1.0  0.11034  0.55411  0.51029  1.0000
  N   N74       1.0  0.10648  0.54874  0.58418  1.0000
  N   N75       1.0  0.11900  0.52143  0.38397  1.0000
  H   H61       1.0  0.12806  0.52176  0.43893  1.0000
  C   C184      1.0  0.46803  0.59188  0.36380  1.0000
  N   N76       1.0  0.42920  0.55049  0.39842  1.0000
  C   C185      1.0  0.45181  0.57234  0.42693  1.0000
  C   C186      1.0  0.45769  0.57380  0.51068  1.0000
  N   N77       1.0  0.46303  0.57518  0.58456  1.0000
  N   N78       1.0  0.49052  0.61530  0.38503  1.0000
  H   H62       1.0  0.49021  0.62401  0.44004  1.0000
  C   C187      1.0  0.42159  0.89466  0.36323  1.0000
  N   N79       1.0  0.46270  0.89676  0.39909  1.0000
  C   C188      1.0  0.44080  0.89753  0.42702  1.0000
  C   C189      1.0  0.43897  0.90152  0.51089  1.0000
  N   N80       1.0  0.43724  0.90514  0.58484  1.0000
  N   N81       1.0  0.39808  0.89362  0.38375  1.0000
  H   H63       1.0  0.38905  0.88419  0.43789  1.0000
  C   C190      1.0  0.88617  0.47553  0.36308  1.0000
  N   N82       1.0  0.88862  0.43667  0.39816  1.0000
  C   C191      1.0  0.88946  0.45934  0.42642  1.0000
  C   C192      1.0  0.89393  0.46530  0.51009  1.0000
  N   N83       1.0  0.89795  0.47070  0.58393  1.0000
  N   N84       1.0  0.88530  0.49806  0.38401  1.0000
  H   H64       1.0  0.87620  0.49779  0.43883  1.0000
  C   C193      1.0  0.53616  0.42858  0.36521  1.0000
  N   N85       1.0  0.57493  0.47010  0.39917  1.0000
  C   C194      1.0  0.55232  0.44830  0.42796  1.0000
  C   C195      1.0  0.54643  0.44701  0.51165  1.0000
  N   N86       1.0  0.54108  0.44580  0.58548  1.0000
  N   N87       1.0  0.51375  0.40513  0.38685  1.0000
  H   H65       1.0  0.51412  0.39659  0.44218  1.0000
  C   C196      1.0  0.58333  0.12613  0.36092  1.0000
  N   N88       1.0  0.54214  0.12390  0.39663  1.0000
  C   C197      1.0  0.56405  0.12316  0.42463  1.0000
  C   C198      1.0  0.56583  0.11910  0.50848  1.0000
  N   N89       1.0  0.56750  0.11543  0.58242  1.0000
  N   N90       1.0  0.60684  0.12716  0.38157  1.0000
  H   H66       1.0  0.61568  0.13630  0.43630  1.0000
  N   N91       1.0  0.02219  0.36977  0.37481  1.0000
  C   C199      1.0  0.99576  0.35625  0.39316  1.0000
  C   C200      1.0  0.97759  0.34933  0.32159  1.0000
  C   C201      1.0  0.98903  0.35290  0.47647  1.0000
  N   N92       1.0  0.98312  0.34994  0.55006  1.0000
  N   N93       1.0  0.95141  0.34246  0.33332  1.0000
  H   H67       1.0  0.94692  0.34757  0.38967  1.0000
  N   N94       1.0  0.64316  0.67044  0.37404  1.0000
  C   C202      1.0  0.65702  0.65787  0.39221  1.0000
  C   C203      1.0  0.66352  0.64619  0.32086  1.0000
  C   C204      1.0  0.66115  0.65519  0.47541  1.0000
  N   N95       1.0  0.66479  0.65288  0.54890  1.0000
  N   N96       1.0  0.67047  0.62696  0.33296  1.0000
  H   H68       1.0  0.66548  0.61756  0.38969  1.0000
  N   N97       1.0  0.34299  0.99178  0.38014  1.0000
  C   C205      1.0  0.35505  0.01812  0.39952  1.0000
  C   C206      1.0  0.36651  0.03665  0.32902  1.0000
  C   C207      1.0  0.35742  0.02463  0.48295  1.0000
  N   N98       1.0  0.35947  0.03035  0.55662  1.0000
  N   N99       1.0  0.38529  0.06294  0.34223  1.0000
  H   H69       1.0  0.39512  0.06723  0.39807  1.0000
  N   N100      1.0  0.98327  0.65080  0.37572  1.0000
  C   C208      1.0  0.00968  0.66471  0.39435  1.0000
  C   C209      1.0  0.02797  0.67135  0.32328  1.0000
  C   C210      1.0  0.01637  0.66888  0.47762  1.0000
  N   N101      1.0  0.02225  0.67257  0.55117  1.0000
  N   N102      1.0  0.05420  0.67852  0.33577  1.0000
  H   H70       1.0  0.05860  0.67352  0.39251  1.0000
  N   N103      1.0  0.36215  0.34988  0.37664  1.0000
  C   C211      1.0  0.34868  0.36285  0.39494  1.0000
  C   C212      1.0  0.34187  0.37419  0.32336  1.0000
  C   C213      1.0  0.34526  0.36619  0.47822  1.0000
  N   N104      1.0  0.34223  0.36910  0.55178  1.0000
  N   N105      1.0  0.33512  0.39358  0.33502  1.0000
  H   H71       1.0  0.34047  0.40333  0.39107  1.0000
  N   N106      1.0  0.66240  0.02937  0.37607  1.0000
  C   C214      1.0  0.65034  0.00303  0.39549  1.0000
  C   C215      1.0  0.63861  0.98449  0.32514  1.0000
  C   C216      1.0  0.64820  0.99657  0.47891  1.0000
  N   N107      1.0  0.64637  0.99088  0.55259  1.0000
  N   N108      1.0  0.61975  0.95825  0.33868  1.0000
  H   H72       1.0  0.61019  0.95407  0.39505  1.0000
