data_image0
_chemical_formula_structural       C3OHOHCHC3OHOHCHC3O2H2CHC3O2H2CHC3O2H2CHC3O2H2CHC3OHOHCHC3OHOHCHC3OHOHCHC3OHOHCHC3O2H2CHC3O2H2CHC3O2H2CHC3O2H2CHC3OHOHCHC3OHOHCHC3OHOHCHC3OHOHCHC6H3N3C6H3N3C6H3N3C6H3N3C6H3N3C6H3N3C6H3N3C6H3N3C6H3N3C6H3N3C6H3N3C6H3N3C3O2H2CHC3O2H2CHC3OHOHCHC3OHOHCHC3OHOHCHC3OHOHCHC3O2H2CHC3O2H2CHC3O2H2CHC3O2H2CHC3OHOHCHC3OHOHCHC3OHOHCHC3OHOHCHC3O2H2CHC3O2H2CHC3O2H2CHC3O2H2CH
_chemical_formula_sum              "C216 O72 H144 N36"
_cell_length_a       52.2821
_cell_length_b       52.0388
_cell_length_c       14.6527
_cell_angle_alpha    90
_cell_angle_beta     90
_cell_angle_gamma    90.2662

_space_group_name_H-M_alt    "P 1"
_space_group_IT_number       1

loop_
  _space_group_symop_operation_xyz
  'x, y, z'

loop_
  _atom_site_type_symbol
  _atom_site_label
  _atom_site_symmetry_multiplicity
  _atom_site_fract_x
  _atom_site_fract_y
  _atom_site_fract_z
  _atom_site_occupancy
  C   C1        1.0  0.02653  0.48762  0.34331  1.0000
  C   C2        1.0  0.01105  0.49644  0.27011  1.0000
  C   C3        1.0  0.99552  0.51859  0.27910  1.0000
  O   O1        1.0  0.98221  0.52692  0.20487  1.0000
  H   H1        1.0  0.96596  0.51733  0.20486  1.0000
  O   O2        1.0  0.01172  0.48428  0.18769  1.0000
  H   H2        1.0  0.99728  0.47210  0.18749  1.0000
  C   C4        1.0  0.04026  0.46463  0.33492  1.0000
  H   H3        1.0  0.03121  0.44971  0.30718  1.0000
  C   C5        1.0  0.53214  0.02585  0.34265  1.0000
  C   C6        1.0  0.52322  0.01032  0.26938  1.0000
  C   C7        1.0  0.50099  0.99476  0.27821  1.0000
  O   O3        1.0  0.49257  0.98142  0.20389  1.0000
  H   H4        1.0  0.50193  0.96507  0.20393  1.0000
  O   O4        1.0  0.53537  0.01098  0.18705  1.0000
  H   H5        1.0  0.54734  0.99646  0.18690  1.0000
  C   C8        1.0  0.55517  0.03962  0.33444  1.0000
  H   H6        1.0  0.56997  0.03051  0.30700  1.0000
  C   C9        1.0  0.05891  0.27437  0.35071  1.0000
  C   C10       1.0  0.05869  0.29200  0.27675  1.0000
  C   C11       1.0  0.06877  0.31720  0.28633  1.0000
  O   O5        1.0  0.04985  0.28453  0.19324  1.0000
  O   O6        1.0  0.06952  0.33274  0.21148  1.0000
  H   H7        1.0  0.03187  0.28993  0.19038  1.0000
  H   H8        1.0  0.05277  0.34122  0.20843  1.0000
  C   C12       1.0  0.04759  0.25013  0.34134  1.0000
  H   H9        1.0  0.03045  0.24918  0.31201  1.0000
  C   C13       1.0  0.96071  0.74550  0.35335  1.0000
  C   C14       1.0  0.96118  0.72780  0.27960  1.0000
  C   C15       1.0  0.95125  0.70254  0.28924  1.0000
  O   O7        1.0  0.97015  0.73524  0.19623  1.0000
  O   O8        1.0  0.95076  0.68694  0.21453  1.0000
  H   H10       1.0  0.98816  0.72993  0.19386  1.0000
  H   H11       1.0  0.96758  0.67858  0.21197  1.0000
  C   C16       1.0  0.97195  0.76979  0.34396  1.0000
  H   H12       1.0  0.98911  0.77077  0.31479  1.0000
  C   C17       1.0  0.74472  0.05904  0.35060  1.0000
  C   C18       1.0  0.72713  0.05854  0.27675  1.0000
  C   C19       1.0  0.70212  0.06866  0.28600  1.0000
  O   O9        1.0  0.73445  0.04938  0.19362  1.0000
  O   O10       1.0  0.68663  0.06913  0.21118  1.0000
  H   H13       1.0  0.72893  0.03130  0.19155  1.0000
  H   H14       1.0  0.67805  0.05228  0.20895  1.0000
  C   C20       1.0  0.76876  0.04761  0.34164  1.0000
  H   H15       1.0  0.76952  0.03030  0.31300  1.0000
  C   C21       1.0  0.27465  0.96084  0.35256  1.0000
  C   C22       1.0  0.29222  0.96121  0.27864  1.0000
  C   C23       1.0  0.31721  0.95106  0.28797  1.0000
  O   O11       1.0  0.28488  0.97030  0.19539  1.0000
  O   O12       1.0  0.33266  0.95047  0.21309  1.0000
  H   H16       1.0  0.29046  0.98836  0.19302  1.0000
  H   H17       1.0  0.34129  0.96729  0.21057  1.0000
  C   C24       1.0  0.25063  0.97231  0.34349  1.0000
  H   H18       1.0  0.24992  0.98961  0.31476  1.0000
  C   C25       1.0  0.44927  0.82812  0.34112  1.0000
  C   C26       1.0  0.45277  0.81150  0.26534  1.0000
  C   C27       1.0  0.45751  0.78491  0.27768  1.0000
  O   O13       1.0  0.46204  0.77019  0.20253  1.0000
  H   H19       1.0  0.44523  0.76387  0.18207  1.0000
  O   O14       1.0  0.45145  0.82088  0.17855  1.0000
  H   H20       1.0  0.46916  0.82442  0.15951  1.0000
  C   C28       1.0  0.44803  0.85471  0.32782  1.0000
  H   H21       1.0  0.46103  0.86272  0.28702  1.0000
  C   C29       1.0  0.56984  0.19154  0.34333  1.0000
  C   C30       1.0  0.56639  0.20809  0.26733  1.0000
  C   C31       1.0  0.56164  0.23469  0.27932  1.0000
  O   O15       1.0  0.55716  0.24934  0.20396  1.0000
  H   H22       1.0  0.57398  0.25556  0.18336  1.0000
  O   O16       1.0  0.56774  0.19861  0.18068  1.0000
  H   H23       1.0  0.55004  0.19503  0.16165  1.0000
  C   C32       1.0  0.57111  0.16493  0.33043  1.0000
  H   H24       1.0  0.55802  0.15684  0.29015  1.0000
  C   C33       1.0  0.82951  0.56869  0.34290  1.0000
  C   C34       1.0  0.81297  0.56555  0.26685  1.0000
  C   C35       1.0  0.78647  0.56071  0.27889  1.0000
  O   O17       1.0  0.77176  0.55657  0.20348  1.0000
  H   H25       1.0  0.76565  0.57356  0.18416  1.0000
  O   O18       1.0  0.82234  0.56731  0.18019  1.0000
  H   H26       1.0  0.82576  0.54962  0.16012  1.0000
  C   C36       1.0  0.85597  0.57005  0.32978  1.0000
  H   H27       1.0  0.86393  0.55701  0.28917  1.0000
  C   C37       1.0  0.19153  0.44983  0.34446  1.0000
  C   C38       1.0  0.20808  0.45322  0.26854  1.0000
  C   C39       1.0  0.23467  0.45754  0.28064  1.0000
  O   O19       1.0  0.24936  0.46201  0.20540  1.0000
  H   H28       1.0  0.25518  0.44507  0.18440  1.0000
  O   O20       1.0  0.19861  0.45220  0.18187  1.0000
  H   H29       1.0  0.19545  0.47008  0.16338  1.0000
  C   C40       1.0  0.16503  0.44891  0.33156  1.0000
  H   H30       1.0  0.15721  0.46218  0.29156  1.0000
  C   C41       1.0  0.13782  0.06278  0.33570  1.0000
  C   C42       1.0  0.12832  0.07702  0.26042  1.0000
  C   C43       1.0  0.11762  0.10170  0.27275  1.0000
  O   O21       1.0  0.12951  0.06728  0.17404  1.0000
  O   O22       1.0  0.10903  0.11473  0.19812  1.0000
  H   H31       1.0  0.11279  0.05923  0.16198  1.0000
  H   H32       1.0  0.09153  0.10849  0.18654  1.0000
  C   C44       1.0  0.14491  0.03722  0.32316  1.0000
  H   H33       1.0  0.13397  0.02671  0.28174  1.0000
  C   C45       1.0  0.88167  0.95722  0.33587  1.0000
  C   C46       1.0  0.89120  0.94293  0.26076  1.0000
  C   C47       1.0  0.90186  0.91824  0.27336  1.0000
  O   O23       1.0  0.89007  0.95261  0.17429  1.0000
  O   O24       1.0  0.91049  0.90516  0.19888  1.0000
  H   H34       1.0  0.90680  0.96065  0.16230  1.0000
  H   H35       1.0  0.92800  0.91137  0.18740  1.0000
  C   C48       1.0  0.87459  0.98277  0.32302  1.0000
  H   H36       1.0  0.88558  0.99326  0.28170  1.0000
  C   C49       1.0  0.95701  0.13692  0.33568  1.0000
  C   C50       1.0  0.94272  0.12748  0.26030  1.0000
  C   C51       1.0  0.91781  0.11730  0.27228  1.0000
  O   O25       1.0  0.95264  0.12826  0.17417  1.0000
  O   O26       1.0  0.90476  0.10872  0.19756  1.0000
  H   H37       1.0  0.96023  0.11129  0.16294  1.0000
  H   H38       1.0  0.91050  0.09101  0.18667  1.0000
  C   C52       1.0  0.98264  0.14358  0.32358  1.0000
  H   H39       1.0  0.99297  0.13224  0.28324  1.0000
  C   C53       1.0  0.06235  0.88309  0.33727  1.0000
  C   C54       1.0  0.07668  0.89242  0.26182  1.0000
  C   C55       1.0  0.10158  0.90263  0.27380  1.0000
  O   O27       1.0  0.06682  0.89150  0.17563  1.0000
  O   O28       1.0  0.11469  0.91108  0.19903  1.0000
  H   H40       1.0  0.05923  0.90844  0.16399  1.0000
  H   H41       1.0  0.10895  0.92878  0.18775  1.0000
  C   C56       1.0  0.03673  0.87640  0.32507  1.0000
  H   H42       1.0  0.02640  0.88769  0.28455  1.0000
  C   C57       1.0  0.40260  0.61196  0.35674  1.0000
  C   C58       1.0  0.39312  0.59774  0.28137  1.0000
  C   C59       1.0  0.38296  0.57269  0.29347  1.0000
  O   O29       1.0  0.37619  0.55900  0.21787  1.0000
  H   H43       1.0  0.35842  0.56373  0.20415  1.0000
  O   O30       1.0  0.39542  0.60717  0.19492  1.0000
  H   H44       1.0  0.37931  0.61611  0.18179  1.0000
  C   C60       1.0  0.41361  0.63607  0.34396  1.0000
  H   H45       1.0  0.40366  0.64985  0.31345  1.0000
  C   C61       1.0  0.61574  0.40814  0.35144  1.0000
  C   C62       1.0  0.62588  0.42198  0.27625  1.0000
  C   C63       1.0  0.63623  0.44698  0.28799  1.0000
  O   O31       1.0  0.64372  0.46031  0.21243  1.0000
  H   H46       1.0  0.66153  0.45529  0.20054  1.0000
  O   O32       1.0  0.62413  0.41220  0.19015  1.0000
  H   H47       1.0  0.64025  0.40306  0.17902  1.0000
  C   C64       1.0  0.60479  0.38397  0.33909  1.0000
  H   H48       1.0  0.61493  0.37005  0.31029  1.0000
  C   C65       1.0  0.60451  0.60599  0.33877  1.0000
  C   C66       1.0  0.58877  0.61492  0.26658  1.0000
  C   C67       1.0  0.56681  0.62989  0.28440  1.0000
  O   O33       1.0  0.55097  0.63534  0.21312  1.0000
  H   H49       1.0  0.55742  0.65143  0.18630  1.0000
  O   O34       1.0  0.59307  0.60742  0.17869  1.0000
  H   H50       1.0  0.60633  0.61905  0.15468  1.0000
  C   C68       1.0  0.62266  0.58706  0.32113  1.0000
  H   H51       1.0  0.61776  0.57339  0.27671  1.0000
  C   C69       1.0  0.40696  0.40230  0.35468  1.0000
  C   C70       1.0  0.42096  0.39260  0.27944  1.0000
  C   C71       1.0  0.44586  0.38251  0.29143  1.0000
  O   O35       1.0  0.45933  0.37552  0.21584  1.0000
  H   H52       1.0  0.45452  0.35760  0.20296  1.0000
  O   O36       1.0  0.41145  0.39461  0.19310  1.0000
  H   H53       1.0  0.40243  0.37835  0.18077  1.0000
  C   C72       1.0  0.38296  0.41317  0.34206  1.0000
  H   H54       1.0  0.36913  0.40298  0.31245  1.0000
  C   C73       1.0  0.09008  0.39536  0.35612  1.0000
  C   C74       1.0  0.07230  0.41579  0.35361  1.0000
  C   C75       1.0  0.08016  0.44194  0.35602  1.0000
  C   C76       1.0  0.10674  0.44725  0.36040  1.0000
  C   C77       1.0  0.12521  0.42736  0.36053  1.0000
  C   C78       1.0  0.11648  0.40164  0.35921  1.0000
  H   H55       1.0  0.11280  0.46597  0.36399  1.0000
  H   H56       1.0  0.12973  0.38721  0.35894  1.0000
  H   H57       1.0  0.05318  0.41144  0.35223  1.0000
  N   N1        1.0  0.08119  0.37106  0.35288  1.0000
  N   N2        1.0  0.06392  0.46198  0.35843  1.0000
  N   N3        1.0  0.15055  0.43132  0.36607  1.0000
  C   C79       1.0  0.93039  0.62428  0.35812  1.0000
  C   C80       1.0  0.94835  0.60403  0.35287  1.0000
  C   C81       1.0  0.94070  0.57780  0.35331  1.0000
  C   C82       1.0  0.91417  0.57224  0.35584  1.0000
  C   C83       1.0  0.89555  0.59194  0.35973  1.0000
  C   C84       1.0  0.90406  0.61773  0.36178  1.0000
  H   H58       1.0  0.90828  0.55343  0.35643  1.0000
  H   H59       1.0  0.89068  0.63203  0.36349  1.0000
  H   H60       1.0  0.96739  0.60854  0.34855  1.0000
  N   N4        1.0  0.93905  0.64867  0.35544  1.0000
  N   N5        1.0  0.95705  0.55788  0.34914  1.0000
  N   N6        1.0  0.87025  0.58768  0.36511  1.0000
  C   C85       1.0  0.62440  0.09011  0.35546  1.0000
  C   C86       1.0  0.60401  0.07211  0.35284  1.0000
  C   C87       1.0  0.57799  0.07984  0.35528  1.0000
  C   C88       1.0  0.57278  0.10650  0.35971  1.0000
  C   C89       1.0  0.59261  0.12520  0.35987  1.0000
  C   C90       1.0  0.61820  0.11660  0.35866  1.0000
  H   H61       1.0  0.55416  0.11245  0.36330  1.0000
  H   H62       1.0  0.63260  0.13001  0.35855  1.0000
  H   H63       1.0  0.60827  0.05293  0.35139  1.0000
  N   N7        1.0  0.64857  0.08130  0.35236  1.0000
  N   N8        1.0  0.55797  0.06342  0.35759  1.0000
  N   N9        1.0  0.58862  0.15064  0.36547  1.0000
  C   C91       1.0  0.39490  0.92962  0.35666  1.0000
  C   C92       1.0  0.41528  0.94759  0.35151  1.0000
  C   C93       1.0  0.44130  0.93984  0.35189  1.0000
  C   C94       1.0  0.44651  0.91316  0.35425  1.0000
  C   C95       1.0  0.42668  0.89450  0.35803  1.0000
  C   C96       1.0  0.40111  0.90314  0.36021  1.0000
  H   H64       1.0  0.46516  0.90720  0.35483  1.0000
  H   H65       1.0  0.38671  0.88974  0.36197  1.0000
  H   H66       1.0  0.41103  0.96674  0.34734  1.0000
  N   N10       1.0  0.37073  0.93843  0.35414  1.0000
  N   N11       1.0  0.46134  0.95621  0.34787  1.0000
  N   N12       1.0  0.43067  0.86907  0.36340  1.0000
  C   C97       1.0  0.05125  0.20439  0.36218  1.0000
  C   C98       1.0  0.07053  0.18536  0.36064  1.0000
  C   C99       1.0  0.06431  0.15886  0.35814  1.0000
  C   C100      1.0  0.03834  0.15159  0.35718  1.0000
  C   C101      1.0  0.01847  0.16994  0.35894  1.0000
  C   C102      1.0  0.02527  0.19625  0.36307  1.0000
  H   H67       1.0  0.03379  0.13240  0.35704  1.0000
  H   H68       1.0  0.01103  0.20964  0.36679  1.0000
  H   H69       1.0  0.08937  0.19086  0.35995  1.0000
  N   N13       1.0  0.05867  0.22911  0.36569  1.0000
  N   N14       1.0  0.08105  0.13970  0.35311  1.0000
  N   N15       1.0  0.99378  0.16288  0.36241  1.0000
  C   C103      1.0  0.96818  0.81554  0.36410  1.0000
  C   C104      1.0  0.94887  0.83455  0.36230  1.0000
  C   C105      1.0  0.95506  0.86106  0.35942  1.0000
  C   C106      1.0  0.98103  0.86836  0.35851  1.0000
  C   C107      1.0  0.00092  0.85003  0.36062  1.0000
  C   C108      1.0  0.99414  0.82372  0.36502  1.0000
  H   H70       1.0  0.98557  0.88755  0.35821  1.0000
  H   H71       1.0  0.00840  0.81035  0.36899  1.0000
  H   H72       1.0  0.93004  0.82903  0.36163  1.0000
  N   N16       1.0  0.96079  0.79080  0.36787  1.0000
  N   N17       1.0  0.93833  0.88022  0.35427  1.0000
  N   N18       1.0  0.02560  0.85713  0.36412  1.0000
  C   C109      1.0  0.81439  0.05136  0.36199  1.0000
  C   C110      1.0  0.83346  0.07079  0.36046  1.0000
  C   C111      1.0  0.85980  0.06461  0.35818  1.0000
  C   C112      1.0  0.86687  0.03854  0.35752  1.0000
  C   C113      1.0  0.84849  0.01852  0.35908  1.0000
  C   C114      1.0  0.82233  0.02528  0.36299  1.0000
  H   H73       1.0  0.88594  0.03402  0.35767  1.0000
  H   H74       1.0  0.80892  0.01093  0.36668  1.0000
  H   H75       1.0  0.82813  0.08971  0.35966  1.0000
  N   N19       1.0  0.78982  0.05879  0.36532  1.0000
  N   N20       1.0  0.87904  0.08138  0.35317  1.0000
  N   N21       1.0  0.85553  0.99377  0.36295  1.0000
  C   C115      1.0  0.20500  0.96861  0.36341  1.0000
  C   C116      1.0  0.18590  0.94920  0.36194  1.0000
  C   C117      1.0  0.15957  0.95541  0.35930  1.0000
  C   C118      1.0  0.15253  0.98148  0.35838  1.0000
  C   C119      1.0  0.17093  0.00148  0.35995  1.0000
  C   C120      1.0  0.19708  0.99470  0.36412  1.0000
  H   H76       1.0  0.13346  0.98602  0.35836  1.0000
  H   H77       1.0  0.21051  0.00904  0.36779  1.0000
  H   H78       1.0  0.19121  0.93028  0.36135  1.0000
  N   N22       1.0  0.22955  0.96115  0.36700  1.0000
  N   N23       1.0  0.14031  0.93865  0.35440  1.0000
  N   N24       1.0  0.16391  0.02624  0.36351  1.0000
  C   C121      1.0  0.46681  0.70460  0.35053  1.0000
  C   C122      1.0  0.44755  0.68538  0.35406  1.0000
  C   C123      1.0  0.45386  0.65899  0.35885  1.0000
  C   C124      1.0  0.47985  0.65203  0.35983  1.0000
  C   C125      1.0  0.49963  0.67060  0.35558  1.0000
  C   C126      1.0  0.49280  0.69679  0.34904  1.0000
  H   H79       1.0  0.48452  0.63290  0.36111  1.0000
  H   H80       1.0  0.50698  0.71032  0.34273  1.0000
  H   H81       1.0  0.42870  0.69068  0.35436  1.0000
  N   N25       1.0  0.45960  0.72926  0.34422  1.0000
  N   N26       1.0  0.43724  0.63960  0.36448  1.0000
  N   N27       1.0  0.52403  0.66317  0.34804  1.0000
  C   C127      1.0  0.55182  0.31516  0.34989  1.0000
  C   C128      1.0  0.57098  0.33449  0.35079  1.0000
  C   C129      1.0  0.56457  0.36088  0.35464  1.0000
  C   C130      1.0  0.53854  0.36771  0.35684  1.0000
  C   C131      1.0  0.51878  0.34906  0.35535  1.0000
  C   C132      1.0  0.52578  0.32287  0.35034  1.0000
  H   H82       1.0  0.53388  0.38683  0.35743  1.0000
  H   H83       1.0  0.51166  0.30920  0.34666  1.0000
  H   H84       1.0  0.58985  0.32929  0.35021  1.0000
  N   N28       1.0  0.55913  0.29049  0.34424  1.0000
  N   N29       1.0  0.58113  0.38036  0.35911  1.0000
  N   N30       1.0  0.49404  0.35583  0.35226  1.0000
  C   C133      1.0  0.70639  0.55195  0.35178  1.0000
  C   C134      1.0  0.68792  0.57173  0.35505  1.0000
  C   C135      1.0  0.66146  0.56616  0.35615  1.0000
  C   C136      1.0  0.65365  0.54011  0.35662  1.0000
  C   C137      1.0  0.67143  0.51972  0.35404  1.0000
  C   C138      1.0  0.69775  0.52602  0.34964  1.0000
  H   H85       1.0  0.63452  0.53595  0.35834  1.0000
  H   H86       1.0  0.71083  0.51149  0.34490  1.0000
  H   H87       1.0  0.69382  0.59056  0.35600  1.0000
  N   N31       1.0  0.73112  0.55877  0.34654  1.0000
  N   N32       1.0  0.64429  0.58510  0.36285  1.0000
  N   N33       1.0  0.66382  0.49504  0.35019  1.0000
  C   C139      1.0  0.31492  0.46643  0.35155  1.0000
  C   C140      1.0  0.33395  0.44714  0.35292  1.0000
  C   C141      1.0  0.36027  0.45355  0.35721  1.0000
  C   C142      1.0  0.36736  0.47969  0.35938  1.0000
  C   C143      1.0  0.34901  0.49956  0.35736  1.0000
  C   C144      1.0  0.32288  0.49257  0.35187  1.0000
  H   H88       1.0  0.38643  0.48436  0.36034  1.0000
  H   H89       1.0  0.30943  0.50679  0.34780  1.0000
  H   H90       1.0  0.32857  0.42819  0.35240  1.0000
  N   N34       1.0  0.29027  0.45921  0.34563  1.0000
  N   N35       1.0  0.37950  0.43692  0.36214  1.0000
  N   N36       1.0  0.35597  0.52440  0.35423  1.0000
  C   C145      1.0  0.99465  0.53255  0.36218  1.0000
  C   C146      1.0  0.01013  0.52374  0.43539  1.0000
  C   C147      1.0  0.02566  0.50158  0.42639  1.0000
  O   O37       1.0  0.00942  0.53587  0.51784  1.0000
  O   O38       1.0  0.03890  0.49323  0.50074  1.0000
  H   H91       1.0  0.02384  0.54808  0.51811  1.0000
  H   H92       1.0  0.05515  0.50283  0.50098  1.0000
  C   C148      1.0  0.98087  0.55549  0.37070  1.0000
  H   H93       1.0  0.98992  0.57048  0.39799  1.0000
  C   C149      1.0  0.48703  0.99390  0.36120  1.0000
  C   C150      1.0  0.49595  0.00942  0.43448  1.0000
  C   C151      1.0  0.51818  0.02498  0.42565  1.0000
  O   O39       1.0  0.48382  0.00873  0.51685  1.0000
  O   O40       1.0  0.52661  0.03826  0.50007  1.0000
  H   H94       1.0  0.47185  0.02325  0.51708  1.0000
  H   H95       1.0  0.51724  0.05461  0.50025  1.0000
  C   C152      1.0  0.46402  0.98013  0.36952  1.0000
  H   H96       1.0  0.44920  0.98926  0.39679  1.0000
  C   C153      1.0  0.07908  0.32569  0.37072  1.0000
  C   C154      1.0  0.07926  0.30805  0.44470  1.0000
  C   C155      1.0  0.06921  0.28285  0.43510  1.0000
  O   O41       1.0  0.06868  0.26722  0.50975  1.0000
  H   H97       1.0  0.08552  0.25891  0.51254  1.0000
  O   O42       1.0  0.08826  0.31542  0.52812  1.0000
  H   H98       1.0  0.10618  0.30979  0.53086  1.0000
  C   C156      1.0  0.09102  0.34965  0.37994  1.0000
  H   H99       1.0  0.10792  0.35004  0.41113  1.0000
  C   C157      1.0  0.94084  0.69406  0.37347  1.0000
  C   C158      1.0  0.94040  0.71177  0.44722  1.0000
  C   C159      1.0  0.95030  0.73703  0.43756  1.0000
  O   O43       1.0  0.95058  0.75273  0.51203  1.0000
  H   H100      1.0  0.93370  0.76097  0.51423  1.0000
  O   O44       1.0  0.93127  0.70443  0.53049  1.0000
  H   H101      1.0  0.91331  0.70994  0.53269  1.0000
  C   C160      1.0  0.92908  0.67000  0.38267  1.0000
  H   H102      1.0  0.91216  0.66947  0.41369  1.0000
  C   C161      1.0  0.69377  0.07931  0.36994  1.0000
  C   C162      1.0  0.71136  0.07974  0.44382  1.0000
  C   C163      1.0  0.73637  0.06964  0.43456  1.0000
  O   O45       1.0  0.75194  0.06938  0.50917  1.0000
  H   H103      1.0  0.76038  0.08630  0.51115  1.0000
  O   O46       1.0  0.70412  0.08905  0.52689  1.0000
  H   H104      1.0  0.70987  0.10706  0.52889  1.0000
  C   C164      1.0  0.66998  0.09129  0.37877  1.0000
  H   H105      1.0  0.66973  0.10836  0.40930  1.0000
  C   C165      1.0  0.32556  0.94051  0.37206  1.0000
  C   C166      1.0  0.30798  0.94017  0.44597  1.0000
  C   C167      1.0  0.28299  0.95030  0.43664  1.0000
  O   O47       1.0  0.26743  0.95068  0.51127  1.0000
  H   H106      1.0  0.25894  0.93378  0.51343  1.0000
  O   O48       1.0  0.31522  0.93093  0.52913  1.0000
  H   H107      1.0  0.30944  0.91293  0.53134  1.0000
  C   C168      1.0  0.34933  0.92850  0.38093  1.0000
  H   H108      1.0  0.34956  0.91143  0.41145  1.0000
  C   C169      1.0  0.46016  0.77441  0.36646  1.0000
  C   C170      1.0  0.45638  0.79095  0.44224  1.0000
  C   C171      1.0  0.45037  0.81726  0.42982  1.0000
  O   O49       1.0  0.45840  0.78168  0.52903  1.0000
  O   O50       1.0  0.44816  0.83248  0.50509  1.0000
  H   H109      1.0  0.47592  0.78561  0.54937  1.0000
  H   H110      1.0  0.43022  0.83110  0.52466  1.0000
  C   C172      1.0  0.46959  0.74961  0.37995  1.0000
  H   H111      1.0  0.48475  0.74774  0.42051  1.0000
  C   C173      1.0  0.55895  0.24531  0.36792  1.0000
  C   C174      1.0  0.56272  0.22882  0.44391  1.0000
  C   C175      1.0  0.56874  0.20249  0.43187  1.0000
  O   O51       1.0  0.56069  0.23816  0.53059  1.0000
  O   O52       1.0  0.57093  0.18734  0.50732  1.0000
  H   H112      1.0  0.54320  0.23419  0.55104  1.0000
  H   H113      1.0  0.58889  0.18868  0.52679  1.0000
  C   C176      1.0  0.54947  0.27014  0.38117  1.0000
  H   H114      1.0  0.53447  0.27202  0.42244  1.0000
  C   C177      1.0  0.77598  0.55763  0.36749  1.0000
  C   C178      1.0  0.79246  0.56108  0.44354  1.0000
  C   C179      1.0  0.81870  0.56721  0.43153  1.0000
  O   O53       1.0  0.78318  0.55870  0.53016  1.0000
  O   O54       1.0  0.83384  0.56913  0.50695  1.0000
  H   H115      1.0  0.78685  0.54099  0.54947  1.0000
  H   H116      1.0  0.83267  0.58709  0.52731  1.0000
  C   C180      1.0  0.75122  0.54812  0.38033  1.0000
  H   H117      1.0  0.74918  0.53248  0.41882  1.0000
  C   C181      1.0  0.24532  0.45984  0.36933  1.0000
  C   C182      1.0  0.22881  0.45616  0.44522  1.0000
  C   C183      1.0  0.20246  0.45055  0.43302  1.0000
  O   O55       1.0  0.23816  0.45786  0.53195  1.0000
  O   O56       1.0  0.18734  0.44841  0.50844  1.0000
  H   H118      1.0  0.23462  0.47544  0.55292  1.0000
  H   H119      1.0  0.18826  0.43031  0.52744  1.0000
  C   C184      1.0  0.27020  0.46904  0.38284  1.0000
  H   H120      1.0  0.27236  0.48404  0.42435  1.0000
  C   C185      1.0  0.11604  0.11277  0.36092  1.0000
  C   C186      1.0  0.12570  0.09873  0.43620  1.0000
  C   C187      1.0  0.13631  0.07397  0.42388  1.0000
  O   O57       1.0  0.14323  0.06038  0.49940  1.0000
  H   H121      1.0  0.16092  0.06555  0.51337  1.0000
  O   O58       1.0  0.12316  0.10800  0.52273  1.0000
  H   H122      1.0  0.13910  0.11735  0.53619  1.0000
  C   C188      1.0  0.10471  0.13663  0.37375  1.0000
  H   H123      1.0  0.11457  0.15067  0.40367  1.0000
  C   C189      1.0  0.90338  0.90721  0.36161  1.0000
  C   C190      1.0  0.89370  0.92132  0.43672  1.0000
  C   C191      1.0  0.88312  0.94608  0.42414  1.0000
  O   O59       1.0  0.87616  0.95973  0.49948  1.0000
  H   H124      1.0  0.85846  0.95458  0.51334  1.0000
  O   O60       1.0  0.89617  0.91208  0.52333  1.0000
  H   H125      1.0  0.88020  0.90279  0.53675  1.0000
  C   C192      1.0  0.91466  0.88335  0.37470  1.0000
  H   H126      1.0  0.90475  0.86931  0.40445  1.0000
  C   C193      1.0  0.90654  0.11618  0.36016  1.0000
  C   C194      1.0  0.92065  0.12577  0.43554  1.0000
  C   C195      1.0  0.94563  0.13588  0.42357  1.0000
  O   O61       1.0  0.95921  0.14279  0.49919  1.0000
  H   H127      1.0  0.95453  0.16069  0.51240  1.0000
  O   O62       1.0  0.91116  0.12363  0.52188  1.0000
  H   H128      1.0  0.90228  0.13986  0.53453  1.0000
  C   C196      1.0  0.88250  0.10520  0.37270  1.0000
  H   H129      1.0  0.86866  0.11535  0.40186  1.0000
  C   C197      1.0  0.11279  0.90388  0.36175  1.0000
  C   C198      1.0  0.09863  0.89443  0.43722  1.0000
  C   C199      1.0  0.07365  0.88430  0.42525  1.0000
  O   O63       1.0  0.06002  0.87752  0.50088  1.0000
  H   H130      1.0  0.06470  0.85965  0.51457  1.0000
  O   O64       1.0  0.10805  0.89672  0.52361  1.0000
  H   H131      1.0  0.11693  0.88052  0.53671  1.0000
  C   C200      1.0  0.13683  0.91486  0.37428  1.0000
  H   H132      1.0  0.15065  0.90474  0.40369  1.0000
  C   C201      1.0  0.38177  0.56136  0.38151  1.0000
  C   C202      1.0  0.39110  0.57576  0.45687  1.0000
  C   C203      1.0  0.40133  0.60075  0.44475  1.0000
  O   O65       1.0  0.39020  0.56589  0.54310  1.0000
  O   O66       1.0  0.40979  0.61392  0.51944  1.0000
  H   H133      1.0  0.40706  0.55824  0.55470  1.0000
  H   H134      1.0  0.42739  0.60811  0.53075  1.0000
  C   C204      1.0  0.37505  0.53563  0.39374  1.0000
  H   H135      1.0  0.38625  0.52526  0.43441  1.0000
  C   C205      1.0  0.63700  0.45863  0.37553  1.0000
  C   C206      1.0  0.62694  0.44464  0.45071  1.0000
  C   C207      1.0  0.61652  0.41972  0.43895  1.0000
  O   O67       1.0  0.62738  0.45483  0.53653  1.0000
  O   O68       1.0  0.60747  0.40693  0.51360  1.0000
  H   H136      1.0  0.61055  0.46275  0.54626  1.0000
  H   H137      1.0  0.58987  0.41296  0.52323  1.0000
  C   C208      1.0  0.64411  0.48428  0.38742  1.0000
  H   H138      1.0  0.63282  0.49493  0.42682  1.0000
  C   C209      1.0  0.55996  0.63647  0.37513  1.0000
  C   C210      1.0  0.57621  0.62831  0.44706  1.0000
  C   C211      1.0  0.59819  0.61331  0.42927  1.0000
  O   O69       1.0  0.57045  0.63412  0.53555  1.0000
  O   O70       1.0  0.61212  0.60483  0.50189  1.0000
  H   H139      1.0  0.56135  0.61911  0.56064  1.0000
  H   H140      1.0  0.60461  0.58823  0.52005  1.0000
  C   C212      1.0  0.53571  0.64594  0.39551  1.0000
  H   H141      1.0  0.52609  0.63711  0.44530  1.0000
  C   C213      1.0  0.45727  0.38157  0.37927  1.0000
  C   C214      1.0  0.44310  0.39115  0.45451  1.0000
  C   C215      1.0  0.41827  0.40132  0.44250  1.0000
  O   O71       1.0  0.45305  0.39054  0.54059  1.0000
  O   O72       1.0  0.40533  0.40999  0.51715  1.0000
  H   H142      1.0  0.46076  0.40755  0.55143  1.0000
  H   H143      1.0  0.41123  0.42773  0.52768  1.0000
  C   C216      1.0  0.48289  0.37500  0.39133  1.0000
  H   H144      1.0  0.49327  0.38643  0.43152  1.0000
