data_image0
_chemical_formula_structural       C3OHC2HC3OHC2HC2H2C2H2CHC3NCHC4NHC2H2C2H2CHC3NCHC4NHCOH2CH2C2NHCNCHCOH2CH2C2NHCNCHC3OHC5OHC6O2H2C2H2C2H2C2H2C2H2C3H2C3H2C3HC3H2C6NC2NH2C4NC2NH2C4NC2NH2C4NC2NH2C3OHC5OHC6O2H2C2H2C2H2C2H2C2H2C3H2C3H2C3HC3H2C6NC2NH2C4NC2NH2C4NC2NH2C4NC2NH2C6O2H2C6O2H2C6O2H2C2H2C2H2C2H2C2H2C2H2C2H2C3H2C3H2C3H2C3H2C3H2C3H2C4NC2NH2C4NC2NH2C4NC2NH2C4NC2NH2C4NC2NH2C4NC2NH2C6O2H2C6O2H2C6O2H2C2H2C2H2C2H2C2H2C2H2C2H2C3H2C3H2C3H2C3H2C3H2C3H2C4NC2NH2C4NC2NH2C4NC2NH2C4NC2NH2C4NC2NH2C4NC2NH2
_chemical_formula_sum              "C336 O24 H168 N48"
_cell_length_a       46.665
_cell_length_b       46.665
_cell_length_c       14.8701
_cell_angle_alpha    90
_cell_angle_beta     90
_cell_angle_gamma    120

_space_group_name_H-M_alt    "P 1"
_space_group_IT_number       1

loop_
  _space_group_symop_operation_xyz
  'x, y, z'

loop_
  _atom_site_type_symbol
  _atom_site_label
  _atom_site_symmetry_multiplicity
  _atom_site_fract_x
  _atom_site_fract_y
  _atom_site_fract_z
  _atom_site_occupancy
  C   C1        1.0  0.02460  0.26354  0.31500  1.0000
  C   C2        1.0  0.04467  0.29925  0.31096  1.0000
  C   C3        1.0  0.07826  0.31665  0.33989  1.0000
  O   O1        1.0  0.03323  0.31920  0.28074  1.0000
  H   H1        1.0  0.02925  0.31488  0.21590  1.0000
  C   C4        1.0  0.07765  0.26355  0.34657  1.0000
  C   C5        1.0  0.04331  0.24706  0.32861  1.0000
  H   H2        1.0  0.03204  0.22218  0.33549  1.0000
  C   C6        1.0  0.02460  0.76354  0.31500  1.0000
  C   C7        1.0  0.04467  0.79925  0.31096  1.0000
  C   C8        1.0  0.07826  0.81665  0.33989  1.0000
  O   O2        1.0  0.03323  0.81920  0.28074  1.0000
  H   H3        1.0  0.02925  0.81488  0.21590  1.0000
  C   C9        1.0  0.07764  0.76355  0.34657  1.0000
  C   C10       1.0  0.04331  0.74705  0.32861  1.0000
  H   H4        1.0  0.03204  0.72218  0.33549  1.0000
  C   C11       1.0  0.10760  0.23870  0.27868  1.0000
  C   C12       1.0  0.13819  0.23922  0.27592  1.0000
  H   H5        1.0  0.14696  0.23724  0.21450  1.0000
  H   H6        1.0  0.09574  0.23641  0.21888  1.0000
  C   C13       1.0  0.13989  0.40327  0.27884  1.0000
  C   C14       1.0  0.10984  0.37265  0.27611  1.0000
  H   H7        1.0  0.09922  0.36384  0.21457  1.0000
  H   H8        1.0  0.14953  0.41500  0.21893  1.0000
  C   C15       1.0  0.09398  0.29809  0.35600  1.0000
  H   H9        1.0  0.11896  0.31043  0.36890  1.0000
  C   C16       1.0  0.14716  0.25493  0.43313  1.0000
  C   C17       1.0  0.11653  0.25453  0.43561  1.0000
  C   C18       1.0  0.09686  0.24784  0.35721  1.0000
  N   N1        1.0  0.10760  0.26301  0.51419  1.0000
  C   C19       1.0  0.12603  0.27116  0.59026  1.0000
  H   H10       1.0  0.11817  0.27730  0.64735  1.0000
  C   C20       1.0  0.09834  0.35153  0.35210  1.0000
  C   C21       1.0  0.11641  0.36385  0.43349  1.0000
  C   C22       1.0  0.14663  0.39449  0.43598  1.0000
  C   C23       1.0  0.12377  0.35492  0.58861  1.0000
  N   N2        1.0  0.10658  0.34545  0.51040  1.0000
  H   H11       1.0  0.11524  0.34011  0.64413  1.0000
  C   C24       1.0  0.10760  0.73870  0.27868  1.0000
  C   C25       1.0  0.13819  0.73921  0.27592  1.0000
  H   H12       1.0  0.14696  0.73724  0.21450  1.0000
  H   H13       1.0  0.09574  0.73640  0.21888  1.0000
  C   C26       1.0  0.13989  0.90327  0.27884  1.0000
  C   C27       1.0  0.10984  0.87265  0.27611  1.0000
  H   H14       1.0  0.09922  0.86384  0.21457  1.0000
  H   H15       1.0  0.14953  0.91500  0.21893  1.0000
  C   C28       1.0  0.09398  0.79809  0.35600  1.0000
  H   H16       1.0  0.11896  0.81042  0.36890  1.0000
  C   C29       1.0  0.14716  0.75492  0.43313  1.0000
  C   C30       1.0  0.11652  0.75453  0.43561  1.0000
  C   C31       1.0  0.09686  0.74784  0.35721  1.0000
  N   N3        1.0  0.10760  0.76301  0.51419  1.0000
  C   C32       1.0  0.12603  0.77116  0.59026  1.0000
  H   H17       1.0  0.11817  0.77730  0.64735  1.0000
  C   C33       1.0  0.09834  0.85153  0.35210  1.0000
  C   C34       1.0  0.11640  0.86385  0.43349  1.0000
  C   C35       1.0  0.14664  0.89449  0.43598  1.0000
  C   C36       1.0  0.12377  0.85492  0.58861  1.0000
  N   N4        1.0  0.10658  0.84545  0.51040  1.0000
  H   H18       1.0  0.11524  0.84011  0.64413  1.0000
  C   C37       1.0  0.19429  0.26383  0.33968  1.0000
  O   O3        1.0  0.19176  0.21622  0.28083  1.0000
  H   H19       1.0  0.19610  0.21655  0.21601  1.0000
  H   H20       1.0  0.20052  0.31078  0.36829  1.0000
  C   C38       1.0  0.19457  0.43327  0.34645  1.0000
  H   H21       1.0  0.20009  0.39193  0.36875  1.0000
  H   H22       1.0  0.19886  0.47892  0.33600  1.0000
  C   C39       1.0  0.15939  0.24904  0.35173  1.0000
  C   C40       1.0  0.15617  0.27134  0.58816  1.0000
  N   N5        1.0  0.16559  0.26355  0.50999  1.0000
  H   H23       1.0  0.17101  0.27769  0.64361  1.0000
  C   C41       1.0  0.15967  0.41412  0.35762  1.0000
  N   N6        1.0  0.16402  0.40347  0.51458  1.0000
  C   C42       1.0  0.15371  0.38508  0.59070  1.0000
  H   H24       1.0  0.16769  0.39297  0.64783  1.0000
  C   C43       1.0  0.19429  0.76384  0.33968  1.0000
  O   O4        1.0  0.19176  0.71622  0.28083  1.0000
  H   H25       1.0  0.19610  0.71655  0.21601  1.0000
  H   H26       1.0  0.20052  0.81078  0.36829  1.0000
  C   C44       1.0  0.19457  0.93327  0.34645  1.0000
  H   H27       1.0  0.20008  0.89193  0.36875  1.0000
  H   H28       1.0  0.19886  0.97891  0.33600  1.0000
  C   C45       1.0  0.15939  0.74904  0.35173  1.0000
  C   C46       1.0  0.15617  0.77134  0.58816  1.0000
  N   N7        1.0  0.16559  0.76355  0.50999  1.0000
  H   H29       1.0  0.17101  0.77768  0.64361  1.0000
  C   C47       1.0  0.15967  0.91412  0.35762  1.0000
  N   N8        1.0  0.16402  0.90347  0.51458  1.0000
  C   C48       1.0  0.15371  0.88507  0.59070  1.0000
  H   H30       1.0  0.16769  0.89297  0.64783  1.0000
  C   C49       1.0  0.48848  0.24524  0.31504  1.0000
  C   C50       1.0  0.43481  0.19213  0.33978  1.0000
  C   C51       1.0  0.46841  0.20953  0.31086  1.0000
  O   O5        1.0  0.47985  0.18960  0.28051  1.0000
  H   H31       1.0  0.48381  0.19394  0.21568  1.0000
  C   C52       1.0  0.26571  0.24542  0.31542  1.0000
  C   C53       1.0  0.31882  0.24488  0.34051  1.0000
  C   C54       1.0  0.30142  0.26106  0.31136  1.0000
  C   C55       1.0  0.24741  0.26324  0.31533  1.0000
  C   C56       1.0  0.21169  0.24761  0.31102  1.0000
  O   O6        1.0  0.32136  0.29242  0.28093  1.0000
  H   H32       1.0  0.31698  0.29203  0.21611  1.0000
  C   C57       1.0  0.26544  0.02242  0.31510  1.0000
  C   C58       1.0  0.26603  0.07610  0.33993  1.0000
  C   C59       1.0  0.24981  0.04250  0.31100  1.0000
  C   C60       1.0  0.24761  0.48630  0.31504  1.0000
  C   C61       1.0  0.26323  0.46621  0.31083  1.0000
  C   C62       1.0  0.24703  0.43262  0.33982  1.0000
  O   O7        1.0  0.21844  0.03107  0.28070  1.0000
  O   O8        1.0  0.29461  0.47765  0.28053  1.0000
  H   H33       1.0  0.21880  0.02709  0.21587  1.0000
  H   H34       1.0  0.29425  0.48164  0.21571  1.0000
  C   C63       1.0  0.27217  0.37106  0.27888  1.0000
  C   C64       1.0  0.27176  0.40119  0.27610  1.0000
  H   H35       1.0  0.27350  0.41174  0.21451  1.0000
  H   H36       1.0  0.27437  0.36143  0.21911  1.0000
  C   C65       1.0  0.40548  0.27010  0.27911  1.0000
  C   C66       1.0  0.37487  0.26956  0.27666  1.0000
  H   H37       1.0  0.36596  0.27128  0.21521  1.0000
  H   H38       1.0  0.41715  0.27215  0.21913  1.0000
  C   C67       1.0  0.24084  0.13768  0.27935  1.0000
  C   C68       1.0  0.24137  0.10762  0.27643  1.0000
  H   H39       1.0  0.23939  0.09692  0.21494  1.0000
  H   H40       1.0  0.23853  0.14728  0.21962  1.0000
  C   C69       1.0  0.37324  0.10547  0.27880  1.0000
  C   C70       1.0  0.40334  0.13603  0.27600  1.0000
  H   H41       1.0  0.41391  0.14482  0.21441  1.0000
  H   H42       1.0  0.36359  0.09363  0.21903  1.0000
  C   C71       1.0  0.46978  0.26171  0.32891  1.0000
  C   C72       1.0  0.43543  0.24522  0.34660  1.0000
  C   C73       1.0  0.41909  0.21069  0.35601  1.0000
  H   H43       1.0  0.48105  0.28659  0.33574  1.0000
  H   H44       1.0  0.39410  0.19834  0.36871  1.0000
  C   C74       1.0  0.24922  0.21023  0.32910  1.0000
  C   C75       1.0  0.26571  0.19242  0.34734  1.0000
  C   C76       1.0  0.30024  0.21063  0.35695  1.0000
  H   H45       1.0  0.22434  0.19662  0.33588  1.0000
  H   H46       1.0  0.31257  0.19798  0.36987  1.0000
  C   C77       1.0  0.21285  0.29812  0.35566  1.0000
  C   C78       1.0  0.24739  0.31630  0.34643  1.0000
  C   C79       1.0  0.26389  0.29842  0.32915  1.0000
  H   H47       1.0  0.28877  0.31201  0.33602  1.0000
  C   C80       1.0  0.30063  0.04111  0.32886  1.0000
  C   C81       1.0  0.31849  0.07547  0.34648  1.0000
  C   C82       1.0  0.30031  0.09180  0.35605  1.0000
  H   H48       1.0  0.31423  0.02983  0.33564  1.0000
  H   H49       1.0  0.31296  0.11679  0.36876  1.0000
  C   C83       1.0  0.21275  0.41691  0.35585  1.0000
  C   C84       1.0  0.21243  0.46762  0.32883  1.0000
  C   C85       1.0  0.26182  0.41252  0.35179  1.0000
  C   C86       1.0  0.25598  0.39443  0.43321  1.0000
  C   C87       1.0  0.25644  0.36422  0.43577  1.0000
  C   C88       1.0  0.26313  0.35119  0.35750  1.0000
  N   N9        1.0  0.24799  0.34682  0.51435  1.0000
  C   C89       1.0  0.23981  0.35709  0.59040  1.0000
  C   C90       1.0  0.23956  0.38701  0.58826  1.0000
  N   N10       1.0  0.24734  0.40422  0.51007  1.0000
  H   H50       1.0  0.23370  0.34311  0.64752  1.0000
  H   H51       1.0  0.23323  0.39552  0.64372  1.0000
  C   C91       1.0  0.35371  0.25967  0.35262  1.0000
  C   C92       1.0  0.36606  0.25387  0.43389  1.0000
  C   C93       1.0  0.39671  0.25430  0.43617  1.0000
  C   C94       1.0  0.41626  0.26097  0.35759  1.0000
  N   N11       1.0  0.40574  0.24586  0.51466  1.0000
  C   C95       1.0  0.38737  0.23773  0.59085  1.0000
  C   C96       1.0  0.35721  0.23750  0.58896  1.0000
  N   N12       1.0  0.34769  0.24525  0.51086  1.0000
  H   H52       1.0  0.39529  0.23161  0.64787  1.0000
  H   H53       1.0  0.34242  0.23117  0.64452  1.0000
  C   C97       1.0  0.25122  0.09619  0.35208  1.0000
  C   C98       1.0  0.25710  0.11426  0.43358  1.0000
  C   C99       1.0  0.25670  0.14449  0.43631  1.0000
  C   C100      1.0  0.24999  0.15749  0.35802  1.0000
  N   N13       1.0  0.26519  0.16186  0.51497  1.0000
  C   C101      1.0  0.27335  0.15153  0.59092  1.0000
  C   C102      1.0  0.27353  0.12157  0.58862  1.0000
  N   N14       1.0  0.26573  0.10440  0.51036  1.0000
  H   H54       1.0  0.27949  0.16549  0.64809  1.0000
  H   H55       1.0  0.27988  0.11303  0.64399  1.0000
  C   C103      1.0  0.41471  0.15723  0.35180  1.0000
  C   C104      1.0  0.39667  0.14497  0.43326  1.0000
  C   C105      1.0  0.36645  0.11432  0.43578  1.0000
  C   C106      1.0  0.35339  0.09463  0.35747  1.0000
  N   N15       1.0  0.34908  0.10536  0.51440  1.0000
  C   C107      1.0  0.35938  0.12377  0.59050  1.0000
  C   C108      1.0  0.38931  0.15393  0.58836  1.0000
  N   N16       1.0  0.40650  0.16339  0.51015  1.0000
  H   H56       1.0  0.34541  0.11588  0.64764  1.0000
  H   H57       1.0  0.39784  0.16875  0.64387  1.0000
  C   C109      1.0  0.48848  0.74524  0.31504  1.0000
  C   C110      1.0  0.43481  0.69213  0.33978  1.0000
  C   C111      1.0  0.46841  0.70953  0.31086  1.0000
  O   O9        1.0  0.47985  0.68960  0.28051  1.0000
  H   H58       1.0  0.48381  0.69394  0.21568  1.0000
  C   C112      1.0  0.26571  0.74542  0.31542  1.0000
  C   C113      1.0  0.31882  0.74488  0.34052  1.0000
  C   C114      1.0  0.30142  0.76106  0.31136  1.0000
  C   C115      1.0  0.24741  0.76324  0.31533  1.0000
  C   C116      1.0  0.21169  0.74761  0.31102  1.0000
  O   O10       1.0  0.32136  0.79242  0.28093  1.0000
  H   H59       1.0  0.31698  0.79203  0.21611  1.0000
  C   C117      1.0  0.26545  0.52242  0.31510  1.0000
  C   C118      1.0  0.26602  0.57610  0.33993  1.0000
  C   C119      1.0  0.24981  0.54250  0.31100  1.0000
  C   C120      1.0  0.24761  0.98630  0.31504  1.0000
  C   C121      1.0  0.26323  0.96621  0.31083  1.0000
  C   C122      1.0  0.24704  0.93263  0.33982  1.0000
  O   O11       1.0  0.21843  0.53107  0.28070  1.0000
  O   O12       1.0  0.29461  0.97765  0.28053  1.0000
  H   H60       1.0  0.21880  0.52709  0.21587  1.0000
  H   H61       1.0  0.29425  0.98164  0.21571  1.0000
  C   C123      1.0  0.27217  0.87106  0.27888  1.0000
  C   C124      1.0  0.27176  0.90120  0.27610  1.0000
  H   H62       1.0  0.27350  0.91174  0.21451  1.0000
  H   H63       1.0  0.27437  0.86143  0.21911  1.0000
  C   C125      1.0  0.40548  0.77010  0.27911  1.0000
  C   C126      1.0  0.37487  0.76956  0.27666  1.0000
  H   H64       1.0  0.36596  0.77128  0.21521  1.0000
  H   H65       1.0  0.41715  0.77215  0.21913  1.0000
  C   C127      1.0  0.24084  0.63768  0.27935  1.0000
  C   C128      1.0  0.24137  0.60762  0.27643  1.0000
  H   H66       1.0  0.23939  0.59691  0.21494  1.0000
  H   H67       1.0  0.23853  0.64728  0.21962  1.0000
  C   C129      1.0  0.37324  0.60547  0.27880  1.0000
  C   C130      1.0  0.40334  0.63603  0.27600  1.0000
  H   H68       1.0  0.41391  0.64482  0.21441  1.0000
  H   H69       1.0  0.36359  0.59363  0.21903  1.0000
  C   C131      1.0  0.46978  0.76171  0.32891  1.0000
  C   C132      1.0  0.43543  0.74522  0.34660  1.0000
  C   C133      1.0  0.41909  0.71069  0.35601  1.0000
  H   H70       1.0  0.48105  0.78659  0.33574  1.0000
  H   H71       1.0  0.39410  0.69834  0.36871  1.0000
  C   C134      1.0  0.24922  0.71023  0.32910  1.0000
  C   C135      1.0  0.26571  0.69241  0.34734  1.0000
  C   C136      1.0  0.30024  0.71063  0.35695  1.0000
  H   H72       1.0  0.22434  0.69663  0.33588  1.0000
  H   H73       1.0  0.31256  0.69798  0.36987  1.0000
  C   C137      1.0  0.21285  0.79812  0.35566  1.0000
  C   C138      1.0  0.24739  0.81630  0.34643  1.0000
  C   C139      1.0  0.26389  0.79842  0.32915  1.0000
  H   H74       1.0  0.28877  0.81201  0.33602  1.0000
  C   C140      1.0  0.30063  0.54111  0.32886  1.0000
  C   C141      1.0  0.31849  0.57546  0.34648  1.0000
  C   C142      1.0  0.30030  0.59180  0.35605  1.0000
  H   H75       1.0  0.31423  0.52983  0.33564  1.0000
  H   H76       1.0  0.31297  0.61679  0.36876  1.0000
  C   C143      1.0  0.21275  0.91691  0.35585  1.0000
  C   C144      1.0  0.21243  0.96762  0.32883  1.0000
  C   C145      1.0  0.26182  0.91252  0.35179  1.0000
  C   C146      1.0  0.25598  0.89443  0.43321  1.0000
  C   C147      1.0  0.25644  0.86422  0.43577  1.0000
  C   C148      1.0  0.26313  0.85119  0.35750  1.0000
  N   N17       1.0  0.24799  0.84683  0.51435  1.0000
  C   C149      1.0  0.23981  0.85709  0.59040  1.0000
  C   C150      1.0  0.23956  0.88701  0.58826  1.0000
  N   N18       1.0  0.24734  0.90422  0.51007  1.0000
  H   H77       1.0  0.23370  0.84311  0.64752  1.0000
  H   H78       1.0  0.23323  0.89552  0.64372  1.0000
  C   C151      1.0  0.35371  0.75967  0.35262  1.0000
  C   C152      1.0  0.36606  0.75387  0.43389  1.0000
  C   C153      1.0  0.39671  0.75430  0.43617  1.0000
  C   C154      1.0  0.41626  0.76096  0.35759  1.0000
  N   N19       1.0  0.40573  0.74586  0.51466  1.0000
  C   C155      1.0  0.38737  0.73773  0.59085  1.0000
  C   C156      1.0  0.35721  0.73750  0.58896  1.0000
  N   N20       1.0  0.34769  0.74525  0.51086  1.0000
  H   H79       1.0  0.39529  0.73161  0.64787  1.0000
  H   H80       1.0  0.34242  0.73117  0.64452  1.0000
  C   C157      1.0  0.25122  0.59618  0.35208  1.0000
  C   C158      1.0  0.25710  0.61426  0.43358  1.0000
  C   C159      1.0  0.25670  0.64449  0.43631  1.0000
  C   C160      1.0  0.24999  0.65748  0.35802  1.0000
  N   N21       1.0  0.26519  0.66185  0.51497  1.0000
  C   C161      1.0  0.27335  0.65153  0.59092  1.0000
  C   C162      1.0  0.27353  0.62157  0.58862  1.0000
  N   N22       1.0  0.26573  0.60440  0.51036  1.0000
  H   H81       1.0  0.27949  0.66549  0.64809  1.0000
  H   H82       1.0  0.27988  0.61303  0.64399  1.0000
  C   C163      1.0  0.41471  0.65722  0.35180  1.0000
  C   C164      1.0  0.39667  0.64497  0.43326  1.0000
  C   C165      1.0  0.36645  0.61432  0.43578  1.0000
  C   C166      1.0  0.35339  0.59463  0.35747  1.0000
  N   N23       1.0  0.34908  0.60536  0.51440  1.0000
  C   C167      1.0  0.35938  0.62377  0.59050  1.0000
  C   C168      1.0  0.38931  0.65393  0.58836  1.0000
  N   N24       1.0  0.40650  0.66339  0.51015  1.0000
  H   H83       1.0  0.34541  0.61587  0.64764  1.0000
  H   H84       1.0  0.39784  0.66875  0.64387  1.0000
  C   C169      1.0  0.98848  0.24524  0.31504  1.0000
  C   C170      1.0  0.93481  0.19213  0.33978  1.0000
  C   C171      1.0  0.96841  0.20953  0.31086  1.0000
  C   C172      1.0  0.52460  0.26354  0.31500  1.0000
  C   C173      1.0  0.54467  0.29925  0.31096  1.0000
  C   C174      1.0  0.57826  0.31665  0.33989  1.0000
  O   O13       1.0  0.97984  0.18960  0.28051  1.0000
  O   O14       1.0  0.53322  0.31920  0.28074  1.0000
  H   H85       1.0  0.98381  0.19394  0.21568  1.0000
  H   H86       1.0  0.52925  0.31488  0.21590  1.0000
  C   C175      1.0  0.76571  0.24542  0.31542  1.0000
  C   C176      1.0  0.81882  0.24488  0.34051  1.0000
  C   C177      1.0  0.80142  0.26106  0.31136  1.0000
  C   C178      1.0  0.74741  0.26324  0.31533  1.0000
  C   C179      1.0  0.71169  0.24761  0.31102  1.0000
  C   C180      1.0  0.69429  0.26383  0.33968  1.0000
  O   O15       1.0  0.82136  0.29242  0.28093  1.0000
  O   O16       1.0  0.69176  0.21622  0.28083  1.0000
  H   H87       1.0  0.81698  0.29203  0.21611  1.0000
  H   H88       1.0  0.69610  0.21655  0.21601  1.0000
  C   C181      1.0  0.76545  0.02242  0.31510  1.0000
  C   C182      1.0  0.76602  0.07610  0.33993  1.0000
  C   C183      1.0  0.74981  0.04250  0.31100  1.0000
  C   C184      1.0  0.74761  0.48630  0.31504  1.0000
  C   C185      1.0  0.76324  0.46621  0.31083  1.0000
  C   C186      1.0  0.74703  0.43262  0.33982  1.0000
  O   O17       1.0  0.71844  0.03107  0.28070  1.0000
  O   O18       1.0  0.79461  0.47765  0.28053  1.0000
  H   H89       1.0  0.71880  0.02709  0.21587  1.0000
  H   H90       1.0  0.79425  0.48164  0.21571  1.0000
  C   C187      1.0  0.60760  0.23870  0.27868  1.0000
  C   C188      1.0  0.63819  0.23922  0.27592  1.0000
  H   H91       1.0  0.64695  0.23724  0.21450  1.0000
  H   H92       1.0  0.59574  0.23641  0.21888  1.0000
  C   C189      1.0  0.77217  0.37106  0.27888  1.0000
  C   C190      1.0  0.77176  0.40119  0.27610  1.0000
  H   H93       1.0  0.77350  0.41174  0.21451  1.0000
  H   H94       1.0  0.77438  0.36143  0.21911  1.0000
  C   C191      1.0  0.63989  0.40327  0.27884  1.0000
  C   C192      1.0  0.60984  0.37265  0.27611  1.0000
  H   H95       1.0  0.59922  0.36384  0.21457  1.0000
  H   H96       1.0  0.64953  0.41500  0.21893  1.0000
  C   C193      1.0  0.90548  0.27010  0.27911  1.0000
  C   C194      1.0  0.87487  0.26956  0.27666  1.0000
  H   H97       1.0  0.86596  0.27128  0.21521  1.0000
  H   H98       1.0  0.91715  0.27215  0.21913  1.0000
  C   C195      1.0  0.74084  0.13768  0.27935  1.0000
  C   C196      1.0  0.74137  0.10762  0.27643  1.0000
  H   H99       1.0  0.73939  0.09692  0.21494  1.0000
  H   H100      1.0  0.73853  0.14728  0.21962  1.0000
  C   C197      1.0  0.87324  0.10547  0.27880  1.0000
  C   C198      1.0  0.90334  0.13603  0.27600  1.0000
  H   H101      1.0  0.91391  0.14482  0.21441  1.0000
  H   H102      1.0  0.86359  0.09363  0.21903  1.0000
  C   C199      1.0  0.96978  0.26171  0.32891  1.0000
  C   C200      1.0  0.93543  0.24522  0.34660  1.0000
  C   C201      1.0  0.91909  0.21069  0.35601  1.0000
  H   H103      1.0  0.98105  0.28659  0.33574  1.0000
  H   H104      1.0  0.89410  0.19834  0.36871  1.0000
  C   C202      1.0  0.59398  0.29809  0.35600  1.0000
  C   C203      1.0  0.57765  0.26355  0.34657  1.0000
  C   C204      1.0  0.54331  0.24706  0.32861  1.0000
  H   H105      1.0  0.61896  0.31043  0.36890  1.0000
  H   H106      1.0  0.53204  0.22218  0.33549  1.0000
  C   C205      1.0  0.74922  0.21023  0.32910  1.0000
  C   C206      1.0  0.76571  0.19242  0.34734  1.0000
  C   C207      1.0  0.80024  0.21063  0.35695  1.0000
  H   H107      1.0  0.72434  0.19662  0.33588  1.0000
  H   H108      1.0  0.81257  0.19798  0.36987  1.0000
  C   C208      1.0  0.71286  0.29812  0.35566  1.0000
  C   C209      1.0  0.74739  0.31630  0.34643  1.0000
  C   C210      1.0  0.76389  0.29842  0.32915  1.0000
  H   H109      1.0  0.70052  0.31078  0.36829  1.0000
  H   H110      1.0  0.78877  0.31201  0.33602  1.0000
  C   C211      1.0  0.80063  0.04111  0.32886  1.0000
  C   C212      1.0  0.81849  0.07547  0.34648  1.0000
  C   C213      1.0  0.80031  0.09180  0.35605  1.0000
  H   H111      1.0  0.81423  0.02983  0.33564  1.0000
  H   H112      1.0  0.81297  0.11679  0.36876  1.0000
  C   C214      1.0  0.71275  0.41691  0.35585  1.0000
  C   C215      1.0  0.69457  0.43327  0.34645  1.0000
  C   C216      1.0  0.71243  0.46762  0.32883  1.0000
  H   H113      1.0  0.70008  0.39193  0.36875  1.0000
  H   H114      1.0  0.69886  0.47892  0.33600  1.0000
  C   C217      1.0  0.65939  0.24904  0.35173  1.0000
  C   C218      1.0  0.64716  0.25493  0.43313  1.0000
  C   C219      1.0  0.61652  0.25453  0.43561  1.0000
  C   C220      1.0  0.59686  0.24784  0.35721  1.0000
  N   N25       1.0  0.60760  0.26301  0.51419  1.0000
  C   C221      1.0  0.62603  0.27116  0.59026  1.0000
  C   C222      1.0  0.65617  0.27134  0.58816  1.0000
  N   N26       1.0  0.66559  0.26355  0.50999  1.0000
  H   H115      1.0  0.61817  0.27730  0.64735  1.0000
  H   H116      1.0  0.67101  0.27769  0.64361  1.0000
  C   C223      1.0  0.76182  0.41252  0.35179  1.0000
  C   C224      1.0  0.75598  0.39443  0.43321  1.0000
  C   C225      1.0  0.75644  0.36422  0.43577  1.0000
  C   C226      1.0  0.76313  0.35119  0.35750  1.0000
  N   N27       1.0  0.74799  0.34682  0.51435  1.0000
  C   C227      1.0  0.73981  0.35709  0.59040  1.0000
  C   C228      1.0  0.73956  0.38701  0.58826  1.0000
  N   N28       1.0  0.74734  0.40422  0.51007  1.0000
  H   H117      1.0  0.73371  0.34311  0.64752  1.0000
  H   H118      1.0  0.73323  0.39552  0.64372  1.0000
  C   C229      1.0  0.59834  0.35153  0.35210  1.0000
  C   C230      1.0  0.61641  0.36385  0.43349  1.0000
  C   C231      1.0  0.64663  0.39449  0.43598  1.0000
  C   C232      1.0  0.65967  0.41412  0.35762  1.0000
  N   N29       1.0  0.66402  0.40347  0.51458  1.0000
  C   C233      1.0  0.65371  0.38508  0.59070  1.0000
  C   C234      1.0  0.62377  0.35492  0.58861  1.0000
  N   N30       1.0  0.60657  0.34545  0.51040  1.0000
  H   H119      1.0  0.66769  0.39297  0.64783  1.0000
  H   H120      1.0  0.61524  0.34011  0.64413  1.0000
  C   C235      1.0  0.85371  0.25967  0.35262  1.0000
  C   C236      1.0  0.86606  0.25387  0.43389  1.0000
  C   C237      1.0  0.89671  0.25430  0.43617  1.0000
  C   C238      1.0  0.91626  0.26097  0.35759  1.0000
  N   N31       1.0  0.90573  0.24586  0.51466  1.0000
  C   C239      1.0  0.88737  0.23773  0.59085  1.0000
  C   C240      1.0  0.85721  0.23750  0.58896  1.0000
  N   N32       1.0  0.84769  0.24525  0.51086  1.0000
  H   H121      1.0  0.89529  0.23161  0.64787  1.0000
  H   H122      1.0  0.84242  0.23117  0.64452  1.0000
  C   C241      1.0  0.75122  0.09619  0.35208  1.0000
  C   C242      1.0  0.75710  0.11426  0.43358  1.0000
  C   C243      1.0  0.75670  0.14449  0.43631  1.0000
  C   C244      1.0  0.74999  0.15749  0.35802  1.0000
  N   N33       1.0  0.76519  0.16186  0.51497  1.0000
  C   C245      1.0  0.77335  0.15153  0.59092  1.0000
  C   C246      1.0  0.77353  0.12157  0.58862  1.0000
  N   N34       1.0  0.76573  0.10440  0.51036  1.0000
  H   H123      1.0  0.77949  0.16549  0.64809  1.0000
  H   H124      1.0  0.77988  0.11303  0.64399  1.0000
  C   C247      1.0  0.91471  0.15723  0.35180  1.0000
  C   C248      1.0  0.89667  0.14497  0.43326  1.0000
  C   C249      1.0  0.86645  0.11432  0.43578  1.0000
  C   C250      1.0  0.85339  0.09463  0.35747  1.0000
  N   N35       1.0  0.84908  0.10536  0.51440  1.0000
  C   C251      1.0  0.85938  0.12377  0.59050  1.0000
  C   C252      1.0  0.88931  0.15393  0.58836  1.0000
  N   N36       1.0  0.90650  0.16339  0.51015  1.0000
  H   H125      1.0  0.84541  0.11588  0.64764  1.0000
  H   H126      1.0  0.89784  0.16875  0.64387  1.0000
  C   C253      1.0  0.98848  0.74524  0.31504  1.0000
  C   C254      1.0  0.93481  0.69213  0.33978  1.0000
  C   C255      1.0  0.96841  0.70953  0.31086  1.0000
  C   C256      1.0  0.52460  0.76354  0.31500  1.0000
  C   C257      1.0  0.54467  0.79925  0.31096  1.0000
  C   C258      1.0  0.57826  0.81665  0.33989  1.0000
  O   O19       1.0  0.97985  0.68960  0.28051  1.0000
  O   O20       1.0  0.53322  0.81920  0.28074  1.0000
  H   H127      1.0  0.98381  0.69394  0.21568  1.0000
  H   H128      1.0  0.52925  0.81488  0.21590  1.0000
  C   C259      1.0  0.76571  0.74542  0.31542  1.0000
  C   C260      1.0  0.81882  0.74488  0.34052  1.0000
  C   C261      1.0  0.80142  0.76106  0.31136  1.0000
  C   C262      1.0  0.74741  0.76324  0.31533  1.0000
  C   C263      1.0  0.71169  0.74761  0.31102  1.0000
  C   C264      1.0  0.69429  0.76384  0.33968  1.0000
  O   O21       1.0  0.82136  0.79242  0.28093  1.0000
  O   O22       1.0  0.69176  0.71622  0.28083  1.0000
  H   H129      1.0  0.81698  0.79203  0.21611  1.0000
  H   H130      1.0  0.69610  0.71655  0.21601  1.0000
  C   C265      1.0  0.76545  0.52242  0.31510  1.0000
  C   C266      1.0  0.76602  0.57610  0.33993  1.0000
  C   C267      1.0  0.74981  0.54250  0.31100  1.0000
  C   C268      1.0  0.74761  0.98630  0.31504  1.0000
  C   C269      1.0  0.76323  0.96621  0.31083  1.0000
  C   C270      1.0  0.74704  0.93263  0.33982  1.0000
  O   O23       1.0  0.71844  0.53107  0.28070  1.0000
  O   O24       1.0  0.79461  0.97765  0.28053  1.0000
  H   H131      1.0  0.71880  0.52709  0.21587  1.0000
  H   H132      1.0  0.79425  0.98164  0.21571  1.0000
  C   C271      1.0  0.60760  0.73870  0.27868  1.0000
  C   C272      1.0  0.63819  0.73921  0.27592  1.0000
  H   H133      1.0  0.64696  0.73724  0.21450  1.0000
  H   H134      1.0  0.59574  0.73640  0.21888  1.0000
  C   C273      1.0  0.77217  0.87106  0.27888  1.0000
  C   C274      1.0  0.77176  0.90120  0.27610  1.0000
  H   H135      1.0  0.77350  0.91174  0.21451  1.0000
  H   H136      1.0  0.77438  0.86143  0.21911  1.0000
  C   C275      1.0  0.63989  0.90327  0.27884  1.0000
  C   C276      1.0  0.60984  0.87265  0.27611  1.0000
  H   H137      1.0  0.59922  0.86384  0.21457  1.0000
  H   H138      1.0  0.64953  0.91500  0.21893  1.0000
  C   C277      1.0  0.90549  0.77010  0.27911  1.0000
  C   C278      1.0  0.87487  0.76956  0.27666  1.0000
  H   H139      1.0  0.86596  0.77128  0.21521  1.0000
  H   H140      1.0  0.91715  0.77215  0.21913  1.0000
  C   C279      1.0  0.74084  0.63768  0.27935  1.0000
  C   C280      1.0  0.74137  0.60762  0.27643  1.0000
  H   H141      1.0  0.73939  0.59691  0.21494  1.0000
  H   H142      1.0  0.73853  0.64728  0.21962  1.0000
  C   C281      1.0  0.87324  0.60547  0.27880  1.0000
  C   C282      1.0  0.90334  0.63603  0.27600  1.0000
  H   H143      1.0  0.91391  0.64482  0.21441  1.0000
  H   H144      1.0  0.86359  0.59363  0.21903  1.0000
  C   C283      1.0  0.96978  0.76171  0.32891  1.0000
  C   C284      1.0  0.93543  0.74522  0.34660  1.0000
  C   C285      1.0  0.91909  0.71069  0.35601  1.0000
  H   H145      1.0  0.98105  0.78659  0.33574  1.0000
  H   H146      1.0  0.89410  0.69834  0.36871  1.0000
  C   C286      1.0  0.59398  0.79809  0.35600  1.0000
  C   C287      1.0  0.57765  0.76355  0.34657  1.0000
  C   C288      1.0  0.54331  0.74705  0.32861  1.0000
  H   H147      1.0  0.61896  0.81042  0.36890  1.0000
  H   H148      1.0  0.53204  0.72218  0.33549  1.0000
  C   C289      1.0  0.74922  0.71023  0.32910  1.0000
  C   C290      1.0  0.76571  0.69241  0.34734  1.0000
  C   C291      1.0  0.80024  0.71063  0.35695  1.0000
  H   H149      1.0  0.72434  0.69663  0.33588  1.0000
  H   H150      1.0  0.81257  0.69798  0.36987  1.0000
  C   C292      1.0  0.71285  0.79812  0.35566  1.0000
  C   C293      1.0  0.74739  0.81630  0.34643  1.0000
  C   C294      1.0  0.76389  0.79842  0.32915  1.0000
  H   H151      1.0  0.70052  0.81078  0.36829  1.0000
  H   H152      1.0  0.78877  0.81201  0.33602  1.0000
  C   C295      1.0  0.80063  0.54111  0.32886  1.0000
  C   C296      1.0  0.81849  0.57546  0.34648  1.0000
  C   C297      1.0  0.80031  0.59180  0.35605  1.0000
  H   H153      1.0  0.81423  0.52983  0.33564  1.0000
  H   H154      1.0  0.81297  0.61679  0.36876  1.0000
  C   C298      1.0  0.71275  0.91691  0.35585  1.0000
  C   C299      1.0  0.69457  0.93327  0.34645  1.0000
  C   C300      1.0  0.71243  0.96762  0.32883  1.0000
  H   H155      1.0  0.70008  0.89193  0.36875  1.0000
  H   H156      1.0  0.69886  0.97891  0.33600  1.0000
  C   C301      1.0  0.65939  0.74904  0.35173  1.0000
  C   C302      1.0  0.64716  0.75492  0.43313  1.0000
  C   C303      1.0  0.61652  0.75453  0.43561  1.0000
  C   C304      1.0  0.59686  0.74784  0.35721  1.0000
  N   N37       1.0  0.60760  0.76301  0.51419  1.0000
  C   C305      1.0  0.62603  0.77116  0.59026  1.0000
  C   C306      1.0  0.65617  0.77134  0.58816  1.0000
  N   N38       1.0  0.66559  0.76355  0.50999  1.0000
  H   H157      1.0  0.61817  0.77730  0.64735  1.0000
  H   H158      1.0  0.67101  0.77768  0.64361  1.0000
  C   C307      1.0  0.76182  0.91252  0.35179  1.0000
  C   C308      1.0  0.75598  0.89443  0.43321  1.0000
  C   C309      1.0  0.75644  0.86422  0.43577  1.0000
  C   C310      1.0  0.76313  0.85119  0.35750  1.0000
  N   N39       1.0  0.74799  0.84683  0.51435  1.0000
  C   C311      1.0  0.73981  0.85709  0.59040  1.0000
  C   C312      1.0  0.73956  0.88701  0.58826  1.0000
  N   N40       1.0  0.74734  0.90422  0.51007  1.0000
  H   H159      1.0  0.73371  0.84311  0.64752  1.0000
  H   H160      1.0  0.73323  0.89552  0.64372  1.0000
  C   C313      1.0  0.59834  0.85153  0.35210  1.0000
  C   C314      1.0  0.61641  0.86385  0.43349  1.0000
  C   C315      1.0  0.64663  0.89449  0.43598  1.0000
  C   C316      1.0  0.65967  0.91412  0.35762  1.0000
  N   N41       1.0  0.66402  0.90347  0.51458  1.0000
  C   C317      1.0  0.65371  0.88507  0.59070  1.0000
  C   C318      1.0  0.62377  0.85492  0.58861  1.0000
  N   N42       1.0  0.60657  0.84545  0.51040  1.0000
  H   H161      1.0  0.66769  0.89297  0.64783  1.0000
  H   H162      1.0  0.61524  0.84011  0.64413  1.0000
  C   C319      1.0  0.85371  0.75967  0.35262  1.0000
  C   C320      1.0  0.86606  0.75387  0.43389  1.0000
  C   C321      1.0  0.89671  0.75430  0.43617  1.0000
  C   C322      1.0  0.91626  0.76096  0.35759  1.0000
  N   N43       1.0  0.90573  0.74586  0.51466  1.0000
  C   C323      1.0  0.88738  0.73773  0.59085  1.0000
  C   C324      1.0  0.85720  0.73750  0.58896  1.0000
  N   N44       1.0  0.84769  0.74525  0.51086  1.0000
  H   H163      1.0  0.89529  0.73161  0.64787  1.0000
  H   H164      1.0  0.84242  0.73117  0.64452  1.0000
  C   C325      1.0  0.75122  0.59618  0.35208  1.0000
  C   C326      1.0  0.75711  0.61426  0.43358  1.0000
  C   C327      1.0  0.75670  0.64449  0.43631  1.0000
  C   C328      1.0  0.74999  0.65748  0.35802  1.0000
  N   N45       1.0  0.76519  0.66185  0.51497  1.0000
  C   C329      1.0  0.77335  0.65153  0.59092  1.0000
  C   C330      1.0  0.77353  0.62157  0.58862  1.0000
  N   N46       1.0  0.76573  0.60440  0.51036  1.0000
  H   H165      1.0  0.77950  0.66549  0.64809  1.0000
  H   H166      1.0  0.77988  0.61303  0.64399  1.0000
  C   C331      1.0  0.91471  0.65722  0.35180  1.0000
  C   C332      1.0  0.89667  0.64497  0.43326  1.0000
  C   C333      1.0  0.86646  0.61432  0.43578  1.0000
  C   C334      1.0  0.85340  0.59463  0.35747  1.0000
  N   N47       1.0  0.84908  0.60536  0.51440  1.0000
  C   C335      1.0  0.85938  0.62377  0.59050  1.0000
  C   C336      1.0  0.88931  0.65393  0.58836  1.0000
  N   N48       1.0  0.90650  0.66339  0.51015  1.0000
  H   H167      1.0  0.84541  0.61587  0.64764  1.0000
  H   H168      1.0  0.89784  0.66875  0.64387  1.0000
