data_image0
_chemical_formula_structural       C3OHNC3HC5HOHC4HC6HOHOHC4HC6HOHOHCNCHNHCNCHNHCNCHNHCNCHNHCNCHNHCNCHNHC24H15C24H15C24H15C24H15C24H15C24H15CHNHCNCHNHCNCHNHC4HC6HOHOHC4HC6HOHOHC4HC6HOHOHC4HC6HOHOHC4HC6HOHOHC4HC6HOHOH
_chemical_formula_sum              "C252 O18 H144 N18"
_cell_length_a       77.0034
_cell_length_b       77.0033
_cell_length_c       14.9836
_cell_angle_alpha    90
_cell_angle_beta     90
_cell_angle_gamma    120

_space_group_name_H-M_alt    "P 1"
_space_group_IT_number       1

loop_
  _space_group_symop_operation_xyz
  'x, y, z'

loop_
  _atom_site_type_symbol
  _atom_site_label
  _atom_site_symmetry_multiplicity
  _atom_site_fract_x
  _atom_site_fract_y
  _atom_site_fract_z
  _atom_site_occupancy
  C   C1        1.0  0.01147  0.50575  0.32597  1.0000
  C   C2        1.0  0.01151  0.50443  0.16262  1.0000
  C   C3        1.0  0.02222  0.51043  0.24421  1.0000
  O   O1        1.0  0.02134  0.50826  0.08310  1.0000
  H   H1        1.0  0.02337  0.52130  0.06286  1.0000
  N   N1        1.0  0.02181  0.51154  0.40406  1.0000
  C   C4        1.0  0.04211  0.52167  0.40875  1.0000
  C   C5        1.0  0.05383  0.52697  0.33017  1.0000
  C   C6        1.0  0.04342  0.52107  0.24787  1.0000
  H   H2        1.0  0.05144  0.52435  0.18975  1.0000
  C   C7        1.0  0.99030  0.49513  0.32588  1.0000
  C   C8        1.0  0.94791  0.47376  0.32977  1.0000
  C   C9        1.0  0.95838  0.47833  0.24757  1.0000
  C   C10       1.0  0.97959  0.48904  0.24404  1.0000
  C   C11       1.0  0.99033  0.49381  0.16254  1.0000
  H   H3        1.0  0.95041  0.47412  0.18923  1.0000
  O   O2        1.0  0.98054  0.48777  0.08296  1.0000
  H   H4        1.0  0.97854  0.49877  0.06234  1.0000
  C   C12       1.0  0.47399  0.52661  0.33005  1.0000
  C   C13       1.0  0.49539  0.50561  0.32588  1.0000
  C   C14       1.0  0.48929  0.51025  0.24411  1.0000
  C   C15       1.0  0.47858  0.52075  0.24778  1.0000
  H   H5        1.0  0.47437  0.52453  0.18949  1.0000
  C   C16       1.0  0.50600  0.49506  0.32584  1.0000
  C   C17       1.0  0.52722  0.47391  0.32978  1.0000
  C   C18       1.0  0.52133  0.47846  0.24754  1.0000
  C   C19       1.0  0.51069  0.48903  0.24400  1.0000
  C   C20       1.0  0.50470  0.49376  0.16249  1.0000
  C   C21       1.0  0.49408  0.50433  0.16254  1.0000
  H   H6        1.0  0.52460  0.47373  0.18936  1.0000
  O   O3        1.0  0.50854  0.48780  0.08289  1.0000
  H   H7        1.0  0.52157  0.49881  0.06269  1.0000
  O   O4        1.0  0.48804  0.50810  0.08301  1.0000
  H   H8        1.0  0.49903  0.52111  0.06251  1.0000
  C   C22       1.0  0.47471  0.94760  0.33009  1.0000
  C   C23       1.0  0.49571  0.98999  0.32595  1.0000
  C   C24       1.0  0.49108  0.97925  0.24417  1.0000
  C   C25       1.0  0.48059  0.95805  0.24783  1.0000
  H   H9        1.0  0.47681  0.95006  0.18953  1.0000
  C   C26       1.0  0.50626  0.01116  0.32592  1.0000
  C   C27       1.0  0.52741  0.05353  0.32989  1.0000
  C   C28       1.0  0.52288  0.04309  0.24764  1.0000
  C   C29       1.0  0.51231  0.02188  0.24409  1.0000
  C   C30       1.0  0.50758  0.01116  0.16258  1.0000
  C   C31       1.0  0.49701  0.98997  0.16261  1.0000
  H   H10       1.0  0.52760  0.05109  0.18947  1.0000
  O   O5        1.0  0.51356  0.02096  0.08299  1.0000
  H   H11       1.0  0.50255  0.02299  0.06277  1.0000
  O   O6        1.0  0.49326  0.98016  0.08308  1.0000
  H   H12       1.0  0.48026  0.97816  0.06249  1.0000
  C   C32       1.0  0.23107  0.53258  0.26203  1.0000
  N   N2        1.0  0.24760  0.53070  0.26810  1.0000
  C   C33       1.0  0.30221  0.53288  0.26277  1.0000
  H   H13       1.0  0.22530  0.53205  0.20002  1.0000
  N   N3        1.0  0.28373  0.53085  0.26847  1.0000
  H   H14       1.0  0.30752  0.53235  0.20091  1.0000
  C   C34       1.0  0.46878  0.69874  0.26154  1.0000
  N   N4        1.0  0.47068  0.71716  0.26775  1.0000
  C   C35       1.0  0.46854  0.76961  0.26277  1.0000
  H   H15       1.0  0.46936  0.69353  0.19952  1.0000
  N   N5        1.0  0.47054  0.75314  0.26837  1.0000
  H   H16       1.0  0.46905  0.77545  0.20092  1.0000
  C   C36       1.0  0.30261  0.77022  0.26139  1.0000
  N   N6        1.0  0.28419  0.75370  0.26751  1.0000
  C   C37       1.0  0.23170  0.69914  0.26223  1.0000
  H   H17       1.0  0.30782  0.77604  0.19941  1.0000
  N   N7        1.0  0.24818  0.71760  0.26793  1.0000
  H   H18       1.0  0.22586  0.69385  0.20037  1.0000
  C   C38       1.0  0.77051  0.46849  0.26100  1.0000
  N   N8        1.0  0.75398  0.47037  0.26712  1.0000
  C   C39       1.0  0.69940  0.46826  0.26177  1.0000
  H   H19       1.0  0.77633  0.46910  0.19904  1.0000
  N   N9        1.0  0.71786  0.47025  0.26751  1.0000
  H   H20       1.0  0.69413  0.46885  0.19990  1.0000
  C   C40       1.0  0.53288  0.30228  0.26145  1.0000
  N   N10       1.0  0.53100  0.28387  0.26742  1.0000
  C   C41       1.0  0.53311  0.23141  0.26171  1.0000
  H   H21       1.0  0.53231  0.30753  0.19948  1.0000
  N   N11       1.0  0.53112  0.24787  0.26755  1.0000
  H   H22       1.0  0.53254  0.22556  0.19982  1.0000
  C   C42       1.0  0.69904  0.23083  0.26144  1.0000
  N   N12       1.0  0.71745  0.24735  0.26751  1.0000
  C   C43       1.0  0.76991  0.30193  0.26213  1.0000
  H   H23       1.0  0.69382  0.22501  0.19946  1.0000
  N   N13       1.0  0.75345  0.28347  0.26786  1.0000
  H   H24       1.0  0.77575  0.30723  0.20025  1.0000
  C   C44       1.0  0.17183  0.60227  0.33439  1.0000
  C   C45       1.0  0.15066  0.59157  0.33841  1.0000
  C   C46       1.0  0.13967  0.57032  0.34004  1.0000
  C   C47       1.0  0.15042  0.55981  0.33887  1.0000
  C   C48       1.0  0.17158  0.57005  0.33442  1.0000
  C   C49       1.0  0.18197  0.59123  0.33323  1.0000
  C   C50       1.0  0.11825  0.55970  0.33904  1.0000
  C   C51       1.0  0.10758  0.56497  0.27824  1.0000
  C   C52       1.0  0.08649  0.55423  0.27537  1.0000
  C   C53       1.0  0.07525  0.53791  0.33364  1.0000
  C   C54       1.0  0.08592  0.53274  0.39496  1.0000
  C   C55       1.0  0.10703  0.54336  0.39723  1.0000
  C   C56       1.0  0.18304  0.62363  0.33014  1.0000
  C   C57       1.0  0.18035  0.63568  0.39360  1.0000
  C   C58       1.0  0.19325  0.65663  0.39515  1.0000
  C   C59       1.0  0.20903  0.66626  0.33247  1.0000
  C   C60       1.0  0.21111  0.65418  0.26689  1.0000
  C   C61       1.0  0.19837  0.63329  0.26571  1.0000
  C   C62       1.0  0.18256  0.55967  0.32961  1.0000
  C   C63       1.0  0.19786  0.56524  0.26510  1.0000
  C   C64       1.0  0.21048  0.55695  0.26614  1.0000
  C   C65       1.0  0.20831  0.54275  0.33168  1.0000
  C   C66       1.0  0.19251  0.53665  0.39426  1.0000
  C   C67       1.0  0.17972  0.54483  0.39282  1.0000
  H   H25       1.0  0.19129  0.66478  0.44401  1.0000
  H   H26       1.0  0.16970  0.62919  0.44246  1.0000
  H   H27       1.0  0.22266  0.66030  0.22193  1.0000
  H   H28       1.0  0.20083  0.62511  0.21868  1.0000
  H   H29       1.0  0.20042  0.57594  0.21822  1.0000
  H   H30       1.0  0.22206  0.56236  0.22133  1.0000
  H   H31       1.0  0.16911  0.54075  0.44175  1.0000
  H   H32       1.0  0.19049  0.52652  0.44310  1.0000
  H   H33       1.0  0.11415  0.53914  0.44265  1.0000
  H   H34       1.0  0.07841  0.52087  0.43751  1.0000
  H   H35       1.0  0.07941  0.55866  0.23067  1.0000
  H   H36       1.0  0.11509  0.57647  0.23392  1.0000
  H   H37       1.0  0.14315  0.59941  0.33892  1.0000
  H   H38       1.0  0.19734  0.59883  0.33277  1.0000
  H   H39       1.0  0.14272  0.54446  0.33702  1.0000
  C   C68       1.0  0.39908  0.56988  0.33479  1.0000
  C   C69       1.0  0.40973  0.55936  0.33892  1.0000
  C   C70       1.0  0.43099  0.56954  0.33972  1.0000
  C   C71       1.0  0.44153  0.59080  0.33785  1.0000
  C   C72       1.0  0.43135  0.60179  0.33364  1.0000
  C   C73       1.0  0.41017  0.59105  0.33306  1.0000
  C   C74       1.0  0.44154  0.55864  0.33876  1.0000
  C   C75       1.0  0.43566  0.54210  0.28081  1.0000
  C   C76       1.0  0.44625  0.53161  0.27817  1.0000
  C   C77       1.0  0.46313  0.53718  0.33356  1.0000
  C   C78       1.0  0.46894  0.55365  0.39191  1.0000
  C   C79       1.0  0.45841  0.56422  0.39420  1.0000
  C   C80       1.0  0.37772  0.55978  0.33079  1.0000
  C   C81       1.0  0.36567  0.54502  0.39421  1.0000
  C   C82       1.0  0.34471  0.53695  0.39573  1.0000
  C   C83       1.0  0.33508  0.54311  0.33306  1.0000
  C   C84       1.0  0.34716  0.55728  0.26752  1.0000
  C   C85       1.0  0.36805  0.56544  0.26636  1.0000
  C   C86       1.0  0.44177  0.62314  0.32865  1.0000
  C   C87       1.0  0.43621  0.63288  0.26415  1.0000
  C   C88       1.0  0.44446  0.65378  0.26541  1.0000
  C   C89       1.0  0.45865  0.66580  0.33097  1.0000
  C   C90       1.0  0.46477  0.65610  0.39346  1.0000
  C   C91       1.0  0.45658  0.63513  0.39197  1.0000
  H   H40       1.0  0.33657  0.52683  0.44455  1.0000
  H   H41       1.0  0.37216  0.54085  0.44303  1.0000
  H   H42       1.0  0.34103  0.56270  0.22259  1.0000
  H   H43       1.0  0.37622  0.57607  0.21931  1.0000
  H   H44       1.0  0.42549  0.62474  0.21736  1.0000
  H   H45       1.0  0.43905  0.65995  0.22062  1.0000
  H   H46       1.0  0.46067  0.62859  0.44086  1.0000
  H   H47       1.0  0.47488  0.66420  0.44240  1.0000
  H   H48       1.0  0.46310  0.57598  0.43766  1.0000
  H   H49       1.0  0.48122  0.55841  0.43226  1.0000
  H   H50       1.0  0.44132  0.51965  0.23572  1.0000
  H   H51       1.0  0.42377  0.53773  0.23836  1.0000
  H   H52       1.0  0.40182  0.54401  0.34009  1.0000
  H   H53       1.0  0.40261  0.59886  0.33264  1.0000
  H   H54       1.0  0.45688  0.59844  0.33539  1.0000
  C   C92       1.0  0.43147  0.82941  0.33498  1.0000
  C   C93       1.0  0.44198  0.85058  0.33910  1.0000
  C   C94       1.0  0.43179  0.86166  0.33982  1.0000
  C   C95       1.0  0.41053  0.85093  0.33796  1.0000
  C   C96       1.0  0.39955  0.82976  0.33378  1.0000
  C   C97       1.0  0.41030  0.81932  0.33322  1.0000
  C   C98       1.0  0.44269  0.88310  0.33884  1.0000
  C   C99       1.0  0.45923  0.89376  0.28093  1.0000
  C   C100      1.0  0.46972  0.91485  0.27824  1.0000
  C   C101      1.0  0.46414  0.92616  0.33360  1.0000
  C   C102      1.0  0.44767  0.91551  0.39194  1.0000
  C   C103      1.0  0.43710  0.89439  0.39424  1.0000
  C   C104      1.0  0.44157  0.81816  0.33100  1.0000
  C   C105      1.0  0.45633  0.82087  0.39443  1.0000
  C   C106      1.0  0.46440  0.80798  0.39594  1.0000
  C   C107      1.0  0.45828  0.79222  0.33316  1.0000
  C   C108      1.0  0.44410  0.79012  0.26763  1.0000
  C   C109      1.0  0.43593  0.80285  0.26648  1.0000
  C   C110      1.0  0.37820  0.81882  0.32876  1.0000
  C   C111      1.0  0.36847  0.80354  0.26417  1.0000
  C   C112      1.0  0.34757  0.79089  0.26528  1.0000
  C   C113      1.0  0.33554  0.79302  0.33097  1.0000
  C   C114      1.0  0.34523  0.80881  0.39358  1.0000
  C   C115      1.0  0.36620  0.82161  0.39216  1.0000
  H   H55       1.0  0.47452  0.80996  0.44473  1.0000
  H   H56       1.0  0.46048  0.83151  0.44328  1.0000
  H   H57       1.0  0.43869  0.77858  0.22266  1.0000
  H   H58       1.0  0.42529  0.80038  0.21945  1.0000
  H   H59       1.0  0.37663  0.80098  0.21736  1.0000
  H   H60       1.0  0.34141  0.77931  0.22053  1.0000
  H   H61       1.0  0.37273  0.83224  0.44104  1.0000
  H   H62       1.0  0.33712  0.81081  0.44251  1.0000
  H   H63       1.0  0.42533  0.88733  0.43766  1.0000
  H   H64       1.0  0.44290  0.92302  0.43223  1.0000
  H   H65       1.0  0.48168  0.92188  0.23578  1.0000
  H   H66       1.0  0.46360  0.88625  0.23845  1.0000
  H   H67       1.0  0.45733  0.85803  0.34025  1.0000
  H   H68       1.0  0.40249  0.80395  0.33282  1.0000
  H   H69       1.0  0.40289  0.85864  0.33547  1.0000
  C   C116      1.0  0.82973  0.39883  0.33402  1.0000
  C   C117      1.0  0.85089  0.40949  0.33821  1.0000
  C   C118      1.0  0.86196  0.43075  0.33904  1.0000
  C   C119      1.0  0.85123  0.44128  0.33721  1.0000
  C   C120      1.0  0.83006  0.43108  0.33298  1.0000
  C   C121      1.0  0.81963  0.40990  0.33230  1.0000
  C   C122      1.0  0.88341  0.44131  0.33813  1.0000
  C   C123      1.0  0.89408  0.43543  0.28027  1.0000
  C   C124      1.0  0.91517  0.44603  0.27770  1.0000
  C   C125      1.0  0.92647  0.46290  0.33315  1.0000
  C   C126      1.0  0.91580  0.46871  0.39143  1.0000
  C   C127      1.0  0.89469  0.45817  0.39362  1.0000
  C   C128      1.0  0.81849  0.37747  0.33004  1.0000
  C   C129      1.0  0.82118  0.36544  0.39360  1.0000
  C   C130      1.0  0.80831  0.34448  0.39508  1.0000
  C   C131      1.0  0.79256  0.33483  0.33232  1.0000
  C   C132      1.0  0.79047  0.34689  0.26668  1.0000
  C   C133      1.0  0.80318  0.36779  0.26554  1.0000
  C   C134      1.0  0.81910  0.44148  0.32808  1.0000
  C   C135      1.0  0.80381  0.43592  0.26355  1.0000
  C   C136      1.0  0.79115  0.44416  0.26480  1.0000
  C   C137      1.0  0.79328  0.45831  0.33054  1.0000
  C   C138      1.0  0.80907  0.46441  0.39314  1.0000
  C   C139      1.0  0.82189  0.45626  0.39155  1.0000
  H   H70       1.0  0.81030  0.33634  0.44392  1.0000
  H   H71       1.0  0.83185  0.37193  0.44234  1.0000
  H   H72       1.0  0.77890  0.34076  0.22180  1.0000
  H   H73       1.0  0.80071  0.37596  0.21849  1.0000
  H   H74       1.0  0.80128  0.42525  0.21658  1.0000
  H   H75       1.0  0.77959  0.43878  0.21990  1.0000
  H   H76       1.0  0.83251  0.46034  0.44045  1.0000
  H   H77       1.0  0.81107  0.47451  0.44209  1.0000
  H   H78       1.0  0.88762  0.46287  0.43702  1.0000
  H   H79       1.0  0.92330  0.48099  0.43178  1.0000
  H   H80       1.0  0.92221  0.44110  0.23530  1.0000
  H   H81       1.0  0.88658  0.42356  0.23775  1.0000
  H   H82       1.0  0.85835  0.40159  0.33936  1.0000
  H   H83       1.0  0.80426  0.40233  0.33188  1.0000
  H   H84       1.0  0.85893  0.45663  0.33483  1.0000
  C   C140      1.0  0.60252  0.43122  0.33365  1.0000
  C   C141      1.0  0.59181  0.44168  0.33772  1.0000
  C   C142      1.0  0.57055  0.43140  0.33934  1.0000
  C   C143      1.0  0.56006  0.41014  0.33823  1.0000
  C   C144      1.0  0.57031  0.39923  0.33372  1.0000
  C   C145      1.0  0.59150  0.41004  0.33247  1.0000
  C   C146      1.0  0.55993  0.44220  0.33836  1.0000
  C   C147      1.0  0.56520  0.45815  0.27763  1.0000
  C   C148      1.0  0.55447  0.46851  0.27483  1.0000
  C   C149      1.0  0.53815  0.46342  0.33314  1.0000
  C   C150      1.0  0.53298  0.44757  0.39439  1.0000
  C   C151      1.0  0.54359  0.43707  0.39656  1.0000
  C   C152      1.0  0.62387  0.44138  0.32945  1.0000
  C   C153      1.0  0.63591  0.45608  0.39307  1.0000
  C   C154      1.0  0.65687  0.46415  0.39462  1.0000
  C   C155      1.0  0.66651  0.45803  0.33186  1.0000
  C   C156      1.0  0.65444  0.44388  0.26623  1.0000
  C   C157      1.0  0.63355  0.43574  0.26496  1.0000
  C   C158      1.0  0.55995  0.37787  0.32897  1.0000
  C   C159      1.0  0.56550  0.36814  0.26438  1.0000
  C   C160      1.0  0.55725  0.34724  0.26553  1.0000
  C   C161      1.0  0.54308  0.33522  0.33118  1.0000
  C   C162      1.0  0.53699  0.34490  0.39381  1.0000
  C   C163      1.0  0.54517  0.36588  0.39240  1.0000
  H   H85       1.0  0.66500  0.47426  0.44350  1.0000
  H   H86       1.0  0.62942  0.46025  0.44184  1.0000
  H   H87       1.0  0.66057  0.43847  0.22125  1.0000
  H   H88       1.0  0.62538  0.42510  0.21791  1.0000
  H   H89       1.0  0.57617  0.37629  0.21740  1.0000
  H   H90       1.0  0.56263  0.34107  0.22059  1.0000
  H   H91       1.0  0.54107  0.37241  0.44128  1.0000
  H   H92       1.0  0.52688  0.33680  0.44275  1.0000
  H   H93       1.0  0.53936  0.42572  0.44194  1.0000
  H   H94       1.0  0.52111  0.44320  0.43694  1.0000
  H   H95       1.0  0.55889  0.48002  0.23017  1.0000
  H   H96       1.0  0.57670  0.46215  0.23327  1.0000
  H   H97       1.0  0.59964  0.45703  0.33820  1.0000
  H   H98       1.0  0.59910  0.40228  0.33201  1.0000
  H   H99       1.0  0.54471  0.40248  0.33635  1.0000
  C   C164      1.0  0.57011  0.17152  0.33347  1.0000
  C   C165      1.0  0.55965  0.15035  0.33762  1.0000
  C   C166      1.0  0.56991  0.13936  0.33930  1.0000
  C   C167      1.0  0.59117  0.15011  0.33812  1.0000
  C   C168      1.0  0.60209  0.17128  0.33352  1.0000
  C   C169      1.0  0.59129  0.18166  0.33225  1.0000
  C   C170      1.0  0.55910  0.11794  0.33838  1.0000
  C   C171      1.0  0.54316  0.10726  0.27764  1.0000
  C   C172      1.0  0.53280  0.08617  0.27492  1.0000
  C   C173      1.0  0.53788  0.07494  0.33324  1.0000
  C   C174      1.0  0.55373  0.08562  0.39452  1.0000
  C   C175      1.0  0.56424  0.10673  0.39663  1.0000
  C   C176      1.0  0.55996  0.18273  0.32929  1.0000
  C   C177      1.0  0.54524  0.18004  0.39284  1.0000
  C   C178      1.0  0.53717  0.19293  0.39441  1.0000
  C   C179      1.0  0.54332  0.20871  0.33177  1.0000
  C   C180      1.0  0.55748  0.21080  0.26615  1.0000
  C   C181      1.0  0.56563  0.19806  0.26490  1.0000
  C   C182      1.0  0.62345  0.18226  0.32875  1.0000
  C   C183      1.0  0.63318  0.19754  0.26416  1.0000
  C   C184      1.0  0.65409  0.21018  0.26528  1.0000
  C   C185      1.0  0.66610  0.20806  0.33104  1.0000
  C   C186      1.0  0.65641  0.19229  0.39370  1.0000
  C   C187      1.0  0.63544  0.17948  0.39221  1.0000
  H   H100      1.0  0.52705  0.19094  0.44324  1.0000
  H   H101      1.0  0.54105  0.16936  0.44155  1.0000
  H   H102      1.0  0.56289  0.22235  0.22121  1.0000
  H   H103      1.0  0.57625  0.20052  0.21781  1.0000
  H   H104      1.0  0.62504  0.20007  0.21718  1.0000
  H   H105      1.0  0.66025  0.22175  0.22043  1.0000
  H   H106      1.0  0.62890  0.16886  0.44110  1.0000
  H   H107      1.0  0.66451  0.19028  0.44264  1.0000
  H   H108      1.0  0.57559  0.11386  0.44200  1.0000
  H   H109      1.0  0.55810  0.07813  0.43706  1.0000
  H   H110      1.0  0.52128  0.07908  0.23026  1.0000
  H   H111      1.0  0.53915  0.11475  0.23331  1.0000
  H   H112      1.0  0.54429  0.14284  0.33813  1.0000
  H   H113      1.0  0.59906  0.19703  0.33176  1.0000
  H   H114      1.0  0.59883  0.14242  0.33627  1.0000
  C   C188      1.0  0.95962  0.48039  0.40836  1.0000
  H   H115      1.0  0.04865  0.52571  0.47031  1.0000
  N   N14       1.0  0.97992  0.49054  0.40387  1.0000
  H   H116      1.0  0.95308  0.47732  0.47003  1.0000
  C   C189      1.0  0.48062  0.52150  0.40857  1.0000
  N   N15       1.0  0.49079  0.51136  0.40395  1.0000
  C   C190      1.0  0.52192  0.48031  0.40843  1.0000
  H   H117      1.0  0.47756  0.52496  0.47028  1.0000
  N   N16       1.0  0.51179  0.49048  0.40387  1.0000
  H   H118      1.0  0.52595  0.47779  0.46995  1.0000
  C   C191      1.0  0.47981  0.95934  0.40861  1.0000
  N   N17       1.0  0.48995  0.97963  0.40400  1.0000
  C   C192      1.0  0.52100  0.04182  0.40853  1.0000
  H   H119      1.0  0.47635  0.95281  0.47031  1.0000
  N   N18       1.0  0.51083  0.02152  0.40396  1.0000
  H   H120      1.0  0.52351  0.04838  0.47005  1.0000
  C   C193      1.0  0.22302  0.53667  0.33878  1.0000
  C   C194      1.0  0.25703  0.53189  0.34638  1.0000
  C   C195      1.0  0.24916  0.53484  0.42705  1.0000
  C   C196      1.0  0.23203  0.53708  0.42181  1.0000
  H   H121      1.0  0.22702  0.54062  0.47837  1.0000
  C   C197      1.0  0.27538  0.53196  0.34657  1.0000
  C   C198      1.0  0.31428  0.53701  0.33977  1.0000
  C   C199      1.0  0.30558  0.53735  0.42259  1.0000
  C   C200      1.0  0.28615  0.53498  0.42744  1.0000
  C   C201      1.0  0.27765  0.53661  0.50863  1.0000
  C   C202      1.0  0.25926  0.53654  0.50844  1.0000
  H   H122      1.0  0.31409  0.54092  0.47932  1.0000
  O   O7        1.0  0.28759  0.53966  0.58742  1.0000
  H   H123      1.0  0.28352  0.52626  0.61120  1.0000
  O   O8        1.0  0.25226  0.53953  0.58705  1.0000
  H   H124      1.0  0.24295  0.52611  0.61069  1.0000
  C   C203      1.0  0.46470  0.68659  0.33823  1.0000
  C   C204      1.0  0.46948  0.72537  0.34608  1.0000
  C   C205      1.0  0.46652  0.71453  0.42667  1.0000
  C   C206      1.0  0.46429  0.69516  0.42131  1.0000
  H   H125      1.0  0.46072  0.68658  0.47782  1.0000
  C   C207      1.0  0.46940  0.74365  0.34640  1.0000
  C   C208      1.0  0.46437  0.77752  0.33979  1.0000
  C   C209      1.0  0.46401  0.76844  0.42257  1.0000
  C   C210      1.0  0.46637  0.75138  0.42731  1.0000
  C   C211      1.0  0.46471  0.74121  0.50843  1.0000
  C   C212      1.0  0.46478  0.72289  0.50811  1.0000
  H   H126      1.0  0.46042  0.77337  0.47931  1.0000
  O   O9        1.0  0.46164  0.74807  0.58726  1.0000
  H   H127      1.0  0.47504  0.75740  0.61109  1.0000
  O   O10       1.0  0.46179  0.71287  0.58665  1.0000
  H   H128      1.0  0.47521  0.71702  0.61043  1.0000
  C   C213      1.0  0.31475  0.77828  0.33810  1.0000
  C   C214      1.0  0.27596  0.74426  0.34578  1.0000
  C   C215      1.0  0.28680  0.75211  0.42641  1.0000
  C   C216      1.0  0.30619  0.76923  0.42110  1.0000
  H   H129      1.0  0.31474  0.77425  0.47768  1.0000
  C   C217      1.0  0.25766  0.72592  0.34600  1.0000
  C   C218      1.0  0.22375  0.68706  0.33920  1.0000
  C   C219      1.0  0.23283  0.69573  0.42201  1.0000
  C   C220      1.0  0.24993  0.71514  0.42684  1.0000
  C   C221      1.0  0.26010  0.72361  0.50799  1.0000
  C   C222      1.0  0.27843  0.74199  0.50778  1.0000
  H   H130      1.0  0.22791  0.68721  0.47870  1.0000
  O   O11       1.0  0.25322  0.71366  0.58676  1.0000
  H   H131      1.0  0.24393  0.71777  0.61073  1.0000
  O   O12       1.0  0.28845  0.74896  0.58635  1.0000
  H   H132      1.0  0.28434  0.75826  0.61023  1.0000
  C   C223      1.0  0.77855  0.46437  0.33770  1.0000
  C   C224      1.0  0.74452  0.46912  0.34537  1.0000
  C   C225      1.0  0.75235  0.46610  0.42599  1.0000
  C   C226      1.0  0.76949  0.46387  0.42071  1.0000
  H   H133      1.0  0.77449  0.46028  0.47721  1.0000
  C   C227      1.0  0.72617  0.46906  0.34557  1.0000
  C   C228      1.0  0.68730  0.46409  0.33869  1.0000
  C   C229      1.0  0.69595  0.46363  0.42149  1.0000
  C   C230      1.0  0.71537  0.46598  0.42639  1.0000
  C   C231      1.0  0.72383  0.46426  0.50755  1.0000
  C   C232      1.0  0.74221  0.46432  0.50735  1.0000
  H   H134      1.0  0.68743  0.46005  0.47819  1.0000
  O   O13       1.0  0.71385  0.46114  0.58627  1.0000
  H   H135      1.0  0.71793  0.47451  0.61036  1.0000
  O   O14       1.0  0.74917  0.46125  0.58589  1.0000
  H   H136      1.0  0.75845  0.47464  0.60990  1.0000
  C   C233      1.0  0.53700  0.31442  0.33823  1.0000
  C   C234      1.0  0.53224  0.27564  0.34562  1.0000
  C   C235      1.0  0.53524  0.28646  0.42631  1.0000
  C   C236      1.0  0.53748  0.30583  0.42116  1.0000
  H   H137      1.0  0.54106  0.31439  0.47773  1.0000
  C   C237      1.0  0.53229  0.25734  0.34568  1.0000
  C   C238      1.0  0.53724  0.22343  0.33860  1.0000
  C   C239      1.0  0.53768  0.23251  0.42145  1.0000
  C   C240      1.0  0.53535  0.24959  0.42645  1.0000
  C   C241      1.0  0.53706  0.25974  0.50767  1.0000
  C   C242      1.0  0.53700  0.27807  0.50761  1.0000
  H   H138      1.0  0.54127  0.22756  0.47810  1.0000
  O   O15       1.0  0.54015  0.25285  0.58636  1.0000
  H   H139      1.0  0.52677  0.24355  0.61038  1.0000
  O   O16       1.0  0.54005  0.28807  0.58623  1.0000
  H   H140      1.0  0.52665  0.28397  0.61011  1.0000
  C   C243      1.0  0.68689  0.22279  0.33818  1.0000
  C   C244      1.0  0.72568  0.25680  0.34576  1.0000
  C   C245      1.0  0.71484  0.24896  0.42641  1.0000
  C   C246      1.0  0.69548  0.23182  0.42118  1.0000
  H   H141      1.0  0.68690  0.22684  0.47771  1.0000
  C   C247      1.0  0.74396  0.27516  0.34595  1.0000
  C   C248      1.0  0.77785  0.31403  0.33906  1.0000
  C   C249      1.0  0.76877  0.30537  0.42189  1.0000
  C   C250      1.0  0.75170  0.28595  0.42677  1.0000
  C   C251      1.0  0.74153  0.27748  0.50795  1.0000
  C   C252      1.0  0.72321  0.25910  0.50777  1.0000
  H   H142      1.0  0.77370  0.31390  0.47856  1.0000
  O   O17       1.0  0.74840  0.28745  0.58669  1.0000
  H   H143      1.0  0.75773  0.28338  0.61063  1.0000
  O   O18       1.0  0.71320  0.25212  0.58635  1.0000
  H   H144      1.0  0.71733  0.24283  0.61021  1.0000
