data_image0
_chemical_formula_structural       C3NC3NC5NC5NC20H18CHCHCHCHC3NOCHNHC3NOCHNHC8H12C3H2NHC3H2NH
_chemical_formula_sum              "C62 N10 H44 O2"
_cell_length_a       25.3363
_cell_length_b       25.3379
_cell_length_c       15.0105
_cell_angle_alpha    90
_cell_angle_beta     90
_cell_angle_gamma    89.9625

_space_group_name_H-M_alt    "P 1"
_space_group_IT_number       1

loop_
  _space_group_symop_operation_xyz
  'x, y, z'

loop_
  _atom_site_type_symbol
  _atom_site_label
  _atom_site_symmetry_multiplicity
  _atom_site_fract_x
  _atom_site_fract_y
  _atom_site_fract_z
  _atom_site_occupancy
  C   C1        1.0  0.08032  0.85129  0.34243  1.0000
  C   C2        1.0  0.12338  0.88462  0.34229  1.0000
  C   C3        1.0  0.10497  0.93659  0.33838  1.0000
  N   N1        1.0  0.05164  0.93277  0.33493  1.0000
  C   C4        1.0  0.03461  0.88209  0.33794  1.0000
  C   C5        1.0  0.98218  0.86203  0.33762  1.0000
  C   C6        1.0  0.93574  0.89327  0.33335  1.0000
  N   N2        1.0  0.93229  0.94643  0.33033  1.0000
  C   C7        1.0  0.88167  0.96301  0.32633  1.0000
  C   C8        1.0  0.85058  0.91750  0.32651  1.0000
  C   C9        1.0  0.88392  0.87449  0.33108  1.0000
  C   C10       1.0  0.86303  0.01578  0.32198  1.0000
  C   C11       1.0  0.89556  0.06151  0.32172  1.0000
  N   N3        1.0  0.94885  0.06535  0.32609  1.0000
  C   C12       1.0  0.96589  0.11599  0.32222  1.0000
  C   C13       1.0  0.92022  0.14678  0.31636  1.0000
  C   C14       1.0  0.87717  0.11343  0.31615  1.0000
  C   C15       1.0  0.01830  0.13604  0.32327  1.0000
  C   C16       1.0  0.06474  0.10483  0.32814  1.0000
  N   N4        1.0  0.06823  0.05166  0.33050  1.0000
  C   C17       1.0  0.11885  0.03511  0.33496  1.0000
  C   C18       1.0  0.14987  0.08068  0.33592  1.0000
  C   C19       1.0  0.11651  0.12367  0.33121  1.0000
  C   C20       1.0  0.13753  0.98233  0.33871  1.0000
  C   C21       1.0  0.19305  0.97488  0.34611  1.0000
  C   C22       1.0  0.22571  0.97700  0.26994  1.0000
  C   C23       1.0  0.28065  0.97057  0.27816  1.0000
  C   C24       1.0  0.30402  0.96161  0.36239  1.0000
  C   C25       1.0  0.02502  0.19159  0.31570  1.0000
  C   C26       1.0  0.03117  0.21489  0.23089  1.0000
  C   C27       1.0  0.03779  0.26977  0.22276  1.0000
  C   C28       1.0  0.03820  0.30247  0.29908  1.0000
  C   C29       1.0  0.80758  0.02322  0.31412  1.0000
  C   C30       1.0  0.69684  0.03766  0.29725  1.0000
  C   C31       1.0  0.72936  0.03492  0.22083  1.0000
  C   C32       1.0  0.78415  0.02761  0.22909  1.0000
  C   C33       1.0  0.97546  0.80645  0.34505  1.0000
  C   C34       1.0  0.97846  0.77370  0.26909  1.0000
  C   C35       1.0  0.97211  0.71876  0.27739  1.0000
  C   C36       1.0  0.96246  0.69550  0.36149  1.0000
  H   H1        1.0  0.97470  0.69573  0.22156  1.0000
  H   H2        1.0  0.98548  0.78958  0.20752  1.0000
  H   H3        1.0  0.08274  0.81107  0.34575  1.0000
  H   H4        1.0  0.16172  0.87222  0.34542  1.0000
  H   H5        1.0  0.02846  0.96268  0.33186  1.0000
  H   H6        1.0  0.97200  0.03548  0.33078  1.0000
  H   H7        1.0  0.87177  0.83604  0.33162  1.0000
  H   H8        1.0  0.81034  0.91528  0.32367  1.0000
  H   H9        1.0  0.80678  0.02542  0.17270  1.0000
  H   H10       1.0  0.71332  0.03759  0.15845  1.0000
  H   H11       1.0  0.83884  0.12578  0.31188  1.0000
  H   H12       1.0  0.91785  0.18697  0.31216  1.0000
  H   H13       1.0  0.19008  0.08297  0.33944  1.0000
  H   H14       1.0  0.12861  0.16214  0.33115  1.0000
  H   H15       1.0  0.03076  0.19212  0.17455  1.0000
  H   H16       1.0  0.04183  0.28569  0.16051  1.0000
  H   H17       1.0  0.30361  0.97268  0.22219  1.0000
  H   H18       1.0  0.20977  0.98365  0.20828  1.0000
  C   C37       1.0  0.04413  0.36060  0.29113  1.0000
  H   H19       1.0  0.05477  0.37172  0.22304  1.0000
  C   C38       1.0  0.36221  0.95602  0.37026  1.0000
  H   H20       1.0  0.37490  0.92431  0.32567  1.0000
  C   C39       1.0  0.95668  0.63734  0.36942  1.0000
  H   H21       1.0  0.92504  0.62479  0.32458  1.0000
  C   C40       1.0  0.63874  0.04387  0.28918  1.0000
  H   H22       1.0  0.62769  0.05405  0.22085  1.0000
  C   C41       1.0  0.99782  0.44297  0.32327  1.0000
  C   C42       1.0  0.00449  0.47561  0.24781  1.0000
  C   C43       1.0  0.00746  0.53017  0.25695  1.0000
  N   N5        1.0  0.01364  0.55034  0.17578  1.0000
  O   O1        1.0  0.00843  0.46056  0.16100  1.0000
  C   C44       1.0  0.01432  0.50865  0.12057  1.0000
  H   H23       1.0  0.01837  0.51255  0.05322  1.0000
  N   N6        1.0  0.99443  0.38746  0.31760  1.0000
  H   H24       1.0  0.96444  0.37769  0.27458  1.0000
  C   C45       1.0  0.55632  0.99793  0.32266  1.0000
  C   C46       1.0  0.52348  0.00461  0.24743  1.0000
  C   C47       1.0  0.46892  0.00736  0.25691  1.0000
  N   N7        1.0  0.44854  0.01363  0.17590  1.0000
  O   O2        1.0  0.53831  0.00872  0.16053  1.0000
  C   C48       1.0  0.49011  0.01457  0.12044  1.0000
  H   H25       1.0  0.48605  0.01872  0.05313  1.0000
  N   N8        1.0  0.61181  0.99443  0.31663  1.0000
  H   H26       1.0  0.62143  0.96419  0.27400  1.0000
  C   C49       1.0  0.27107  0.95912  0.43829  1.0000
  C   C50       1.0  0.21618  0.96589  0.43036  1.0000
  C   C51       1.0  0.03187  0.27892  0.38384  1.0000
  C   C52       1.0  0.02549  0.22399  0.39223  1.0000
  C   C53       1.0  0.77537  0.02611  0.39074  1.0000
  C   C54       1.0  0.72049  0.03301  0.38223  1.0000
  C   C55       1.0  0.96577  0.78344  0.42916  1.0000
  C   C56       1.0  0.95922  0.72855  0.43719  1.0000
  H   H27       1.0  0.95256  0.71288  0.49896  1.0000
  H   H28       1.0  0.96355  0.80646  0.48509  1.0000
  H   H29       1.0  0.79157  0.02290  0.45297  1.0000
  H   H30       1.0  0.69783  0.03465  0.43859  1.0000
  H   H31       1.0  0.02104  0.20786  0.45430  1.0000
  H   H32       1.0  0.03191  0.30171  0.44012  1.0000
  H   H33       1.0  0.19327  0.96441  0.48648  1.0000
  H   H34       1.0  0.28684  0.95307  0.50019  1.0000
  H   H35       1.0  0.07650  0.37305  0.33454  1.0000
  H   H36       1.0  0.37352  0.94470  0.43800  1.0000
  H   H37       1.0  0.94512  0.62612  0.43708  1.0000
  H   H38       1.0  0.62634  0.07661  0.33186  1.0000
  C   C57       1.0  0.00351  0.55504  0.34049  1.0000
  C   C58       1.0  0.99667  0.52258  0.41641  1.0000
  C   C59       1.0  0.99366  0.46720  0.40776  1.0000
  H   H39       1.0  0.98872  0.44454  0.46354  1.0000
  H   H40       1.0  0.99397  0.53920  0.47831  1.0000
  N   N9        1.0  0.00679  0.61057  0.34505  1.0000
  H   H41       1.0  0.03626  0.62072  0.38884  1.0000
  C   C60       1.0  0.44425  0.00315  0.34058  1.0000
  C   C61       1.0  0.47690  0.99636  0.41627  1.0000
  C   C62       1.0  0.53228  0.99358  0.40728  1.0000
  H   H42       1.0  0.55507  0.98858  0.46289  1.0000
  H   H43       1.0  0.46043  0.99349  0.47826  1.0000
  N   N10       1.0  0.38869  0.00619  0.34547  1.0000
  H   H44       1.0  0.37849  0.03569  0.38918  1.0000
