data_image0
_chemical_formula_structural       COH2C7OHC6O2H2C6O2H2C2HC2HC2H4C2HC2HC2H4C2HC2HC2H4C2HC2HC2H4C2HC2HC2H4C2HC2HC2H4C3H2CHC3H2C3H2C3H2C3H2C8H3NO2C8H3NO2C8H3NO2C8H3NO2C8H3NO2C8H3NO2
_chemical_formula_sum              "C120 O18 H72 N6"
_cell_length_a       31.9133
_cell_length_b       31.9132
_cell_length_c       14.8956
_cell_angle_alpha    90
_cell_angle_beta     90
_cell_angle_gamma    120

_space_group_name_H-M_alt    "P 1"
_space_group_IT_number       1

loop_
  _space_group_symop_operation_xyz
  'x, y, z'

loop_
  _atom_site_type_symbol
  _atom_site_label
  _atom_site_symmetry_multiplicity
  _atom_site_fract_x
  _atom_site_fract_y
  _atom_site_fract_z
  _atom_site_occupancy
  C   C1        1.0  0.03195  0.51832  0.35063  1.0000
  O   O1        1.0  0.03681  0.59557  0.30937  1.0000
  H   H1        1.0  0.02946  0.58842  0.24517  1.0000
  H   H2        1.0  0.04669  0.46126  0.38005  1.0000
  C   C2        1.0  0.05812  0.56991  0.33637  1.0000
  C   C3        1.0  0.06166  0.49701  0.36561  1.0000
  C   C4        1.0  0.10917  0.59783  0.34560  1.0000
  C   C5        1.0  0.11270  0.52313  0.35913  1.0000
  C   C6        1.0  0.97858  0.48865  0.35065  1.0000
  C   C7        1.0  0.90135  0.40915  0.34562  1.0000
  C   C8        1.0  0.95240  0.43707  0.33636  1.0000
  O   O2        1.0  0.97371  0.41141  0.30934  1.0000
  H   H3        1.0  0.98105  0.41855  0.24515  1.0000
  C   C9        1.0  0.52009  0.49166  0.35067  1.0000
  C   C10       1.0  0.59962  0.49400  0.34551  1.0000
  C   C11       1.0  0.57167  0.51709  0.33624  1.0000
  C   C12       1.0  0.49040  0.51533  0.35066  1.0000
  C   C13       1.0  0.43883  0.48988  0.33629  1.0000
  C   C14       1.0  0.41088  0.51299  0.34549  1.0000
  O   O3        1.0  0.59728  0.56406  0.30922  1.0000
  O   O4        1.0  0.41322  0.44292  0.30922  1.0000
  H   H4        1.0  0.59011  0.56424  0.24503  1.0000
  H   H5        1.0  0.42041  0.44275  0.24504  1.0000
  C   C15       1.0  0.51710  0.03020  0.35061  1.0000
  C   C16       1.0  0.51475  0.10738  0.34549  1.0000
  C   C17       1.0  0.49167  0.05634  0.33619  1.0000
  C   C18       1.0  0.49342  0.97684  0.35062  1.0000
  C   C19       1.0  0.51885  0.95068  0.33639  1.0000
  C   C20       1.0  0.49572  0.89962  0.34560  1.0000
  O   O5        1.0  0.44472  0.03499  0.30898  1.0000
  O   O6        1.0  0.56583  0.97201  0.30944  1.0000
  H   H6        1.0  0.44461  0.02764  0.24481  1.0000
  H   H7        1.0  0.56605  0.97936  0.24525  1.0000
  C   C21       1.0  0.28630  0.47776  0.26966  1.0000
  C   C22       1.0  0.33374  0.48480  0.26706  1.0000
  H   H8        1.0  0.35140  0.49099  0.20686  1.0000
  C   C23       1.0  0.17341  0.51254  0.27769  1.0000
  C   C24       1.0  0.21032  0.50040  0.27529  1.0000
  H   H9        1.0  0.17029  0.53151  0.22508  1.0000
  C   C25       1.0  0.24209  0.51367  0.19473  1.0000
  C   C26       1.0  0.26288  0.47932  0.18424  1.0000
  H   H10       1.0  0.27156  0.55106  0.20164  1.0000
  H   H11       1.0  0.22188  0.51116  0.13372  1.0000
  H   H12       1.0  0.28783  0.49138  0.12724  1.0000
  H   H13       1.0  0.23345  0.44278  0.16924  1.0000
  C   C27       1.0  0.53086  0.81020  0.26999  1.0000
  C   C28       1.0  0.52385  0.85062  0.26746  1.0000
  H   H14       1.0  0.51766  0.86209  0.20726  1.0000
  C   C29       1.0  0.49608  0.66255  0.27791  1.0000
  C   C30       1.0  0.50822  0.71159  0.27554  1.0000
  H   H15       1.0  0.47714  0.64049  0.22523  1.0000
  C   C31       1.0  0.49499  0.73013  0.19498  1.0000
  C   C32       1.0  0.52935  0.78527  0.18454  1.0000
  H   H16       1.0  0.45759  0.72220  0.20184  1.0000
  H   H17       1.0  0.49752  0.71245  0.13397  1.0000
  H   H18       1.0  0.51731  0.79818  0.12755  1.0000
  H   H19       1.0  0.56589  0.79239  0.16958  1.0000
  C   C33       1.0  0.19856  0.72241  0.26995  1.0000
  C   C34       1.0  0.15820  0.67494  0.26744  1.0000
  H   H20       1.0  0.14669  0.65731  0.20721  1.0000
  C   C35       1.0  0.34618  0.83537  0.27781  1.0000
  C   C36       1.0  0.29713  0.79845  0.27546  1.0000
  H   H21       1.0  0.36826  0.83845  0.22521  1.0000
  C   C37       1.0  0.27862  0.76667  0.19492  1.0000
  C   C38       1.0  0.22347  0.74583  0.18449  1.0000
  H   H22       1.0  0.28659  0.73723  0.20178  1.0000
  H   H23       1.0  0.29628  0.78689  0.13389  1.0000
  H   H24       1.0  0.21058  0.72088  0.12751  1.0000
  H   H25       1.0  0.21631  0.77523  0.16951  1.0000
  C   C39       1.0  0.72425  0.52922  0.26974  1.0000
  C   C40       1.0  0.67683  0.52223  0.26710  1.0000
  H   H26       1.0  0.65919  0.51598  0.20687  1.0000
  C   C41       1.0  0.83716  0.49447  0.27779  1.0000
  C   C42       1.0  0.80023  0.50657  0.27540  1.0000
  H   H27       1.0  0.84026  0.47547  0.22519  1.0000
  C   C43       1.0  0.76847  0.49332  0.19484  1.0000
  C   C44       1.0  0.74771  0.52769  0.18434  1.0000
  H   H28       1.0  0.73899  0.45593  0.20172  1.0000
  H   H29       1.0  0.78868  0.49582  0.13383  1.0000
  H   H30       1.0  0.72279  0.51567  0.12731  1.0000
  H   H31       1.0  0.77715  0.56424  0.16941  1.0000
  C   C45       1.0  0.47951  0.19676  0.26965  1.0000
  C   C46       1.0  0.48655  0.15637  0.26703  1.0000
  H   H32       1.0  0.49274  0.14491  0.20682  1.0000
  C   C47       1.0  0.51435  0.34445  0.27776  1.0000
  C   C48       1.0  0.50220  0.29541  0.27534  1.0000
  H   H33       1.0  0.53330  0.36654  0.22513  1.0000
  C   C49       1.0  0.51543  0.27689  0.19475  1.0000
  C   C50       1.0  0.48106  0.22176  0.18425  1.0000
  H   H34       1.0  0.55282  0.28480  0.20161  1.0000
  H   H35       1.0  0.51292  0.29460  0.13376  1.0000
  H   H36       1.0  0.49310  0.20886  0.12722  1.0000
  H   H37       1.0  0.44452  0.21466  0.16928  1.0000
  C   C51       1.0  0.81194  0.28461  0.26992  1.0000
  C   C52       1.0  0.85236  0.33204  0.26736  1.0000
  H   H38       1.0  0.86383  0.34971  0.20717  1.0000
  C   C53       1.0  0.66429  0.17174  0.27795  1.0000
  C   C54       1.0  0.71334  0.20864  0.27555  1.0000
  H   H39       1.0  0.64221  0.16861  0.22531  1.0000
  C   C55       1.0  0.73185  0.24040  0.19498  1.0000
  C   C56       1.0  0.78699  0.26118  0.18450  1.0000
  H   H40       1.0  0.72392  0.26986  0.20184  1.0000
  H   H41       1.0  0.71416  0.22017  0.13397  1.0000
  H   H42       1.0  0.79989  0.28613  0.12750  1.0000
  H   H43       1.0  0.79411  0.23175  0.16953  1.0000
  C   C57       1.0  0.94889  0.50996  0.36564  1.0000
  C   C58       1.0  0.89784  0.48385  0.35925  1.0000
  C   C59       1.0  0.87482  0.43321  0.35404  1.0000
  H   H44       1.0  0.96385  0.54572  0.38015  1.0000
  H   H45       1.0  0.83768  0.41335  0.35513  1.0000
  C   C60       1.0  0.13571  0.57378  0.35396  1.0000
  H   H46       1.0  0.17285  0.59364  0.35508  1.0000
  C   C61       1.0  0.49882  0.44066  0.36574  1.0000
  C   C62       1.0  0.52495  0.41575  0.35920  1.0000
  C   C63       1.0  0.57560  0.44341  0.35390  1.0000
  H   H47       1.0  0.46307  0.41986  0.38025  1.0000
  H   H48       1.0  0.59547  0.42615  0.35492  1.0000
  C   C64       1.0  0.43491  0.56358  0.35388  1.0000
  C   C65       1.0  0.48555  0.59124  0.35917  1.0000
  C   C66       1.0  0.51168  0.56632  0.36568  1.0000
  H   H49       1.0  0.41503  0.58083  0.35493  1.0000
  H   H50       1.0  0.54742  0.58712  0.38025  1.0000
  C   C67       1.0  0.56810  0.05992  0.36568  1.0000
  C   C68       1.0  0.59301  0.11097  0.35931  1.0000
  C   C69       1.0  0.56533  0.13395  0.35400  1.0000
  H   H51       1.0  0.58889  0.04497  0.38021  1.0000
  H   H52       1.0  0.58259  0.17108  0.35506  1.0000
  C   C70       1.0  0.44513  0.87308  0.35396  1.0000
  C   C71       1.0  0.41748  0.89609  0.35917  1.0000
  C   C72       1.0  0.44242  0.94713  0.36562  1.0000
  H   H53       1.0  0.42785  0.83594  0.35509  1.0000
  H   H54       1.0  0.42162  0.96210  0.38008  1.0000
  C   C73       1.0  0.35928  0.48882  0.34654  1.0000
  C   C74       1.0  0.33608  0.48520  0.42907  1.0000
  C   C75       1.0  0.28909  0.47948  0.43362  1.0000
  C   C76       1.0  0.26287  0.47521  0.35309  1.0000
  C   C77       1.0  0.21887  0.47837  0.35105  1.0000
  C   C78       1.0  0.18388  0.46230  0.42096  1.0000
  C   C79       1.0  0.14662  0.47394  0.42246  1.0000
  C   C80       1.0  0.14245  0.50149  0.35270  1.0000
  H   H55       1.0  0.18558  0.44268  0.47343  1.0000
  H   H56       1.0  0.12472  0.46503  0.47768  1.0000
  H   H57       1.0  0.35561  0.49206  0.48726  1.0000
  N   N1        1.0  0.27200  0.48457  0.51845  1.0000
  O   O7        1.0  0.26804  0.45283  0.57329  1.0000
  O   O8        1.0  0.29830  0.52573  0.55234  1.0000
  C   C81       1.0  0.51985  0.87218  0.34697  1.0000
  C   C82       1.0  0.52355  0.85259  0.42943  1.0000
  C   C83       1.0  0.52925  0.81132  0.43395  1.0000
  C   C84       1.0  0.53351  0.78938  0.35342  1.0000
  C   C85       1.0  0.53030  0.74218  0.35129  1.0000
  C   C86       1.0  0.54636  0.72323  0.42117  1.0000
  C   C87       1.0  0.53469  0.67433  0.42263  1.0000
  C   C88       1.0  0.50720  0.64264  0.35281  1.0000
  H   H58       1.0  0.56603  0.74455  0.47360  1.0000
  H   H59       1.0  0.54368  0.66136  0.47778  1.0000
  H   H60       1.0  0.51671  0.86530  0.48758  1.0000
  N   N2        1.0  0.52426  0.78917  0.51878  1.0000
  O   O9        1.0  0.55604  0.81697  0.57351  1.0000
  O   O10       1.0  0.48313  0.77432  0.55281  1.0000
  C   C89       1.0  0.13662  0.64941  0.34694  1.0000
  C   C90       1.0  0.15624  0.67270  0.42936  1.0000
  C   C91       1.0  0.19745  0.71971  0.43389  1.0000
  C   C92       1.0  0.21936  0.74595  0.35335  1.0000
  C   C93       1.0  0.26654  0.78994  0.35120  1.0000
  C   C94       1.0  0.28549  0.82494  0.42109  1.0000
  C   C95       1.0  0.33440  0.86214  0.42262  1.0000
  C   C96       1.0  0.36609  0.86635  0.35279  1.0000
  H   H61       1.0  0.26415  0.82331  0.47349  1.0000
  H   H62       1.0  0.34737  0.88415  0.47770  1.0000
  H   H63       1.0  0.14352  0.65321  0.48758  1.0000
  N   N3        1.0  0.21957  0.73693  0.51872  1.0000
  O   O11       1.0  0.19172  0.74086  0.57341  1.0000
  O   O12       1.0  0.23448  0.71071  0.55281  1.0000
  C   C97       1.0  0.65121  0.51816  0.34650  1.0000
  C   C98       1.0  0.67441  0.52173  0.42903  1.0000
  C   C99       1.0  0.72139  0.52744  0.43366  1.0000
  C   C100      1.0  0.74770  0.53184  0.35320  1.0000
  C   C101      1.0  0.79167  0.52862  0.35114  1.0000
  C   C102      1.0  0.82664  0.54466  0.42109  1.0000
  C   C103      1.0  0.86389  0.53301  0.42261  1.0000
  C   C104      1.0  0.86812  0.50553  0.35279  1.0000
  H   H64       1.0  0.82493  0.56426  0.47358  1.0000
  H   H65       1.0  0.88577  0.54190  0.47785  1.0000
  H   H66       1.0  0.65487  0.51485  0.48721  1.0000
  N   N4        1.0  0.73849  0.52238  0.51849  1.0000
  O   O13       1.0  0.74241  0.55410  0.57332  1.0000
  O   O14       1.0  0.71220  0.48122  0.55238  1.0000
  C   C105      1.0  0.49058  0.13479  0.34644  1.0000
  C   C106      1.0  0.48693  0.15437  0.42899  1.0000
  C   C107      1.0  0.48128  0.19568  0.43359  1.0000
  C   C108      1.0  0.47699  0.21764  0.35310  1.0000
  C   C109      1.0  0.48018  0.26482  0.35110  1.0000
  C   C110      1.0  0.46413  0.28374  0.42104  1.0000
  C   C111      1.0  0.47579  0.33264  0.42257  1.0000
  C   C112      1.0  0.50332  0.36435  0.35280  1.0000
  H   H67       1.0  0.44452  0.26242  0.47352  1.0000
  H   H68       1.0  0.46689  0.34563  0.47780  1.0000
  H   H69       1.0  0.49386  0.14174  0.48715  1.0000
  N   N5        1.0  0.48641  0.21787  0.51843  1.0000
  O   O15       1.0  0.45468  0.19011  0.57330  1.0000
  O   O16       1.0  0.52758  0.23269  0.55226  1.0000
  C   C113      1.0  0.87390  0.35756  0.34687  1.0000
  C   C114      1.0  0.85435  0.33432  0.42939  1.0000
  C   C115      1.0  0.81308  0.28735  0.43391  1.0000
  C   C116      1.0  0.79113  0.26114  0.35337  1.0000
  C   C117      1.0  0.74394  0.21715  0.35127  1.0000
  C   C118      1.0  0.72501  0.18215  0.42116  1.0000
  C   C119      1.0  0.67611  0.14491  0.42267  1.0000
  C   C120      1.0  0.64440  0.14073  0.35290  1.0000
  H   H70       1.0  0.74635  0.18379  0.47355  1.0000
  H   H71       1.0  0.66316  0.12295  0.47781  1.0000
  H   H72       1.0  0.86707  0.35388  0.48753  1.0000
  N   N6        1.0  0.79093  0.27018  0.51874  1.0000
  O   O17       1.0  0.81874  0.26621  0.57346  1.0000
  O   O18       1.0  0.77609  0.29646  0.55277  1.0000
