data_image0
_chemical_formula_structural       OHC4NHC4H2CO2HCH2C3H2CO2HCH2C2HOCH2NC18H12NHNHNHNC18H12NHNHNHC3NC2NOHCH2C3NC2NOHCH2CNCOHCH2
_chemical_formula_sum              "O9 H54 C69 N14"
_cell_length_a       32.6445
_cell_length_b       32.6458
_cell_length_c       14.946
_cell_angle_alpha    90
_cell_angle_beta     90
_cell_angle_gamma    119.999

_space_group_name_H-M_alt    "P 1"
_space_group_IT_number       1

loop_
  _space_group_symop_operation_xyz
  'x, y, z'

loop_
  _atom_site_type_symbol
  _atom_site_label
  _atom_site_symmetry_multiplicity
  _atom_site_fract_x
  _atom_site_fract_y
  _atom_site_fract_z
  _atom_site_occupancy
  O   O1        1.0  0.02578  0.48258  0.05662  1.0000
  H   H1        1.0  0.00309  0.45276  0.04995  1.0000
  C   C1        1.0  0.01829  0.51578  0.43747  1.0000
  C   C2        1.0  0.00817  0.50955  0.59705  1.0000
  C   C3        1.0  0.02986  0.52006  0.27728  1.0000
  C   C4        1.0  0.02913  0.51654  0.01373  1.0000
  N   N1        1.0  0.03533  0.52243  0.52238  1.0000
  H   H2        1.0  0.05056  0.52861  0.22166  1.0000
  C   C5        1.0  0.04999  0.52997  0.36382  1.0000
  C   C6        1.0  0.51733  0.46321  0.33814  1.0000
  C   C7        1.0  0.50473  0.48210  0.26504  1.0000
  C   C8        1.0  0.48419  0.51055  0.27787  1.0000
  H   H3        1.0  0.47582  0.52284  0.22223  1.0000
  H   H4        1.0  0.51006  0.47492  0.20084  1.0000
  C   C9        1.0  0.48674  0.51246  0.01443  1.0000
  O   O2        1.0  0.44895  0.51085  0.02699  1.0000
  O   O3        1.0  0.52045  0.54377  0.05656  1.0000
  H   H5        1.0  0.55038  0.55130  0.04992  1.0000
  C   C10       1.0  0.53623  0.43067  0.31982  1.0000
  H   H6        1.0  0.53113  0.41971  0.24958  1.0000
  H   H7        1.0  0.51572  0.39841  0.35903  1.0000
  C   C11       1.0  0.54158  0.05539  0.33780  1.0000
  C   C12       1.0  0.52282  0.02386  0.26471  1.0000
  C   C13       1.0  0.49441  0.97488  0.27755  1.0000
  H   H8        1.0  0.48222  0.95420  0.22192  1.0000
  H   H9        1.0  0.53009  0.03636  0.20049  1.0000
  C   C14       1.0  0.49189  0.97564  0.01412  1.0000
  O   O4        1.0  0.49315  0.93928  0.02669  1.0000
  O   O5        1.0  0.46089  0.97844  0.05654  1.0000
  H   H10       1.0  0.45356  0.00100  0.04989  1.0000
  C   C15       1.0  0.57405  0.10683  0.31947  1.0000
  H   H11       1.0  0.58497  0.11272  0.24921  1.0000
  H   H12       1.0  0.60633  0.11860  0.35862  1.0000
  C   C16       1.0  0.94934  0.48667  0.33751  1.0000
  C   C17       1.0  0.98088  0.49949  0.26442  1.0000
  H   H13       1.0  0.96840  0.49435  0.20021  1.0000
  O   O6        1.0  0.06570  0.55385  0.02696  1.0000
  C   C18       1.0  0.89792  0.46787  0.31919  1.0000
  H   H14       1.0  0.89207  0.47303  0.24898  1.0000
  H   H15       1.0  0.88625  0.48842  0.35849  1.0000
  N   N2        1.0  0.33609  0.66868  0.34433  1.0000
  C   C19       1.0  0.36019  0.64247  0.33669  1.0000
  C   C20       1.0  0.28577  0.64455  0.33664  1.0000
  C   C21       1.0  0.36233  0.71899  0.33664  1.0000
  C   C22       1.0  0.39466  0.74117  0.26586  1.0000
  C   C23       1.0  0.41951  0.79070  0.25735  1.0000
  C   C24       1.0  0.41179  0.81990  0.31713  1.0000
  C   C25       1.0  0.37798  0.79716  0.38590  1.0000
  C   C26       1.0  0.35470  0.74770  0.39716  1.0000
  C   C27       1.0  0.35025  0.61032  0.26568  1.0000
  C   C28       1.0  0.37499  0.58552  0.25719  1.0000
  C   C29       1.0  0.41175  0.59310  0.31729  1.0000
  C   C30       1.0  0.42262  0.62674  0.38630  1.0000
  C   C31       1.0  0.39638  0.64997  0.39750  1.0000
  C   C32       1.0  0.25710  0.60810  0.39703  1.0000
  C   C33       1.0  0.20766  0.58178  0.38565  1.0000
  C   C34       1.0  0.18487  0.59283  0.31695  1.0000
  C   C35       1.0  0.21401  0.62987  0.25734  1.0000
  C   C36       1.0  0.26354  0.65470  0.26596  1.0000
  H   H16       1.0  0.36703  0.56293  0.20427  1.0000
  H   H17       1.0  0.32493  0.60486  0.21945  1.0000
  H   H18       1.0  0.40513  0.67401  0.44813  1.0000
  H   H19       1.0  0.44997  0.63486  0.42920  1.0000
  H   H20       1.0  0.40022  0.72129  0.21984  1.0000
  H   H21       1.0  0.44223  0.80530  0.20460  1.0000
  H   H22       1.0  0.27241  0.59918  0.44735  1.0000
  H   H23       1.0  0.18844  0.55422  0.42815  1.0000
  H   H24       1.0  0.19937  0.63804  0.20472  1.0000
  H   H25       1.0  0.28338  0.68023  0.22006  1.0000
  H   H26       1.0  0.33054  0.73244  0.44761  1.0000
  H   H27       1.0  0.36977  0.81643  0.42855  1.0000
  N   N3        1.0  0.43971  0.57101  0.30243  1.0000
  H   H28       1.0  0.42393  0.54604  0.25329  1.0000
  N   N4        1.0  0.43395  0.86995  0.30218  1.0000
  H   H29       1.0  0.45901  0.87912  0.25322  1.0000
  N   N5        1.0  0.13483  0.56482  0.30193  1.0000
  H   H30       1.0  0.12558  0.58076  0.25316  1.0000
  N   N6        1.0  0.66936  0.33527  0.35046  1.0000
  C   C37       1.0  0.64814  0.36393  0.34706  1.0000
  C   C38       1.0  0.71923  0.35645  0.34692  1.0000
  C   C39       1.0  0.64070  0.28541  0.34701  1.0000
  C   C40       1.0  0.61736  0.25993  0.42480  1.0000
  C   C41       1.0  0.58861  0.21036  0.42218  1.0000
  C   C42       1.0  0.58237  0.18533  0.34169  1.0000
  C   C43       1.0  0.60545  0.21097  0.26357  1.0000
  C   C44       1.0  0.63467  0.26049  0.26640  1.0000
  C   C45       1.0  0.64622  0.38744  0.42478  1.0000
  C   C46       1.0  0.62538  0.41618  0.42221  1.0000
  C   C47       1.0  0.60639  0.42226  0.34184  1.0000
  C   C48       1.0  0.60875  0.39902  0.26379  1.0000
  C   C49       1.0  0.62904  0.36979  0.26658  1.0000
  C   C50       1.0  0.74413  0.37543  0.26633  1.0000
  C   C51       1.0  0.79363  0.39557  0.26336  1.0000
  C   C52       1.0  0.81928  0.39788  0.34132  1.0000
  C   C53       1.0  0.79427  0.37900  0.42178  1.0000
  C   C54       1.0  0.74471  0.35833  0.42455  1.0000
  H   H31       1.0  0.62453  0.43308  0.47920  1.0000
  H   H32       1.0  0.65997  0.38366  0.48362  1.0000
  H   H33       1.0  0.63051  0.35339  0.20941  1.0000
  H   H34       1.0  0.59592  0.40350  0.20446  1.0000
  H   H35       1.0  0.62128  0.27743  0.48374  1.0000
  H   H36       1.0  0.57186  0.19256  0.47923  1.0000
  H   H37       1.0  0.72622  0.37397  0.20922  1.0000
  H   H38       1.0  0.81089  0.40831  0.20395  1.0000
  H   H39       1.0  0.81205  0.37981  0.47870  1.0000
  H   H40       1.0  0.72721  0.34464  0.48345  1.0000
  H   H41       1.0  0.65095  0.27840  0.20917  1.0000
  H   H42       1.0  0.60084  0.19369  0.20415  1.0000
  N   N7        1.0  0.58734  0.45293  0.34211  1.0000
  H   H43       1.0  0.60672  0.48048  0.29904  1.0000
  N   N8        1.0  0.55175  0.13561  0.34193  1.0000
  H   H44       1.0  0.52414  0.12741  0.29897  1.0000
  N   N9        1.0  0.86897  0.41677  0.34140  1.0000
  H   H45       1.0  0.87703  0.39735  0.29821  1.0000
  C   C55       1.0  0.47408  0.52060  0.36436  1.0000
  C   C56       1.0  0.48801  0.50287  0.43804  1.0000
  C   C57       1.0  0.50999  0.47485  0.42635  1.0000
  N   N10       1.0  0.52258  0.45995  0.50200  1.0000
  C   C58       1.0  0.51560  0.47108  0.58624  1.0000
  C   C59       1.0  0.49374  0.49857  0.59766  1.0000
  N   N11       1.0  0.48114  0.51309  0.52295  1.0000
  O   O7        1.0  0.52953  0.45544  0.65761  1.0000
  H   H46       1.0  0.53783  0.44099  0.49712  1.0000
  C   C60       1.0  0.44870  0.54778  0.38011  1.0000
  H   H47       1.0  0.47011  0.57574  0.42777  1.0000
  H   H48       1.0  0.41490  0.52377  0.41224  1.0000
  C   C61       1.0  0.48423  0.95474  0.36408  1.0000
  C   C62       1.0  0.50183  0.98642  0.43774  1.0000
  C   C63       1.0  0.52985  0.03643  0.42601  1.0000
  N   N12       1.0  0.54465  0.06395  0.50163  1.0000
  C   C64       1.0  0.53340  0.04586  0.58588  1.0000
  C   C65       1.0  0.50588  0.99652  0.59735  1.0000
  N   N13       1.0  0.49149  0.96937  0.52265  1.0000
  O   O8        1.0  0.54896  0.07545  0.65721  1.0000
  H   H49       1.0  0.56363  0.09814  0.49673  1.0000
  C   C66       1.0  0.45706  0.90220  0.37987  1.0000
  H   H50       1.0  0.42902  0.89565  0.42736  1.0000
  H   H51       1.0  0.48103  0.89243  0.41224  1.0000
  C   C67       1.0  0.96828  0.49379  0.42573  1.0000
  N   N14       1.0  0.94075  0.48099  0.50133  1.0000
  C   C68       1.0  0.95883  0.48775  0.58558  1.0000
  O   O9        1.0  0.92923  0.47370  0.65691  1.0000
  H   H52       1.0  0.90656  0.46579  0.49642  1.0000
  C   C69       1.0  0.10253  0.55540  0.37967  1.0000
  H   H53       1.0  0.10912  0.53384  0.42688  1.0000
  H   H54       1.0  0.11221  0.58904  0.41236  1.0000
