data_image0
_chemical_formula_structural       C3NC3NC5NC4NC35H25C21H18C16H16NCHNCHCNC2HNCHNCHCNC2HC18H17C3NC3NC2NC5NC34H24C3NC3NC5NC5NC36H26C2NCNH2C2NCNH2NCNH2C2NCNH2C2NCNH2NCNH2
_chemical_formula_sum              "C228 N30 H144"
_cell_length_a       58.5733
_cell_length_b       58.5732
_cell_length_c       14.9781
_cell_angle_alpha    89.773
_cell_angle_beta     90.227
_cell_angle_gamma    120

_space_group_name_H-M_alt    "P 1"
_space_group_IT_number       1

loop_
  _space_group_symop_operation_xyz
  'x, y, z'

loop_
  _atom_site_type_symbol
  _atom_site_label
  _atom_site_symmetry_multiplicity
  _atom_site_fract_x
  _atom_site_fract_y
  _atom_site_fract_z
  _atom_site_occupancy
  C   C1        1.0  0.01954  0.48569  0.32462  1.0000
  C   C2        1.0  0.04676  0.49925  0.32376  1.0000
  C   C3        1.0  0.05545  0.52620  0.32831  1.0000
  N   N1        1.0  0.03326  0.52797  0.33137  1.0000
  C   C4        1.0  0.01099  0.50405  0.32954  1.0000
  C   C5        1.0  0.98418  0.49771  0.33223  1.0000
  C   C6        1.0  0.97557  0.51647  0.33348  1.0000
  N   N2        1.0  0.99051  0.54303  0.33046  1.0000
  C   C7        1.0  0.97567  0.55477  0.33221  1.0000
  C   C8        1.0  0.94948  0.53439  0.33650  1.0000
  C   C9        1.0  0.94942  0.51080  0.33743  1.0000
  C   C10       1.0  0.98442  0.58216  0.32980  1.0000
  C   C11       1.0  0.01127  0.60254  0.32821  1.0000
  N   N3        1.0  0.03346  0.60076  0.33136  1.0000
  C   C12       1.0  0.05573  0.62468  0.32960  1.0000
  C   C13       1.0  0.04718  0.64306  0.32458  1.0000
  C   C14       1.0  0.01996  0.62950  0.32359  1.0000
  C   C15       1.0  0.08254  0.63103  0.33245  1.0000
  N   N4        1.0  0.07621  0.58572  0.33072  1.0000
  C   C16       1.0  0.09105  0.57398  0.33243  1.0000
  C   C17       1.0  0.11725  0.59436  0.33658  1.0000
  C   C18       1.0  0.11731  0.61794  0.33755  1.0000
  C   C19       1.0  0.08231  0.54658  0.32996  1.0000
  C   C20       1.0  0.10204  0.53916  0.32876  1.0000
  C   C21       1.0  0.11388  0.53854  0.24758  1.0000
  C   C22       1.0  0.13466  0.53303  0.24713  1.0000
  C   C23       1.0  0.14418  0.52795  0.32754  1.0000
  C   C24       1.0  0.16644  0.52412  0.32781  1.0000
  C   C25       1.0  0.21182  0.53826  0.28141  1.0000
  C   C26       1.0  0.18925  0.54089  0.27756  1.0000
  C   C27       1.0  0.10234  0.65817  0.33386  1.0000
  C   C28       1.0  0.11484  0.67139  0.25421  1.0000
  C   C29       1.0  0.13532  0.69783  0.25642  1.0000
  C   C30       1.0  0.14392  0.71179  0.33805  1.0000
  C   C31       1.0  0.16568  0.73820  0.34047  1.0000
  C   C32       1.0  0.16849  0.75717  0.27602  1.0000
  C   C33       1.0  0.19064  0.78273  0.27602  1.0000
  C   C34       1.0  0.21089  0.79039  0.34059  1.0000
  C   C35       1.0  0.96469  0.58961  0.32866  1.0000
  C   C36       1.0  0.92302  0.60150  0.32750  1.0000
  C   C37       1.0  0.93207  0.59605  0.24718  1.0000
  C   C38       1.0  0.95264  0.59022  0.24760  1.0000
  C   C39       1.0  0.90108  0.60584  0.32779  1.0000
  C   C40       1.0  0.87798  0.58930  0.27832  1.0000
  C   C41       1.0  0.85577  0.59253  0.28202  1.0000
  C   C42       1.0  0.85581  0.61227  0.33610  1.0000
  C   C43       1.0  0.96436  0.47057  0.33349  1.0000
  C   C44       1.0  0.95150  0.45760  0.25394  1.0000
  C   C45       1.0  0.93082  0.43126  0.25614  1.0000
  C   C46       1.0  0.92236  0.41713  0.33769  1.0000
  C   C47       1.0  0.90029  0.39090  0.34020  1.0000
  C   C48       1.0  0.85436  0.33919  0.34023  1.0000
  C   C49       1.0  0.87432  0.34664  0.27509  1.0000
  C   C50       1.0  0.89683  0.37196  0.27514  1.0000
  H   H1        1.0  0.87282  0.33362  0.22694  1.0000
  H   H2        1.0  0.91078  0.37641  0.22692  1.0000
  H   H3        1.0  0.92133  0.42283  0.19761  1.0000
  H   H4        1.0  0.95668  0.46745  0.19422  1.0000
  H   H5        1.0  0.00811  0.46562  0.32196  1.0000
  H   H6        1.0  0.05810  0.49052  0.32062  1.0000
  H   H7        1.0  0.03332  0.54432  0.33707  1.0000
  H   H8        1.0  0.03341  0.58441  0.33717  1.0000
  H   H9        1.0  0.93283  0.49264  0.34056  1.0000
  H   H10       1.0  0.93295  0.53607  0.33900  1.0000
  H   H11       1.0  0.95845  0.58599  0.18854  1.0000
  H   H12       1.0  0.92369  0.59621  0.18728  1.0000
  H   H13       1.0  0.00862  0.63824  0.32035  1.0000
  H   H14       1.0  0.05860  0.66313  0.32195  1.0000
  H   H15       1.0  0.13391  0.63610  0.34055  1.0000
  H   H16       1.0  0.10951  0.66170  0.19436  1.0000
  H   H17       1.0  0.14452  0.70648  0.19775  1.0000
  H   H18       1.0  0.19167  0.79577  0.22841  1.0000
  H   H19       1.0  0.15430  0.75258  0.22830  1.0000
  H   H20       1.0  0.19005  0.55591  0.24006  1.0000
  H   H21       1.0  0.22817  0.55127  0.24611  1.0000
  H   H22       1.0  0.14290  0.53291  0.18716  1.0000
  H   H23       1.0  0.10779  0.54260  0.18848  1.0000
  H   H24       1.0  0.87672  0.57405  0.24137  1.0000
  H   H25       1.0  0.83919  0.57968  0.24729  1.0000
  C   C51       1.0  0.54475  0.51985  0.33488  1.0000
  C   C52       1.0  0.56512  0.51402  0.33895  1.0000
  C   C53       1.0  0.58871  0.53754  0.33988  1.0000
  C   C54       1.0  0.56103  0.67446  0.25036  1.0000
  C   C55       1.0  0.56653  0.70076  0.24988  1.0000
  C   C56       1.0  0.56132  0.77263  0.28391  1.0000
  C   C57       1.0  0.55867  0.74743  0.28019  1.0000
  C   C58       1.0  0.42820  0.54254  0.25635  1.0000
  C   C59       1.0  0.40176  0.53658  0.25822  1.0000
  C   C60       1.0  0.34240  0.51035  0.27719  1.0000
  C   C61       1.0  0.31684  0.50695  0.27676  1.0000
  C   C62       1.0  0.30912  0.51944  0.34098  1.0000
  C   C63       1.0  0.50343  0.43514  0.24987  1.0000
  C   C64       1.0  0.50926  0.46153  0.25031  1.0000
  C   C65       1.0  0.51024  0.38776  0.28092  1.0000
  C   C66       1.0  0.50704  0.36233  0.28461  1.0000
  C   C67       1.0  0.64186  0.59304  0.25604  1.0000
  C   C68       1.0  0.66820  0.59869  0.25791  1.0000
  C   C69       1.0  0.76037  0.61416  0.34063  1.0000
  C   C70       1.0  0.75285  0.62685  0.27586  1.0000
  C   C71       1.0  0.72752  0.62401  0.27632  1.0000
  H   H26       1.0  0.76582  0.63850  0.22769  1.0000
  H   H27       1.0  0.72302  0.63363  0.22835  1.0000
  H   H28       1.0  0.67660  0.59782  0.19921  1.0000
  H   H29       1.0  0.63197  0.58854  0.19640  1.0000
  H   H30       1.0  0.60687  0.53910  0.34289  1.0000
  H   H31       1.0  0.51347  0.47170  0.19127  1.0000
  H   H32       1.0  0.50326  0.42672  0.18995  1.0000
  H   H33       1.0  0.46127  0.46936  0.32352  1.0000
  H   H34       1.0  0.43793  0.54698  0.19659  1.0000
  H   H35       1.0  0.39314  0.53719  0.19940  1.0000
  H   H36       1.0  0.30386  0.49501  0.22907  1.0000
  H   H37       1.0  0.34704  0.50083  0.22970  1.0000
  H   H38       1.0  0.54366  0.73329  0.24263  1.0000
  H   H39       1.0  0.54829  0.77602  0.24866  1.0000
  H   H40       1.0  0.56666  0.70924  0.18989  1.0000
  H   H41       1.0  0.55695  0.66442  0.19128  1.0000
  H   H42       1.0  0.52546  0.40183  0.24388  1.0000
  H   H43       1.0  0.51988  0.35868  0.24979  1.0000
  C   C72       1.0  0.42518  0.98573  0.25168  1.0000
  C   C73       1.0  0.39889  0.96494  0.25073  1.0000
  C   C74       1.0  0.32695  0.88776  0.28343  1.0000
  C   C75       1.0  0.35216  0.91032  0.28017  1.0000
  C   C76       1.0  0.55698  0.98474  0.25892  1.0000
  C   C77       1.0  0.56297  0.96429  0.26081  1.0000
  C   C78       1.0  0.58920  0.93112  0.27983  1.0000
  C   C79       1.0  0.59260  0.90897  0.27941  1.0000
  C   C80       1.0  0.66424  0.16730  0.25065  1.0000
  C   C81       1.0  0.63784  0.14674  0.25163  1.0000
  C   C82       1.0  0.71167  0.22144  0.28052  1.0000
  C   C83       1.0  0.73712  0.24367  0.28368  1.0000
  C   C84       1.0  0.50646  0.14790  0.25854  1.0000
  C   C85       1.0  0.50078  0.16857  0.26043  1.0000
  C   C86       1.0  0.47269  0.22508  0.27846  1.0000
  C   C87       1.0  0.47551  0.20257  0.27890  1.0000
  H   H44       1.0  0.46104  0.22650  0.23030  1.0000
  H   H45       1.0  0.46588  0.18855  0.23093  1.0000
  H   H46       1.0  0.50168  0.17799  0.20175  1.0000
  H   H47       1.0  0.51095  0.14264  0.19888  1.0000
  H   H48       1.0  0.62759  0.14082  0.19277  1.0000
  H   H49       1.0  0.67256  0.17558  0.19055  1.0000
  H   H50       1.0  0.55253  0.99014  0.19916  1.0000
  H   H51       1.0  0.56232  0.95514  0.20204  1.0000
  H   H52       1.0  0.60452  0.90800  0.23167  1.0000
  H   H53       1.0  0.59871  0.94537  0.23229  1.0000
  H   H54       1.0  0.36636  0.90956  0.24288  1.0000
  H   H55       1.0  0.32360  0.87145  0.24804  1.0000
  H   H56       1.0  0.39049  0.95677  0.19058  1.0000
  H   H57       1.0  0.43531  0.99187  0.19277  1.0000
  H   H58       1.0  0.69754  0.22264  0.24379  1.0000
  H   H59       1.0  0.74069  0.26020  0.24880  1.0000
  N   N5        1.0  0.24677  0.51553  0.26466  1.0000
  C   C88       1.0  0.26965  0.51510  0.25993  1.0000
  H   H60       1.0  0.27681  0.51446  0.19852  1.0000
  N   N6        1.0  0.58397  0.83031  0.26730  1.0000
  C   C89       1.0  0.58440  0.85364  0.26258  1.0000
  H   H61       1.0  0.58503  0.86155  0.20117  1.0000
  C   C90       1.0  0.28208  0.86374  0.34348  1.0000
  N   N7        1.0  0.26928  0.85286  0.26556  1.0000
  C   C91       1.0  0.24595  0.83000  0.26031  1.0000
  C   C92       1.0  0.23412  0.81576  0.33928  1.0000
  H   H62       1.0  0.23816  0.82288  0.19873  1.0000
  N   N8        1.0  0.82179  0.61639  0.26427  1.0000
  C   C93       1.0  0.79920  0.61741  0.25948  1.0000
  H   H63       1.0  0.79195  0.61806  0.19802  1.0000
  N   N9        1.0  0.48322  0.30453  0.26686  1.0000
  C   C94       1.0  0.48221  0.28094  0.26206  1.0000
  H   H64       1.0  0.48150  0.27313  0.20061  1.0000
  C   C95       1.0  0.78219  0.26678  0.34298  1.0000
  N   N10       1.0  0.79486  0.27772  0.26499  1.0000
  C   C96       1.0  0.81844  0.30031  0.25973  1.0000
  C   C97       1.0  0.83076  0.31411  0.33882  1.0000
  H   H65       1.0  0.82615  0.30749  0.19814  1.0000
  C   C98       1.0  0.09116  0.61227  0.33372  1.0000
  C   C99       1.0  0.13180  0.52812  0.40842  1.0000
  C   C100      1.0  0.11108  0.53374  0.40919  1.0000
  C   C101      1.0  0.16690  0.50425  0.38065  1.0000
  C   C102      1.0  0.18947  0.50156  0.38446  1.0000
  C   C103      1.0  0.21244  0.51889  0.33630  1.0000
  C   C104      1.0  0.13095  0.69838  0.41737  1.0000
  C   C105      1.0  0.11046  0.67195  0.41548  1.0000
  C   C106      1.0  0.20774  0.77158  0.40628  1.0000
  C   C107      1.0  0.18568  0.74600  0.40600  1.0000
  C   C108      1.0  0.95608  0.59534  0.40901  1.0000
  C   C109      1.0  0.93559  0.60128  0.40827  1.0000
  C   C110      1.0  0.87907  0.62936  0.38350  1.0000
  C   C111      1.0  0.90129  0.62609  0.37979  1.0000
  C   C112      1.0  0.95641  0.45660  0.41498  1.0000
  C   C113      1.0  0.93572  0.43026  0.41688  1.0000
  C   C114      1.0  0.88058  0.38328  0.40633  1.0000
  C   C115      1.0  0.85817  0.35793  0.40661  1.0000
  H   H66       1.0  0.84410  0.35373  0.45415  1.0000
  H   H67       1.0  0.88183  0.39648  0.45341  1.0000
  H   H68       1.0  0.93044  0.42076  0.47716  1.0000
  H   H69       1.0  0.96534  0.46563  0.47361  1.0000
  H   H70       1.0  0.96429  0.59467  0.46873  1.0000
  H   H71       1.0  0.92923  0.60443  0.46805  1.0000
  H   H72       1.0  0.13379  0.59268  0.33896  1.0000
  H   H73       1.0  0.10176  0.66274  0.47415  1.0000
  H   H74       1.0  0.13633  0.70776  0.47772  1.0000
  H   H75       1.0  0.18489  0.73281  0.45260  1.0000
  H   H76       1.0  0.22203  0.77595  0.45342  1.0000
  H   H77       1.0  0.10308  0.53448  0.46899  1.0000
  H   H78       1.0  0.13850  0.52526  0.46825  1.0000
  H   H79       1.0  0.18909  0.48699  0.42347  1.0000
  H   H80       1.0  0.15071  0.49145  0.41696  1.0000
  H   H81       1.0  0.91771  0.63875  0.41548  1.0000
  H   H82       1.0  0.87994  0.64420  0.42185  1.0000
  C   C116      1.0  0.61384  0.63281  0.32740  1.0000
  C   C117      1.0  0.60028  0.64647  0.32662  1.0000
  C   C118      1.0  0.57333  0.62821  0.33116  1.0000
  N   N11       1.0  0.57156  0.60424  0.33418  1.0000
  C   C119      1.0  0.59547  0.60589  0.33227  1.0000
  C   C120      1.0  0.60181  0.58541  0.33483  1.0000
  C   C121      1.0  0.58305  0.55803  0.33610  1.0000
  N   N12       1.0  0.55649  0.54643  0.33320  1.0000
  C   C122      1.0  0.51735  0.50121  0.33257  1.0000
  C   C123      1.0  0.49697  0.50768  0.33113  1.0000
  N   N13       1.0  0.49875  0.53165  0.33422  1.0000
  C   C124      1.0  0.47483  0.53000  0.33245  1.0000
  C   C125      1.0  0.45645  0.50308  0.32763  1.0000
  C   C126      1.0  0.47001  0.48942  0.32671  1.0000
  C   C127      1.0  0.46850  0.55047  0.33508  1.0000
  C   C128      1.0  0.48726  0.57784  0.33633  1.0000
  N   N14       1.0  0.51381  0.58945  0.33350  1.0000
  C   C129      1.0  0.52555  0.61603  0.33516  1.0000
  C   C130      1.0  0.50518  0.62185  0.33916  1.0000
  C   C131      1.0  0.48159  0.59833  0.34003  1.0000
  C   C132      1.0  0.55295  0.63468  0.33279  1.0000
  C   C133      1.0  0.56038  0.66185  0.33157  1.0000
  C   C134      1.0  0.57160  0.71520  0.33027  1.0000
  C   C135      1.0  0.57139  0.70247  0.41118  1.0000
  C   C136      1.0  0.56580  0.67615  0.41198  1.0000
  C   C137      1.0  0.57542  0.74129  0.33051  1.0000
  C   C138      1.0  0.59528  0.76151  0.38341  1.0000
  C   C139      1.0  0.59796  0.78675  0.38720  1.0000
  C   C140      1.0  0.58064  0.79249  0.33894  1.0000
  C   C141      1.0  0.44135  0.54313  0.33620  1.0000
  C   C142      1.0  0.38773  0.53108  0.33970  1.0000
  C   C143      1.0  0.40107  0.53140  0.41923  1.0000
  C   C144      1.0  0.42750  0.53734  0.41767  1.0000
  C   C145      1.0  0.36131  0.52642  0.34174  1.0000
  C   C146      1.0  0.32787  0.53499  0.40681  1.0000
  C   C147      1.0  0.35345  0.53852  0.40692  1.0000
  C   C148      1.0  0.50990  0.47403  0.33141  1.0000
  C   C149      1.0  0.50418  0.45953  0.41174  1.0000
  C   C150      1.0  0.49826  0.43310  0.41098  1.0000
  C   C151      1.0  0.49801  0.42048  0.33018  1.0000
  C   C152      1.0  0.49369  0.39420  0.33046  1.0000
  C   C153      1.0  0.48733  0.34252  0.33872  1.0000
  C   C154      1.0  0.47023  0.34856  0.38619  1.0000
  C   C155      1.0  0.47347  0.37405  0.38251  1.0000
  C   C156      1.0  0.62895  0.59273  0.33580  1.0000
  C   C157      1.0  0.64298  0.59853  0.41715  1.0000
  C   C158      1.0  0.68239  0.60415  0.33930  1.0000
  C   C159      1.0  0.66932  0.60416  0.41871  1.0000
  C   C160      1.0  0.70864  0.60833  0.34144  1.0000
  C   C161      1.0  0.71632  0.59607  0.40722  1.0000
  C   C162      1.0  0.74168  0.59903  0.40708  1.0000
  H   H83       1.0  0.74593  0.58905  0.45440  1.0000
  H   H84       1.0  0.70317  0.58399  0.45433  1.0000
  H   H85       1.0  0.67887  0.60823  0.47891  1.0000
  H   H86       1.0  0.63398  0.59825  0.47593  1.0000
  H   H87       1.0  0.63390  0.64145  0.32470  1.0000
  H   H88       1.0  0.60901  0.66655  0.32349  1.0000
  H   H89       1.0  0.55521  0.58793  0.33982  1.0000
  H   H90       1.0  0.51512  0.54795  0.33954  1.0000
  H   H91       1.0  0.56344  0.49581  0.34143  1.0000
  H   H92       1.0  0.50491  0.46830  0.47149  1.0000
  H   H93       1.0  0.49515  0.42348  0.47076  1.0000
  H   H94       1.0  0.43638  0.49445  0.32504  1.0000
  H   H95       1.0  0.50686  0.64006  0.34146  1.0000
  H   H96       1.0  0.46343  0.59676  0.34290  1.0000
  H   H97       1.0  0.43667  0.53776  0.47649  1.0000
  H   H98       1.0  0.39164  0.52729  0.47948  1.0000
  H   H99       1.0  0.36659  0.55082  0.45368  1.0000
  H   H100      1.0  0.32344  0.54482  0.45377  1.0000
  H   H101      1.0  0.56502  0.66728  0.47181  1.0000
  H   H102      1.0  0.57425  0.71192  0.47100  1.0000
  H   H103      1.0  0.61251  0.80086  0.42627  1.0000
  H   H104      1.0  0.60807  0.75805  0.41979  1.0000
  H   H105      1.0  0.46081  0.37773  0.41827  1.0000
  H   H106      1.0  0.45541  0.33451  0.42461  1.0000
  C   C163      1.0  0.46669  0.07996  0.32984  1.0000
  C   C164      1.0  0.45303  0.05274  0.32889  1.0000
  C   C165      1.0  0.47130  0.04405  0.33336  1.0000
  N   N15       1.0  0.49527  0.06624  0.33656  1.0000
  C   C166      1.0  0.49361  0.08851  0.33470  1.0000
  C   C167      1.0  0.51409  0.11532  0.33728  1.0000
  C   C168      1.0  0.54147  0.12394  0.33850  1.0000
  N   N16       1.0  0.55307  0.10899  0.33555  1.0000
  C   C169      1.0  0.57965  0.12383  0.33712  1.0000
  C   C170      1.0  0.58548  0.15002  0.34116  1.0000
  C   C171      1.0  0.56195  0.15009  0.34221  1.0000
  C   C172      1.0  0.59830  0.11509  0.33464  1.0000
  C   C173      1.0  0.59183  0.08823  0.33323  1.0000
  N   N17       1.0  0.56787  0.06604  0.33657  1.0000
  C   C174      1.0  0.56952  0.04378  0.33480  1.0000
  C   C175      1.0  0.59643  0.05233  0.32972  1.0000
  C   C176      1.0  0.61009  0.07954  0.32861  1.0000
  C   C177      1.0  0.54905  0.01696  0.33759  1.0000
  C   C178      1.0  0.52168  0.00834  0.33876  1.0000
  N   N18       1.0  0.51007  0.02329  0.33582  1.0000
  C   C179      1.0  0.48349  0.00845  0.33729  1.0000
  C   C180      1.0  0.47768  0.98225  0.34131  1.0000
  C   C181      1.0  0.50120  0.98219  0.34239  1.0000
  C   C182      1.0  0.46484  0.01720  0.33478  1.0000
  C   C183      1.0  0.43768  0.99745  0.33313  1.0000
  C   C184      1.0  0.38433  0.95533  0.33087  1.0000
  C   C185      1.0  0.39693  0.96760  0.41202  1.0000
  C   C186      1.0  0.42326  0.98833  0.41329  1.0000
  C   C187      1.0  0.35823  0.93308  0.33060  1.0000
  C   C188      1.0  0.33793  0.93257  0.38311  1.0000
  C   C189      1.0  0.31267  0.91001  0.38638  1.0000
  C   C190      1.0  0.30700  0.88710  0.33800  1.0000
  C   C191      1.0  0.55640  0.99716  0.33874  1.0000
  C   C192      1.0  0.56847  0.95560  0.34231  1.0000
  C   C193      1.0  0.56816  0.96847  0.42183  1.0000
  C   C194      1.0  0.56221  0.98896  0.42023  1.0000
  C   C195      1.0  0.57314  0.93384  0.34440  1.0000
  C   C196      1.0  0.58012  0.88863  0.34366  1.0000
  C   C197      1.0  0.56461  0.89172  0.40959  1.0000
  C   C198      1.0  0.56108  0.91377  0.40968  1.0000
  C   C199      1.0  0.62547  0.13481  0.33299  1.0000
  C   C200      1.0  0.64009  0.14354  0.41306  1.0000
  C   C201      1.0  0.66652  0.16406  0.41176  1.0000
  C   C202      1.0  0.67902  0.17649  0.33069  1.0000
  C   C203      1.0  0.70530  0.19843  0.33040  1.0000
  C   C204      1.0  0.75700  0.24374  0.33759  1.0000
  C   C205      1.0  0.75102  0.22056  0.38535  1.0000
  C   C206      1.0  0.72553  0.19833  0.38220  1.0000
  C   C207      1.0  0.50677  0.13514  0.33828  1.0000
  C   C208      1.0  0.50097  0.14320  0.41965  1.0000
  C   C209      1.0  0.49534  0.17715  0.34185  1.0000
  C   C210      1.0  0.49533  0.16390  0.42124  1.0000
  C   C211      1.0  0.49118  0.19922  0.34401  1.0000
  C   C212      1.0  0.50345  0.21902  0.40981  1.0000
  C   C213      1.0  0.50052  0.24144  0.40963  1.0000
  C   C214      1.0  0.48539  0.24515  0.34322  1.0000
  H   H107      1.0  0.51049  0.25557  0.45700  1.0000
  H   H108      1.0  0.51552  0.21785  0.45691  1.0000
  H   H109      1.0  0.49128  0.16926  0.48145  1.0000
  H   H110      1.0  0.50125  0.13436  0.47841  1.0000
  H   H111      1.0  0.45805  0.09139  0.32715  1.0000
  H   H112      1.0  0.43296  0.04140  0.32566  1.0000
  H   H113      1.0  0.51158  0.06619  0.34190  1.0000
  H   H114      1.0  0.55157  0.06609  0.34237  1.0000
  H   H115      1.0  0.56039  0.16668  0.34520  1.0000
  H   H116      1.0  0.60369  0.16656  0.34353  1.0000
  H   H117      1.0  0.63142  0.13545  0.47299  1.0000
  H   H118      1.0  0.67623  0.17051  0.47136  1.0000
  H   H119      1.0  0.63015  0.09088  0.32522  1.0000
  H   H120      1.0  0.60507  0.04090  0.32700  1.0000
  H   H121      1.0  0.45947  0.96571  0.34348  1.0000
  H   H122      1.0  0.50277  0.96559  0.34527  1.0000
  H   H123      1.0  0.56180  0.99760  0.47902  1.0000
  H   H124      1.0  0.57228  0.96304  0.48209  1.0000
  H   H125      1.0  0.54875  0.91450  0.45636  1.0000
  H   H126      1.0  0.55474  0.87735  0.45648  1.0000
  H   H127      1.0  0.43203  0.99626  0.47327  1.0000
  H   H128      1.0  0.38738  0.96086  0.47166  1.0000
  H   H129      1.0  0.29849  0.91036  0.42515  1.0000
  H   H130      1.0  0.34134  0.94873  0.41956  1.0000
  H   H131      1.0  0.72190  0.18196  0.41817  1.0000
  H   H132      1.0  0.76513  0.21977  0.42361  1.0000
  C   C215      1.0  0.23580  0.51735  0.34231  1.0000
  C   C216      1.0  0.28376  0.51732  0.33918  1.0000
  N   N19       1.0  0.27279  0.51950  0.41631  1.0000
  C   C217      1.0  0.24961  0.51948  0.42290  1.0000
  N   N20       1.0  0.24235  0.52298  0.50519  1.0000
  H   H133      1.0  0.22708  0.52501  0.51427  1.0000
  H   H134      1.0  0.25334  0.52513  0.55699  1.0000
  C   C218      1.0  0.58218  0.81739  0.34495  1.0000
  C   C219      1.0  0.58223  0.86539  0.34185  1.0000
  N   N21       1.0  0.58007  0.85210  0.41898  1.0000
  C   C220      1.0  0.58010  0.82893  0.42556  1.0000
  N   N22       1.0  0.57661  0.81800  0.50786  1.0000
  H   H135      1.0  0.57440  0.80060  0.51684  1.0000
  H   H136      1.0  0.57434  0.82669  0.55957  1.0000
  N   N23       1.0  0.24730  0.82664  0.41669  1.0000
  C   C221      1.0  0.27043  0.84983  0.42380  1.0000
  N   N24       1.0  0.28124  0.85697  0.50630  1.0000
  H   H137      1.0  0.29852  0.87227  0.51582  1.0000
  H   H138      1.0  0.27241  0.84594  0.55791  1.0000
  C   C222      1.0  0.83281  0.61445  0.34200  1.0000
  C   C223      1.0  0.78545  0.61567  0.33880  1.0000
  N   N25       1.0  0.79646  0.61335  0.41602  1.0000
  C   C224      1.0  0.81937  0.61281  0.42265  1.0000
  N   N26       1.0  0.82669  0.60925  0.50509  1.0000
  H   H139      1.0  0.84179  0.60690  0.51435  1.0000
  H   H140      1.0  0.81598  0.60752  0.55698  1.0000
  C   C225      1.0  0.48518  0.31733  0.34460  1.0000
  C   C226      1.0  0.48391  0.26875  0.34137  1.0000
  N   N27       1.0  0.48623  0.28191  0.41861  1.0000
  C   C227      1.0  0.48679  0.30535  0.42525  1.0000
  N   N28       1.0  0.49033  0.31606  0.50770  1.0000
  H   H141      1.0  0.49278  0.33353  0.51690  1.0000
  H   H142      1.0  0.49211  0.30699  0.55957  1.0000
  N   N29       1.0  0.81773  0.30316  0.41632  1.0000
  C   C228      1.0  0.79431  0.28026  0.42341  1.0000
  N   N30       1.0  0.78374  0.27301  0.50607  1.0000
  H   H143      1.0  0.76622  0.25807  0.51551  1.0000
  H   H144      1.0  0.79284  0.28388  0.55766  1.0000
