data_image0
_chemical_formula_structural       CN2C9H3C4HNOC4H6C4H3NC2H2C3NC10NC25H18C2O3C12H11C2H2C2H2
_chemical_formula_sum              "C80 N6 H48 O4"
_cell_length_a       29.9583
_cell_length_b       29.9581
_cell_length_c       14.8415
_cell_angle_alpha    90
_cell_angle_beta     90
_cell_angle_gamma    90.0715

_space_group_name_H-M_alt    "P 1"
_space_group_IT_number       1

loop_
  _space_group_symop_operation_xyz
  'x, y, z'

loop_
  _atom_site_type_symbol
  _atom_site_label
  _atom_site_symmetry_multiplicity
  _atom_site_fract_x
  _atom_site_fract_y
  _atom_site_fract_z
  _atom_site_occupancy
  C   C1        1.0  0.90615  0.04732  0.34341  1.0000
  N   N1        1.0  0.95045  0.05608  0.34340  1.0000
  N   N2        1.0  0.05217  0.05511  0.34352  1.0000
  C   C2        1.0  0.09659  0.04625  0.34292  1.0000
  C   C3        1.0  0.19084  0.01034  0.26152  1.0000
  C   C4        1.0  0.23785  0.01082  0.26148  1.0000
  C   C5        1.0  0.26250  0.00571  0.34235  1.0000
  C   C6        1.0  0.31037  0.00601  0.34209  1.0000
  C   C7        1.0  0.33468  0.03724  0.28982  1.0000
  C   C8        1.0  0.38169  0.03739  0.28915  1.0000
  C   C9        1.0  0.40644  0.00638  0.34089  1.0000
  C   C10       1.0  0.59773  0.00542  0.33871  1.0000
  H   H1        1.0  0.02954  0.03240  0.34431  1.0000
  H   H2        1.0  0.17415  0.01382  0.20174  1.0000
  H   H3        1.0  0.25395  0.01408  0.20104  1.0000
  C   C11       1.0  0.45425  0.00631  0.33970  1.0000
  C   C12       1.0  0.47824  0.01002  0.25788  1.0000
  C   C13       1.0  0.52557  0.00979  0.25531  1.0000
  C   C14       1.0  0.55005  0.00598  0.33699  1.0000
  H   H4        1.0  0.46118  0.01236  0.19832  1.0000
  N   N3        1.0  0.54868  0.01475  0.17261  1.0000
  O   O1        1.0  0.53981  0.05141  0.13558  1.0000
  C   C15       1.0  0.81273  0.01092  0.42369  1.0000
  C   C16       1.0  0.76572  0.01102  0.42305  1.0000
  C   C17       1.0  0.66898  0.03686  0.39061  1.0000
  C   C18       1.0  0.62196  0.03723  0.38939  1.0000
  H   H5        1.0  0.74936  0.01521  0.48298  1.0000
  H   H6        1.0  0.82918  0.01562  0.48341  1.0000
  H   H7        1.0  0.39774  0.06110  0.25148  1.0000
  H   H8        1.0  0.31832  0.06089  0.25265  1.0000
  H   H9        1.0  0.60552  0.06157  0.42457  1.0000
  H   H10       1.0  0.68516  0.06118  0.42638  1.0000
  C   C19       1.0  0.00730  0.81574  0.26204  1.0000
  C   C20       1.0  0.00754  0.76874  0.26226  1.0000
  C   C21       1.0  0.00678  0.52846  0.25964  1.0000
  C   C22       1.0  0.00657  0.48114  0.25708  1.0000
  H   H11       1.0  0.00885  0.54553  0.20004  1.0000
  H   H12       1.0  0.01063  0.75254  0.20189  1.0000
  H   H13       1.0  0.01080  0.83233  0.20214  1.0000
  N   N4        1.0  0.01120  0.45805  0.17428  1.0000
  C   C23       1.0  0.00842  0.19383  0.42385  1.0000
  C   C24       1.0  0.00873  0.24085  0.42351  1.0000
  H   H14       1.0  0.01308  0.17728  0.48345  1.0000
  H   H15       1.0  0.01306  0.25711  0.48352  1.0000
  C   C25       1.0  0.88647  0.92145  0.34416  1.0000
  C   C26       1.0  0.91910  0.88894  0.34388  1.0000
  C   C27       1.0  0.96077  0.90997  0.34353  1.0000
  N   N5        1.0  0.95176  0.95436  0.34313  1.0000
  C   C28       1.0  0.90734  0.96321  0.34337  1.0000
  C   C29       1.0  0.88467  0.00498  0.34335  1.0000
  C   C30       1.0  0.95906  0.10041  0.34334  1.0000
  C   C31       1.0  0.91749  0.12148  0.34354  1.0000
  C   C32       1.0  0.88495  0.08882  0.34313  1.0000
  C   C33       1.0  0.00133  0.12203  0.34337  1.0000
  C   C34       1.0  0.04318  0.09950  0.34327  1.0000
  C   C35       1.0  0.11748  0.08800  0.34247  1.0000
  C   C36       1.0  0.08486  0.12051  0.34228  1.0000
  C   C37       1.0  0.11925  0.00448  0.34304  1.0000
  N   N6        1.0  0.05350  0.95339  0.34321  1.0000
  C   C38       1.0  0.04489  0.90906  0.34306  1.0000
  C   C39       1.0  0.08646  0.88799  0.34315  1.0000
  C   C40       1.0  0.11901  0.92065  0.34291  1.0000
  C   C41       1.0  0.00263  0.88746  0.34327  1.0000
  C   C42       1.0  0.00233  0.83977  0.34326  1.0000
  C   C43       1.0  0.00265  0.74420  0.34335  1.0000
  C   C44       1.0  0.00300  0.69634  0.34339  1.0000
  C   C45       1.0  0.03425  0.62505  0.29035  1.0000
  C   C46       1.0  0.03405  0.67206  0.29076  1.0000
  C   C47       1.0  0.16694  0.00497  0.34282  1.0000
  C   C48       1.0  0.00166  0.16973  0.34320  1.0000
  C   C49       1.0  0.00195  0.26530  0.34292  1.0000
  C   C50       1.0  0.99509  0.24074  0.26245  1.0000
  C   C51       1.0  0.99511  0.19373  0.26239  1.0000
  C   C52       1.0  0.00200  0.31314  0.34269  1.0000
  C   C53       1.0  0.96965  0.33755  0.29355  1.0000
  C   C54       1.0  0.96986  0.38455  0.29260  1.0000
  C   C55       1.0  0.00259  0.40896  0.34048  1.0000
  C   C56       1.0  0.83697  0.00452  0.34311  1.0000
  C   C57       1.0  0.81312  0.99803  0.26210  1.0000
  C   C58       1.0  0.76611  0.99784  0.26184  1.0000
  C   C59       1.0  0.74140  0.00443  0.34220  1.0000
  C   C60       1.0  0.69355  0.00459  0.34157  1.0000
  C   C61       1.0  0.62207  0.97286  0.29039  1.0000
  C   C62       1.0  0.66907  0.97254  0.29165  1.0000
  H   H16       1.0  0.60569  0.94869  0.25450  1.0000
  H   H17       1.0  0.68528  0.94795  0.25677  1.0000
  H   H18       1.0  0.75004  0.99376  0.20155  1.0000
  H   H19       1.0  0.82984  0.99356  0.20263  1.0000
  H   H20       1.0  0.85296  0.91502  0.34484  1.0000
  H   H21       1.0  0.91280  0.85540  0.34412  1.0000
  H   H22       1.0  0.97439  0.97707  0.34244  1.0000
  H   H23       1.0  0.85139  0.09493  0.34284  1.0000
  H   H24       1.0  0.91128  0.15502  0.34377  1.0000
  H   H25       1.0  0.99029  0.17711  0.20290  1.0000
  H   H26       1.0  0.99085  0.25691  0.20233  1.0000
  H   H27       1.0  0.09119  0.15404  0.34150  1.0000
  H   H28       1.0  0.15099  0.09442  0.34207  1.0000
  H   H29       1.0  0.15257  0.91457  0.34263  1.0000
  H   H30       1.0  0.05756  0.68845  0.25319  1.0000
  H   H31       1.0  0.05782  0.60904  0.25236  1.0000
  H   H32       1.0  0.94498  0.32127  0.25894  1.0000
  H   H33       1.0  0.94552  0.40087  0.25721  1.0000
  C   C63       1.0  0.00339  0.55244  0.34152  1.0000
  C   C64       1.0  0.00310  0.45664  0.33881  1.0000
  O   O2        1.0  0.97998  0.46720  0.12086  1.0000
  O   O3        1.0  0.04770  0.46703  0.13664  1.0000
  O   O4        1.0  0.53943  0.98375  0.11866  1.0000
  C   C65       1.0  0.09780  0.96214  0.34323  1.0000
  C   C66       1.0  0.99748  0.76872  0.42438  1.0000
  C   C67       1.0  0.99746  0.81573  0.42451  1.0000
  C   C68       1.0  0.97228  0.67150  0.39592  1.0000
  C   C69       1.0  0.97252  0.62447  0.39562  1.0000
  C   C70       1.0  0.00345  0.60026  0.34266  1.0000
  C   C71       1.0  0.23811  0.00023  0.42346  1.0000
  C   C72       1.0  0.19110  0.99997  0.42386  1.0000
  C   C73       1.0  0.38218  0.97525  0.39344  1.0000
  C   C74       1.0  0.33516  0.97506  0.39396  1.0000
  C   C75       1.0  0.03467  0.38480  0.39045  1.0000
  C   C76       1.0  0.03439  0.33778  0.39141  1.0000
  H   H34       1.0  0.09266  0.85445  0.34325  1.0000
  H   H35       1.0  0.17461  0.99616  0.48379  1.0000
  H   H36       1.0  0.25441  0.99716  0.48373  1.0000
  H   H37       1.0  0.31916  0.95120  0.43132  1.0000
  H   H38       1.0  0.39859  0.95160  0.43051  1.0000
  H   H39       1.0  0.99405  0.83233  0.48441  1.0000
  H   H40       1.0  0.99464  0.75252  0.48480  1.0000
  H   H41       1.0  0.94905  0.60802  0.43318  1.0000
  H   H42       1.0  0.94859  0.68747  0.43363  1.0000
  H   H43       1.0  0.05890  0.32165  0.42664  1.0000
  H   H44       1.0  0.05911  0.40131  0.42534  1.0000
  C   C77       1.0  0.00016  0.48052  0.42083  1.0000
  C   C78       1.0  0.00002  0.52747  0.42210  1.0000
  H   H45       1.0  0.99750  0.46382  0.48081  1.0000
  H   H46       1.0  0.99820  0.54331  0.48308  1.0000
  C   C79       1.0  0.52617  0.00271  0.41895  1.0000
  C   C80       1.0  0.47922  0.00262  0.42022  1.0000
  H   H47       1.0  0.54286  0.99979  0.47888  1.0000
  H   H48       1.0  0.46337  0.00054  0.48116  1.0000
