data_image0
_chemical_formula_structural       C3NC3NC5NC4NC35H25C21H18C16H16C4H3NH2C4H3NH2C6H3NH2C4H3NH2C4H3NH2C6H3NH2C18H17C3NC3NC2NC5NC34H24C3NC3NC5NC5NC36H26C4H2C4HNH2C4H2C4HNH2C3H2C3HNH2C4H2C4HNH2C4H2C4HNH2C3H2C3HNH2
_chemical_formula_sum              "C276 N24 H186"
_cell_length_a       67.2307
_cell_length_b       67.2307
_cell_length_c       14.9569
_cell_angle_alpha    89.8026
_cell_angle_beta     90.1974
_cell_angle_gamma    120

_space_group_name_H-M_alt    "P 1"
_space_group_IT_number       1

loop_
  _space_group_symop_operation_xyz
  'x, y, z'

loop_
  _atom_site_type_symbol
  _atom_site_label
  _atom_site_symmetry_multiplicity
  _atom_site_fract_x
  _atom_site_fract_y
  _atom_site_fract_z
  _atom_site_occupancy
  C   C1        1.0  0.01840  0.48840  0.34265  1.0000
  C   C2        1.0  0.04212  0.50028  0.34154  1.0000
  C   C3        1.0  0.04960  0.52374  0.33645  1.0000
  N   N1        1.0  0.03020  0.52519  0.33438  1.0000
  C   C4        1.0  0.01084  0.50432  0.33768  1.0000
  C   C5        1.0  0.98743  0.49870  0.33625  1.0000
  C   C6        1.0  0.97987  0.51501  0.33365  1.0000
  N   N2        1.0  0.99283  0.53817  0.33516  1.0000
  C   C7        1.0  0.97985  0.54833  0.33219  1.0000
  C   C8        1.0  0.95705  0.53052  0.32861  1.0000
  C   C9        1.0  0.95706  0.51000  0.32945  1.0000
  C   C10       1.0  0.98738  0.57219  0.33350  1.0000
  C   C11       1.0  0.01076  0.59001  0.33636  1.0000
  N   N3        1.0  0.03016  0.58856  0.33432  1.0000
  C   C12       1.0  0.04952  0.60942  0.33770  1.0000
  C   C13       1.0  0.04196  0.62534  0.34272  1.0000
  C   C14       1.0  0.01824  0.61346  0.34154  1.0000
  C   C15       1.0  0.07293  0.61506  0.33627  1.0000
  N   N4        1.0  0.06752  0.57559  0.33528  1.0000
  C   C16       1.0  0.08050  0.56542  0.33230  1.0000
  C   C17       1.0  0.10330  0.58324  0.32868  1.0000
  C   C18       1.0  0.10329  0.60376  0.32948  1.0000
  C   C19       1.0  0.07297  0.54156  0.33366  1.0000
  C   C20       1.0  0.09023  0.53515  0.33252  1.0000
  C   C21       1.0  0.09842  0.53172  0.25057  1.0000
  C   C22       1.0  0.11634  0.52664  0.24922  1.0000
  C   C23       1.0  0.12659  0.52481  0.32947  1.0000
  C   C24       1.0  0.14552  0.52070  0.32784  1.0000
  C   C25       1.0  0.18292  0.52920  0.26708  1.0000
  C   C26       1.0  0.16386  0.53253  0.26692  1.0000
  C   C27       1.0  0.09017  0.63874  0.33859  1.0000
  C   C28       1.0  0.09684  0.65208  0.25965  1.0000
  C   C29       1.0  0.11484  0.67506  0.26131  1.0000
  C   C30       1.0  0.12679  0.68530  0.34159  1.0000
  C   C31       1.0  0.14610  0.70810  0.34202  1.0000
  C   C32       1.0  0.14558  0.72637  0.29679  1.0000
  C   C33       1.0  0.16495  0.74862  0.29545  1.0000
  C   C34       1.0  0.18568  0.75334  0.33817  1.0000
  C   C35       1.0  0.97014  0.57863  0.33231  1.0000
  C   C36       1.0  0.93410  0.58943  0.32925  1.0000
  C   C37       1.0  0.94407  0.58739  0.24898  1.0000
  C   C38       1.0  0.96185  0.58209  0.25033  1.0000
  C   C39       1.0  0.91539  0.59388  0.32764  1.0000
  C   C40       1.0  0.89687  0.58221  0.26713  1.0000
  C   C41       1.0  0.87806  0.58594  0.26717  1.0000
  C   C42       1.0  0.87696  0.60149  0.32775  1.0000
  C   C43       1.0  0.97017  0.47502  0.33866  1.0000
  C   C44       1.0  0.96322  0.46180  0.25961  1.0000
  C   C45       1.0  0.94508  0.43889  0.26128  1.0000
  C   C46       1.0  0.93325  0.42860  0.34167  1.0000
  C   C47       1.0  0.91373  0.40593  0.34208  1.0000
  C   C48       1.0  0.87368  0.36101  0.33799  1.0000
  C   C49       1.0  0.89422  0.36549  0.29479  1.0000
  C   C50       1.0  0.91382  0.38758  0.29624  1.0000
  H   H1        1.0  0.89490  0.35282  0.25954  1.0000
  H   H2        1.0  0.92827  0.39012  0.26367  1.0000
  H   H3        1.0  0.93995  0.43009  0.20219  1.0000
  H   H4        1.0  0.97093  0.46897  0.19992  1.0000
  H   H5        1.0  0.00851  0.47092  0.34616  1.0000
  H   H6        1.0  0.05206  0.49273  0.34432  1.0000
  H   H7        1.0  0.03017  0.53941  0.32849  1.0000
  H   H8        1.0  0.03018  0.57435  0.32832  1.0000
  H   H9        1.0  0.94262  0.49416  0.32706  1.0000
  H   H10       1.0  0.94261  0.53193  0.32584  1.0000
  H   H11       1.0  0.96850  0.58051  0.19106  1.0000
  H   H12       1.0  0.93853  0.58983  0.18833  1.0000
  H   H13       1.0  0.00830  0.62101  0.34435  1.0000
  H   H14       1.0  0.05184  0.64282  0.34634  1.0000
  H   H15       1.0  0.11772  0.61961  0.32701  1.0000
  H   H16       1.0  0.08901  0.64498  0.20005  1.0000
  H   H17       1.0  0.11975  0.68397  0.20230  1.0000
  H   H18       1.0  0.16397  0.76123  0.26064  1.0000
  H   H19       1.0  0.13098  0.72367  0.26461  1.0000
  H   H20       1.0  0.16392  0.54438  0.22362  1.0000
  H   H21       1.0  0.19610  0.53876  0.22388  1.0000
  H   H22       1.0  0.12183  0.52426  0.18858  1.0000
  H   H23       1.0  0.09160  0.53322  0.19130  1.0000
  H   H24       1.0  0.89651  0.57023  0.22410  1.0000
  H   H25       1.0  0.86473  0.57651  0.22426  1.0000
  C   C51       1.0  0.54026  0.51816  0.33496  1.0000
  C   C52       1.0  0.55807  0.51317  0.33145  1.0000
  C   C53       1.0  0.57859  0.53370  0.33224  1.0000
  C   C54       1.0  0.55688  0.65346  0.25325  1.0000
  C   C55       1.0  0.56196  0.67647  0.25187  1.0000
  C   C56       1.0  0.55941  0.74047  0.26961  1.0000
  C   C57       1.0  0.55607  0.71807  0.26954  1.0000
  C   C58       1.0  0.43655  0.53156  0.26211  1.0000
  C   C59       1.0  0.41356  0.52657  0.26365  1.0000
  C   C60       1.0  0.36224  0.50592  0.29879  1.0000
  C   C61       1.0  0.34000  0.50305  0.29725  1.0000
  C   C62       1.0  0.33525  0.51897  0.33997  1.0000
  C   C63       1.0  0.50121  0.44346  0.25168  1.0000
  C   C64       1.0  0.50651  0.46653  0.25303  1.0000
  C   C65       1.0  0.50640  0.40142  0.26984  1.0000
  C   C66       1.0  0.50268  0.37888  0.26988  1.0000
  C   C67       1.0  0.62676  0.58815  0.26208  1.0000
  C   C68       1.0  0.64968  0.59291  0.26364  1.0000
  C   C69       1.0  0.72759  0.59932  0.33982  1.0000
  C   C70       1.0  0.72308  0.61542  0.29662  1.0000
  C   C71       1.0  0.70099  0.61293  0.29828  1.0000
  H   H26       1.0  0.73572  0.62881  0.26123  1.0000
  H   H27       1.0  0.69843  0.62488  0.26569  1.0000
  H   H28       1.0  0.65846  0.59668  0.20452  1.0000
  H   H29       1.0  0.61958  0.58877  0.20243  1.0000
  H   H30       1.0  0.59444  0.53511  0.32990  1.0000
  H   H31       1.0  0.50810  0.47486  0.19377  1.0000
  H   H32       1.0  0.49878  0.43557  0.19102  1.0000
  H   H33       1.0  0.46758  0.47392  0.34666  1.0000
  H   H34       1.0  0.44367  0.53092  0.20256  1.0000
  H   H35       1.0  0.40467  0.52265  0.20461  1.0000
  H   H36       1.0  0.32741  0.48952  0.26233  1.0000
  H   H37       1.0  0.36496  0.49408  0.26663  1.0000
  H   H38       1.0  0.54422  0.70635  0.22623  1.0000
  H   H39       1.0  0.54983  0.74415  0.22648  1.0000
  H   H40       1.0  0.56434  0.68443  0.19122  1.0000
  H   H41       1.0  0.55536  0.64524  0.19399  1.0000
  H   H42       1.0  0.51837  0.41310  0.22680  1.0000
  H   H43       1.0  0.51210  0.37505  0.22693  1.0000
  C   C72       1.0  0.43523  0.99027  0.25452  1.0000
  C   C73       1.0  0.41223  0.97235  0.25267  1.0000
  C   C74       1.0  0.34821  0.90576  0.26880  1.0000
  C   C75       1.0  0.37061  0.92481  0.26922  1.0000
  C   C76       1.0  0.55707  0.99176  0.26461  1.0000
  C   C77       1.0  0.56208  0.97378  0.26621  1.0000
  C   C78       1.0  0.58270  0.94303  0.30144  1.0000
  C   C79       1.0  0.58557  0.92365  0.29994  1.0000
  C   C80       1.0  0.64503  0.14442  0.25237  1.0000
  C   C81       1.0  0.62196  0.12665  0.25422  1.0000
  C   C82       1.0  0.68711  0.19162  0.26932  1.0000
  C   C83       1.0  0.70965  0.21044  0.26883  1.0000
  C   C84       1.0  0.50043  0.12536  0.26453  1.0000
  C   C85       1.0  0.49563  0.14349  0.26616  1.0000
  C   C86       1.0  0.47316  0.19435  0.29925  1.0000
  C   C87       1.0  0.47565  0.17475  0.30089  1.0000
  H   H44       1.0  0.45977  0.19367  0.26389  1.0000
  H   H45       1.0  0.46369  0.16029  0.26831  1.0000
  H   H46       1.0  0.49190  0.14862  0.20704  1.0000
  H   H47       1.0  0.49979  0.11765  0.20487  1.0000
  H   H48       1.0  0.61356  0.11992  0.19515  1.0000
  H   H49       1.0  0.65285  0.14989  0.19154  1.0000
  H   H50       1.0  0.55771  0.99960  0.20503  1.0000
  H   H51       1.0  0.56598  0.96887  0.20716  1.0000
  H   H52       1.0  0.59910  0.92464  0.26500  1.0000
  H   H53       1.0  0.59454  0.95763  0.26925  1.0000
  H   H54       1.0  0.38238  0.92480  0.22603  1.0000
  H   H55       1.0  0.34457  0.89263  0.22537  1.0000
  H   H56       1.0  0.40434  0.96693  0.19187  1.0000
  H   H57       1.0  0.44352  0.99715  0.19544  1.0000
  H   H58       1.0  0.67537  0.19194  0.22649  1.0000
  H   H59       1.0  0.71342  0.22372  0.22574  1.0000
  C   C88       1.0  0.31051  0.53606  0.31618  1.0000
  C   C89       1.0  0.28884  0.53478  0.31469  1.0000
  C   C90       1.0  0.23536  0.50916  0.25381  1.0000
  C   C91       1.0  0.21467  0.50954  0.25146  1.0000
  H   H60       1.0  0.24257  0.50840  0.19461  1.0000
  H   H61       1.0  0.20726  0.50867  0.19063  1.0000
  H   H62       1.0  0.32489  0.55148  0.30241  1.0000
  N   N5        1.0  0.28806  0.55427  0.29701  1.0000
  H   H63       1.0  0.30199  0.56882  0.28522  1.0000
  H   H64       1.0  0.27372  0.55447  0.29642  1.0000
  C   C92       1.0  0.55254  0.86114  0.31880  1.0000
  C   C93       1.0  0.55381  0.84074  0.31730  1.0000
  C   C94       1.0  0.57943  0.81297  0.25642  1.0000
  C   C95       1.0  0.57904  0.79189  0.25404  1.0000
  H   H65       1.0  0.58019  0.82103  0.19722  1.0000
  H   H66       1.0  0.57992  0.78545  0.19322  1.0000
  H   H67       1.0  0.53713  0.86011  0.30503  1.0000
  N   N6        1.0  0.53432  0.82050  0.29960  1.0000
  H   H68       1.0  0.51978  0.81990  0.28781  1.0000
  H   H69       1.0  0.53412  0.80596  0.29901  1.0000
  C   C96       1.0  0.20575  0.77561  0.33419  1.0000
  C   C97       1.0  0.22747  0.77811  0.31463  1.0000
  C   C98       1.0  0.24787  0.79979  0.31354  1.0000
  C   C99       1.0  0.27572  0.85335  0.25390  1.0000
  C   C100      1.0  0.29680  0.87405  0.25211  1.0000
  C   C101      1.0  0.30903  0.88414  0.33181  1.0000
  H   H70       1.0  0.26773  0.84623  0.19451  1.0000
  H   H71       1.0  0.30332  0.88155  0.19147  1.0000
  H   H72       1.0  0.22851  0.76375  0.30062  1.0000
  N   N7        1.0  0.26812  0.80058  0.29590  1.0000
  H   H73       1.0  0.26873  0.78667  0.28384  1.0000
  H   H74       1.0  0.28266  0.81492  0.29558  1.0000
  C   C102      1.0  0.75171  0.58158  0.31644  1.0000
  C   C103      1.0  0.77319  0.58245  0.31489  1.0000
  C   C104      1.0  0.82652  0.60721  0.25326  1.0000
  C   C105      1.0  0.84699  0.60640  0.25094  1.0000
  H   H75       1.0  0.81928  0.60807  0.19402  1.0000
  H   H76       1.0  0.85422  0.60708  0.19009  1.0000
  H   H77       1.0  0.73715  0.56628  0.30317  1.0000
  N   N8        1.0  0.77354  0.56274  0.29781  1.0000
  H   H78       1.0  0.75945  0.54832  0.28648  1.0000
  H   H79       1.0  0.78774  0.56226  0.29722  1.0000
  C   C106      1.0  0.50702  0.25679  0.31904  1.0000
  C   C107      1.0  0.50616  0.27741  0.31749  1.0000
  C   C108      1.0  0.48140  0.30608  0.25589  1.0000
  C   C109      1.0  0.48222  0.32737  0.25358  1.0000
  H   H80       1.0  0.48055  0.29808  0.19665  1.0000
  H   H81       1.0  0.48154  0.33402  0.19273  1.0000
  H   H82       1.0  0.52232  0.25756  0.30576  1.0000
  N   N9        1.0  0.52586  0.29750  0.30040  1.0000
  H   H83       1.0  0.54029  0.29785  0.28907  1.0000
  H   H84       1.0  0.52635  0.31218  0.29981  1.0000
  C   C110      1.0  0.85338  0.33892  0.33387  1.0000
  C   C111      1.0  0.83178  0.33685  0.31489  1.0000
  C   C112      1.0  0.81116  0.31537  0.31376  1.0000
  C   C113      1.0  0.78243  0.26196  0.25335  1.0000
  C   C114      1.0  0.76114  0.24149  0.25157  1.0000
  C   C115      1.0  0.74899  0.23138  0.33134  1.0000
  H   H85       1.0  0.79036  0.26910  0.19392  1.0000
  H   H86       1.0  0.75442  0.23417  0.19091  1.0000
  H   H87       1.0  0.83101  0.35140  0.30138  1.0000
  N   N10       1.0  0.79107  0.31499  0.29671  1.0000
  H   H88       1.0  0.79071  0.32907  0.28511  1.0000
  H   H89       1.0  0.77639  0.30080  0.29639  1.0000
  C   C116      1.0  0.08049  0.59875  0.33371  1.0000
  C   C117      1.0  0.11799  0.52797  0.41135  1.0000
  C   C118      1.0  0.10013  0.53314  0.41299  1.0000
  C   C119      1.0  0.14696  0.50523  0.38840  1.0000
  C   C120      1.0  0.16605  0.50190  0.38860  1.0000
  C   C121      1.0  0.18445  0.51388  0.32810  1.0000
  C   C122      1.0  0.11971  0.67186  0.42064  1.0000
  C   C123      1.0  0.10164  0.64893  0.41933  1.0000
  C   C124      1.0  0.18611  0.73510  0.38393  1.0000
  C   C125      1.0  0.16671  0.71295  0.38600  1.0000
  C   C126      1.0  0.96049  0.58079  0.41279  1.0000
  C   C127      1.0  0.94278  0.58619  0.41115  1.0000
  C   C128      1.0  0.89553  0.61329  0.38788  1.0000
  C   C129      1.0  0.91437  0.60958  0.38776  1.0000
  C   C130      1.0  0.95885  0.46476  0.41953  1.0000
  C   C131      1.0  0.94064  0.44190  0.42084  1.0000
  C   C132      1.0  0.89330  0.40131  0.38653  1.0000
  C   C133      1.0  0.87368  0.37932  0.38438  1.0000
  H   H90       1.0  0.85931  0.37683  0.41748  1.0000
  H   H91       1.0  0.89227  0.41413  0.41911  1.0000
  H   H92       1.0  0.93269  0.43509  0.48050  1.0000
  H   H93       1.0  0.96347  0.47402  0.47764  1.0000
  H   H94       1.0  0.96605  0.57811  0.47303  1.0000
  H   H95       1.0  0.93574  0.58697  0.47067  1.0000
  H   H96       1.0  0.11774  0.58185  0.32586  1.0000
  H   H97       1.0  0.09721  0.63959  0.47739  1.0000
  H   H98       1.0  0.12775  0.67863  0.48023  1.0000
  H   H99       1.0  0.16805  0.70020  0.41812  1.0000
  H   H100      1.0  0.20063  0.73776  0.41667  1.0000
  H   H101      1.0  0.09468  0.53585  0.47320  1.0000
  H   H102      1.0  0.12523  0.52737  0.47084  1.0000
  H   H103      1.0  0.16632  0.49048  0.43335  1.0000
  H   H104      1.0  0.13398  0.49606  0.43289  1.0000
  H   H105      1.0  0.92750  0.61864  0.43192  1.0000
  H   H106      1.0  0.89557  0.62486  0.43226  1.0000
  C   C134      1.0  0.60020  0.61663  0.34520  1.0000
  C   C135      1.0  0.58832  0.62847  0.34411  1.0000
  C   C136      1.0  0.56486  0.61250  0.33911  1.0000
  N   N11       1.0  0.56340  0.59165  0.33707  1.0000
  C   C137      1.0  0.58428  0.59315  0.34033  1.0000
  C   C138      1.0  0.58990  0.57537  0.33890  1.0000
  C   C139      1.0  0.57359  0.55150  0.33635  1.0000
  N   N12       1.0  0.55042  0.54131  0.33785  1.0000
  C   C140      1.0  0.51640  0.50183  0.33623  1.0000
  C   C141      1.0  0.49858  0.50739  0.33896  1.0000
  N   N13       1.0  0.50003  0.52825  0.33696  1.0000
  C   C142      1.0  0.47917  0.52673  0.34027  1.0000
  C   C143      1.0  0.46325  0.50325  0.34507  1.0000
  C   C144      1.0  0.47513  0.49141  0.34393  1.0000
  C   C145      1.0  0.47354  0.54452  0.33894  1.0000
  C   C146      1.0  0.48985  0.56838  0.33647  1.0000
  N   N14       1.0  0.51301  0.57858  0.33801  1.0000
  C   C147      1.0  0.52318  0.60173  0.33508  1.0000
  C   C148      1.0  0.50536  0.60672  0.33151  1.0000
  C   C149      1.0  0.48484  0.58619  0.33230  1.0000
  C   C150      1.0  0.54704  0.61806  0.33637  1.0000
  C   C151      1.0  0.55345  0.64173  0.33521  1.0000
  C   C152      1.0  0.56380  0.68844  0.33210  1.0000
  C   C153      1.0  0.56062  0.67655  0.41400  1.0000
  C   C154      1.0  0.55547  0.65352  0.41567  1.0000
  C   C155      1.0  0.56791  0.71148  0.33045  1.0000
  C   C156      1.0  0.58338  0.72830  0.39100  1.0000
  C   C157      1.0  0.58670  0.75072  0.39119  1.0000
  C   C158      1.0  0.57472  0.75722  0.33067  1.0000
  C   C159      1.0  0.44985  0.53808  0.34114  1.0000
  C   C160      1.0  0.40329  0.52812  0.34389  1.0000
  C   C161      1.0  0.41670  0.53434  0.42302  1.0000
  C   C162      1.0  0.43963  0.53920  0.42184  1.0000
  C   C163      1.0  0.38049  0.52462  0.34420  1.0000
  C   C164      1.0  0.35347  0.53756  0.38594  1.0000
  C   C165      1.0  0.37562  0.54031  0.38813  1.0000
  C   C166      1.0  0.50996  0.47816  0.33502  1.0000
  C   C167      1.0  0.50777  0.46621  0.41550  1.0000
  C   C168      1.0  0.50239  0.44311  0.41385  1.0000
  C   C169      1.0  0.49916  0.43132  0.33194  1.0000
  C   C170      1.0  0.49471  0.40816  0.33033  1.0000
  C   C171      1.0  0.48712  0.36213  0.33041  1.0000
  C   C172      1.0  0.47531  0.36880  0.39054  1.0000
  C   C173      1.0  0.47902  0.39135  0.39043  1.0000
  C   C174      1.0  0.61358  0.58179  0.34121  1.0000
  C   C175      1.0  0.62387  0.58063  0.42203  1.0000
  C   C176      1.0  0.66000  0.59128  0.34400  1.0000
  C   C177      1.0  0.64672  0.58526  0.42322  1.0000
  C   C178      1.0  0.68267  0.59444  0.34428  1.0000
  C   C179      1.0  0.68731  0.57858  0.38875  1.0000
  C   C180      1.0  0.70930  0.58095  0.38642  1.0000
  H   H107      1.0  0.71182  0.56904  0.41952  1.0000
  H   H108      1.0  0.67452  0.56469  0.42145  1.0000
  H   H109      1.0  0.65355  0.58405  0.48286  1.0000
  H   H110      1.0  0.61462  0.57589  0.48018  1.0000
  H   H111      1.0  0.61768  0.62422  0.34864  1.0000
  H   H112      1.0  0.59587  0.64596  0.34684  1.0000
  H   H113      1.0  0.54919  0.57742  0.33126  1.0000
  H   H114      1.0  0.51425  0.54249  0.33142  1.0000
  H   H115      1.0  0.55666  0.49733  0.32875  1.0000
  H   H116      1.0  0.51047  0.47436  0.47575  1.0000
  H   H117      1.0  0.50161  0.43521  0.47337  1.0000
  H   H118      1.0  0.44577  0.49565  0.34862  1.0000
  H   H119      1.0  0.50675  0.62256  0.32872  1.0000
  H   H120      1.0  0.46899  0.58477  0.32986  1.0000
  H   H121      1.0  0.44895  0.54401  0.47995  1.0000
  H   H122      1.0  0.40991  0.53550  0.48258  1.0000
  H   H123      1.0  0.38834  0.55432  0.42046  1.0000
  H   H124      1.0  0.35078  0.54935  0.41870  1.0000
  H   H125      1.0  0.55275  0.64527  0.47588  1.0000
  H   H126      1.0  0.56125  0.68432  0.47348  1.0000
  H   H127      1.0  0.59811  0.76233  0.43594  1.0000
  H   H128      1.0  0.59254  0.72443  0.43549  1.0000
  H   H129      1.0  0.46995  0.39534  0.43457  1.0000
  H   H130      1.0  0.46373  0.35720  0.43489  1.0000
  C   C181      1.0  0.47195  0.07017  0.34723  1.0000
  C   C182      1.0  0.46011  0.04646  0.34598  1.0000
  C   C183      1.0  0.47610  0.03898  0.34110  1.0000
  N   N15       1.0  0.49694  0.05839  0.33924  1.0000
  C   C184      1.0  0.49543  0.07774  0.34256  1.0000
  C   C185      1.0  0.51321  0.10115  0.34127  1.0000
  C   C186      1.0  0.53708  0.10872  0.33864  1.0000
  N   N16       1.0  0.54728  0.09576  0.34005  1.0000
  C   C187      1.0  0.57043  0.10874  0.33692  1.0000
  C   C188      1.0  0.57541  0.13154  0.33337  1.0000
  C   C189      1.0  0.55488  0.13153  0.33442  1.0000
  C   C190      1.0  0.58676  0.10121  0.33812  1.0000
  C   C191      1.0  0.58120  0.07784  0.34113  1.0000
  N   N17       1.0  0.56035  0.05844  0.33929  1.0000
  C   C192      1.0  0.56187  0.03908  0.34269  1.0000
  C   C193      1.0  0.58535  0.04665  0.34757  1.0000
  C   C194      1.0  0.59719  0.07036  0.34622  1.0000
  C   C195      1.0  0.54409  0.01567  0.34134  1.0000
  C   C196      1.0  0.52022  0.00810  0.33876  1.0000
  N   N18       1.0  0.51002  0.02106  0.34025  1.0000
  C   C197      1.0  0.48687  0.00808  0.33717  1.0000
  C   C198      1.0  0.48190  0.98528  0.33354  1.0000
  C   C199      1.0  0.50243  0.98530  0.33448  1.0000
  C   C200      1.0  0.47054  0.01561  0.33831  1.0000
  C   C201      1.0  0.44687  0.99835  0.33672  1.0000
  C   C202      1.0  0.40017  0.96200  0.33264  1.0000
  C   C203      1.0  0.41197  0.97048  0.41477  1.0000
  C   C204      1.0  0.43500  0.98836  0.41691  1.0000
  C   C205      1.0  0.37713  0.94307  0.33047  1.0000
  C   C206      1.0  0.36024  0.94154  0.39084  1.0000
  C   C207      1.0  0.33782  0.92246  0.39047  1.0000
  C   C208      1.0  0.33138  0.90415  0.32961  1.0000
  C   C209      1.0  0.55054  0.99842  0.34360  1.0000
  C   C210      1.0  0.56050  0.96181  0.34645  1.0000
  C   C211      1.0  0.55426  0.96888  0.42554  1.0000
  C   C212      1.0  0.54940  0.98695  0.42431  1.0000
  C   C213      1.0  0.56399  0.94251  0.34680  1.0000
  C   C214      1.0  0.56964  0.90292  0.34262  1.0000
  C   C215      1.0  0.55105  0.90249  0.38857  1.0000
  C   C216      1.0  0.54831  0.92189  0.39079  1.0000
  C   C217      1.0  0.61043  0.11845  0.33645  1.0000
  C   C218      1.0  0.62247  0.12819  0.41667  1.0000
  C   C219      1.0  0.64557  0.14591  0.41451  1.0000
  C   C220      1.0  0.65727  0.15449  0.33236  1.0000
  C   C221      1.0  0.68043  0.17320  0.33021  1.0000
  C   C222      1.0  0.72646  0.21162  0.32921  1.0000
  C   C223      1.0  0.71986  0.19313  0.38971  1.0000
  C   C224      1.0  0.69730  0.17429  0.39013  1.0000
  C   C225      1.0  0.50679  0.11841  0.34364  1.0000
  C   C226      1.0  0.50796  0.12973  0.42447  1.0000
  C   C227      1.0  0.49729  0.15533  0.34652  1.0000
  C   C228      1.0  0.50332  0.14795  0.42572  1.0000
  C   C229      1.0  0.49414  0.17485  0.34684  1.0000
  C   C230      1.0  0.51001  0.19528  0.39133  1.0000
  C   C231      1.0  0.50764  0.21491  0.38900  1.0000
  C   C232      1.0  0.48927  0.21490  0.34243  1.0000
  H   H131      1.0  0.51956  0.22929  0.42208  1.0000
  H   H132      1.0  0.52390  0.19632  0.42396  1.0000
  H   H133      1.0  0.50455  0.15590  0.48536  1.0000
  H   H134      1.0  0.51270  0.12513  0.48260  1.0000
  H   H135      1.0  0.46436  0.08006  0.35067  1.0000
  H   H136      1.0  0.44263  0.03651  0.34860  1.0000
  H   H137      1.0  0.51118  0.05841  0.33381  1.0000
  H   H138      1.0  0.54611  0.05841  0.33337  1.0000
  H   H139      1.0  0.55346  0.14596  0.33200  1.0000
  H   H140      1.0  0.59125  0.14599  0.33051  1.0000
  H   H141      1.0  0.61439  0.12272  0.47708  1.0000
  H   H142      1.0  0.65355  0.15302  0.47386  1.0000
  H   H143      1.0  0.61468  0.08030  0.34884  1.0000
  H   H144      1.0  0.59296  0.03676  0.35108  1.0000
  H   H145      1.0  0.46606  0.97084  0.33062  1.0000
  H   H146      1.0  0.50385  0.97087  0.33201  1.0000
  H   H147      1.0  0.54459  0.99138  0.48241  1.0000
  H   H148      1.0  0.55310  0.96084  0.48512  1.0000
  H   H149      1.0  0.53429  0.92055  0.42302  1.0000
  H   H150      1.0  0.53925  0.88796  0.42130  1.0000
  H   H151      1.0  0.44317  0.99373  0.47729  1.0000
  H   H152      1.0  0.40413  0.96319  0.47408  1.0000
  H   H153      1.0  0.32615  0.92213  0.43509  1.0000
  H   H154      1.0  0.36406  0.95446  0.43555  1.0000
  H   H155      1.0  0.69336  0.16123  0.43454  1.0000
  H   H156      1.0  0.73151  0.19315  0.43398  1.0000
  C   C233      1.0  0.31298  0.51679  0.33573  1.0000
  C   C234      1.0  0.26885  0.51327  0.33293  1.0000
  C   C235      1.0  0.27110  0.49384  0.35114  1.0000
  C   C236      1.0  0.29283  0.49558  0.35227  1.0000
  H   H157      1.0  0.25691  0.47829  0.36504  1.0000
  H   H158      1.0  0.29385  0.48129  0.36796  1.0000
  C   C237      1.0  0.24659  0.51086  0.33581  1.0000
  C   C238      1.0  0.20445  0.51153  0.33087  1.0000
  C   C239      1.0  0.21545  0.51250  0.41295  1.0000
  C   C240      1.0  0.23646  0.51237  0.41711  1.0000
  H   H159      1.0  0.20861  0.51447  0.47105  1.0000
  N   N19       1.0  0.24643  0.51429  0.49843  1.0000
  H   H160      1.0  0.26088  0.51445  0.50490  1.0000
  H   H161      1.0  0.23926  0.51541  0.55319  1.0000
  C   C241      1.0  0.57181  0.88284  0.33839  1.0000
  C   C242      1.0  0.57532  0.84223  0.33555  1.0000
  C   C243      1.0  0.59475  0.86387  0.35378  1.0000
  C   C244      1.0  0.59302  0.88387  0.35493  1.0000
  H   H162      1.0  0.61030  0.86521  0.36768  1.0000
  H   H163      1.0  0.60732  0.89915  0.37062  1.0000
  C   C245      1.0  0.57773  0.82237  0.33841  1.0000
  C   C246      1.0  0.57706  0.77957  0.33345  1.0000
  C   C247      1.0  0.57609  0.78947  0.41555  1.0000
  C   C248      1.0  0.57622  0.81060  0.41971  1.0000
  H   H164      1.0  0.57412  0.78057  0.47364  1.0000
  N   N20       1.0  0.57429  0.81852  0.50104  1.0000
  H   H165      1.0  0.57414  0.83281  0.50751  1.0000
  H   H166      1.0  0.57318  0.81015  0.55579  1.0000
  C   C249      1.0  0.24636  0.81975  0.33218  1.0000
  C   C250      1.0  0.22470  0.81748  0.35033  1.0000
  C   C251      1.0  0.20470  0.79574  0.35106  1.0000
  H   H167      1.0  0.22335  0.83165  0.36452  1.0000
  H   H168      1.0  0.18941  0.79471  0.36677  1.0000
  C   C252      1.0  0.26621  0.84200  0.33562  1.0000
  C   C253      1.0  0.29902  0.87303  0.41362  1.0000
  C   C254      1.0  0.27788  0.85202  0.41721  1.0000
  H   H169      1.0  0.30786  0.87979  0.47191  1.0000
  N   N21       1.0  0.26987  0.84193  0.49828  1.0000
  H   H170      1.0  0.25557  0.82746  0.50437  1.0000
  H   H171      1.0  0.27817  0.84902  0.55324  1.0000
  C   C255      1.0  0.74967  0.60110  0.33543  1.0000
  C   C256      1.0  0.79344  0.60380  0.33246  1.0000
  C   C257      1.0  0.79162  0.62347  0.35007  1.0000
  C   C258      1.0  0.77007  0.62214  0.35128  1.0000
  H   H172      1.0  0.80600  0.63891  0.36349  1.0000
  H   H173      1.0  0.76937  0.63660  0.36654  1.0000
  C   C259      1.0  0.81552  0.60580  0.33529  1.0000
  C   C260      1.0  0.85721  0.60426  0.33042  1.0000
  C   C261      1.0  0.84646  0.60358  0.41252  1.0000
  C   C262      1.0  0.82568  0.60414  0.41665  1.0000
  H   H174      1.0  0.85331  0.60150  0.47068  1.0000
  N   N22       1.0  0.81594  0.60247  0.49801  1.0000
  H   H175      1.0  0.80164  0.60261  0.50447  1.0000
  H   H176      1.0  0.82311  0.60125  0.55281  1.0000
  C   C263      1.0  0.48750  0.23521  0.33805  1.0000
  C   C264      1.0  0.48480  0.27628  0.33508  1.0000
  C   C265      1.0  0.46513  0.25477  0.35271  1.0000
  C   C266      1.0  0.46646  0.23455  0.35392  1.0000
  H   H177      1.0  0.44970  0.25370  0.36613  1.0000
  H   H178      1.0  0.45199  0.21937  0.36918  1.0000
  C   C267      1.0  0.48281  0.29637  0.33791  1.0000
  C   C268      1.0  0.48435  0.33960  0.33306  1.0000
  C   C269      1.0  0.48502  0.32941  0.41517  1.0000
  C   C270      1.0  0.48446  0.30806  0.41928  1.0000
  H   H179      1.0  0.48709  0.33824  0.47333  1.0000
  N   N23       1.0  0.48613  0.29985  0.50065  1.0000
  H   H180      1.0  0.48598  0.28540  0.50710  1.0000
  H   H181      1.0  0.48734  0.30816  0.55545  1.0000
  C   C271      1.0  0.81231  0.29515  0.33173  1.0000
  C   C272      1.0  0.83384  0.29699  0.34928  1.0000
  C   C273      1.0  0.85406  0.31854  0.35008  1.0000
  H   H182      1.0  0.83493  0.28263  0.36299  1.0000
  H   H183      1.0  0.86925  0.31926  0.36535  1.0000
  C   C274      1.0  0.79223  0.27306  0.33510  1.0000
  C   C275      1.0  0.75928  0.24224  0.41317  1.0000
  C   C276      1.0  0.78063  0.26302  0.41674  1.0000
  H   H184      1.0  0.75051  0.23547  0.47152  1.0000
  N   N24       1.0  0.78893  0.27289  0.49787  1.0000
  H   H185      1.0  0.80338  0.28719  0.50396  1.0000
  H   H186      1.0  0.78067  0.26578  0.55286  1.0000
