data_image0
_chemical_formula_structural       C3NC3NC5NC5NC36H26C4H4CNC2OHNCNC2OHNC16H16NC2HN2C2HN
_chemical_formula_sum              "C82 N12 H50 O2"
_cell_length_a       34.4951
_cell_length_b       34.4951
_cell_length_c       14.7517
_cell_angle_alpha    90
_cell_angle_beta     90
_cell_angle_gamma    90.169

_space_group_name_H-M_alt    "P 1"
_space_group_IT_number       1

loop_
  _space_group_symop_operation_xyz
  'x, y, z'

loop_
  _atom_site_type_symbol
  _atom_site_label
  _atom_site_symmetry_multiplicity
  _atom_site_fract_x
  _atom_site_fract_y
  _atom_site_fract_z
  _atom_site_occupancy
  C   C1        1.0  0.10989  0.08217  0.33184  1.0000
  C   C2        1.0  0.08131  0.11021  0.33131  1.0000
  C   C3        1.0  0.04517  0.09181  0.33267  1.0000
  N   N1        1.0  0.05345  0.05324  0.33358  1.0000
  C   C4        1.0  0.09217  0.04568  0.33268  1.0000
  C   C5        1.0  0.11245  0.00959  0.33263  1.0000
  C   C6        1.0  0.09369  0.97268  0.33269  1.0000
  N   N2        1.0  0.05518  0.96455  0.33331  1.0000
  C   C7        1.0  0.04776  0.92589  0.33217  1.0000
  C   C8        1.0  0.08407  0.90807  0.33097  1.0000
  C   C9        1.0  0.11219  0.93671  0.33097  1.0000
  C   C10       1.0  0.01122  0.90644  0.33230  1.0000
  C   C11       1.0  0.97474  0.92598  0.33270  1.0000
  N   N3        1.0  0.96644  0.96454  0.33247  1.0000
  C   C12       1.0  0.92772  0.97206  0.33207  1.0000
  C   C13       1.0  0.91004  0.93554  0.33274  1.0000
  C   C14       1.0  0.93863  0.90752  0.33273  1.0000
  C   C15       1.0  0.90742  0.00815  0.33158  1.0000
  C   C16       1.0  0.92620  0.04505  0.33184  1.0000
  N   N4        1.0  0.96472  0.05321  0.33257  1.0000
  C   C17       1.0  0.97215  0.09187  0.33178  1.0000
  C   C18       1.0  0.93582  0.10966  0.33090  1.0000
  C   C19       1.0  0.90771  0.08101  0.33037  1.0000
  C   C20       1.0  0.00869  0.11137  0.33196  1.0000
  C   C21       1.0  0.00860  0.15319  0.32927  1.0000
  C   C22       1.0  0.00113  0.17322  0.24754  1.0000
  C   C23       1.0  0.99978  0.21412  0.24503  1.0000
  C   C24       1.0  0.00595  0.23705  0.32372  1.0000
  C   C25       1.0  0.00303  0.27892  0.32105  1.0000
  C   C26       1.0  0.99651  0.36290  0.31275  1.0000
  C   C27       1.0  0.97090  0.33816  0.26451  1.0000
  C   C28       1.0  0.97407  0.29743  0.26855  1.0000
  C   C29       1.0  0.86561  0.00732  0.32887  1.0000
  C   C30       1.0  0.84568  0.99929  0.24722  1.0000
  C   C31       1.0  0.80479  0.99771  0.24443  1.0000
  C   C32       1.0  0.78175  0.00423  0.32274  1.0000
  C   C33       1.0  0.73987  0.00133  0.31971  1.0000
  C   C34       1.0  0.72122  0.97223  0.26754  1.0000
  C   C35       1.0  0.68047  0.96922  0.26290  1.0000
  C   C36       1.0  0.65585  0.99509  0.31025  1.0000
  C   C37       1.0  0.01129  0.86466  0.32983  1.0000
  C   C38       1.0  0.01289  0.78076  0.32382  1.0000
  C   C39       1.0  0.01617  0.80369  0.24414  1.0000
  C   C40       1.0  0.01541  0.84460  0.24689  1.0000
  C   C41       1.0  0.01453  0.73878  0.32028  1.0000
  C   C42       1.0  0.03946  0.71946  0.25868  1.0000
  C   C43       1.0  0.04035  0.67868  0.25182  1.0000
  C   C44       1.0  0.01663  0.65477  0.30690  1.0000
  C   C45       1.0  0.15424  0.01035  0.33023  1.0000
  C   C46       1.0  0.17431  0.01681  0.24805  1.0000
  C   C47       1.0  0.21522  0.01779  0.24538  1.0000
  C   C48       1.0  0.23816  0.01231  0.32433  1.0000
  C   C49       1.0  0.28013  0.01398  0.32093  1.0000
  C   C50       1.0  0.36412  0.01617  0.30739  1.0000
  C   C51       1.0  0.34040  0.04163  0.25662  1.0000
  C   C52       1.0  0.29962  0.04069  0.26361  1.0000
  H   H1        1.0  0.35269  0.06120  0.21293  1.0000
  H   H2        1.0  0.28419  0.06014  0.22581  1.0000
  H   H3        1.0  0.22819  0.02196  0.18378  1.0000
  H   H4        1.0  0.15916  0.02084  0.18916  1.0000
  H   H5        1.0  0.13894  0.08805  0.33101  1.0000
  H   H6        1.0  0.08663  0.13936  0.32984  1.0000
  H   H7        1.0  0.03392  0.03334  0.33442  1.0000
  H   H8        1.0  0.98596  0.98445  0.33175  1.0000
  H   H9        1.0  0.14135  0.93163  0.32964  1.0000
  H   H10       1.0  0.08968  0.87900  0.32993  1.0000
  H   H11       1.0  0.01795  0.85975  0.18751  1.0000
  H   H12       1.0  0.01861  0.79073  0.18207  1.0000
  H   H13       1.0  0.93335  0.87836  0.33283  1.0000
  H   H14       1.0  0.88099  0.92963  0.33316  1.0000
  H   H15       1.0  0.93015  0.13871  0.33036  1.0000
  H   H16       1.0  0.87854  0.08610  0.32913  1.0000
  H   H17       1.0  0.86094  0.99432  0.18888  1.0000
  H   H18       1.0  0.79189  0.99212  0.18337  1.0000
  H   H19       1.0  0.66890  0.94755  0.22380  1.0000
  H   H20       1.0  0.73727  0.95225  0.23281  1.0000
  H   H21       1.0  0.95424  0.28129  0.23326  1.0000
  H   H22       1.0  0.94932  0.34963  0.22522  1.0000
  H   H23       1.0  0.99449  0.22710  0.18395  1.0000
  H   H24       1.0  0.99629  0.15804  0.18898  1.0000
  H   H25       1.0  0.05765  0.73501  0.21764  1.0000
  H   H26       1.0  0.05860  0.66654  0.20506  1.0000
  C   C53       1.0  0.99254  0.40340  0.30469  1.0000
  C   C54       1.0  0.61534  0.99139  0.30131  1.0000
  C   C55       1.0  0.01657  0.61450  0.29300  1.0000
  C   C56       1.0  0.40433  0.01621  0.29293  1.0000
  H   H27       1.0  0.97218  0.41328  0.26279  1.0000
  H   H28       1.0  0.41364  0.02373  0.23148  1.0000
  H   H29       1.0  0.02303  0.60513  0.23098  1.0000
  H   H30       1.0  0.60538  0.97183  0.25735  1.0000
  C   C57       1.0  0.01158  0.46794  0.34221  1.0000
  N   N5        1.0  0.01396  0.53008  0.27009  1.0000
  C   C58       1.0  0.01461  0.49063  0.26184  1.0000
  C   C59       1.0  0.02082  0.47575  0.17627  1.0000
  O   O1        1.0  0.00035  0.48739  0.11444  1.0000
  H   H31       1.0  0.02934  0.44844  0.17037  1.0000
  N   N6        1.0  0.01307  0.42902  0.34707  1.0000
  C   C60       1.0  0.55090  0.00985  0.34085  1.0000
  N   N7        1.0  0.48872  0.01312  0.26904  1.0000
  C   C61       1.0  0.52817  0.01372  0.26078  1.0000
  C   C62       1.0  0.54297  0.02056  0.17541  1.0000
  O   O2        1.0  0.53409  0.99693  0.11720  1.0000
  H   H32       1.0  0.56982  0.03054  0.17044  1.0000
  N   N8        1.0  0.58984  0.01110  0.34575  1.0000
  C   C63       1.0  0.01417  0.21666  0.40504  1.0000
  C   C64       1.0  0.01528  0.17569  0.40796  1.0000
  C   C65       1.0  0.02841  0.30367  0.37018  1.0000
  C   C66       1.0  0.02538  0.34457  0.36590  1.0000
  C   C67       1.0  0.80203  0.01289  0.40401  1.0000
  C   C68       1.0  0.84300  0.01426  0.40720  1.0000
  C   C69       1.0  0.67430  0.02407  0.36317  1.0000
  C   C70       1.0  0.71522  0.02697  0.36801  1.0000
  C   C71       1.0  0.00761  0.84224  0.40967  1.0000
  C   C72       1.0  0.00828  0.80127  0.40656  1.0000
  C   C73       1.0  0.99225  0.67371  0.37008  1.0000
  C   C74       1.0  0.99132  0.71466  0.37659  1.0000
  C   C75       1.0  0.17669  0.00452  0.40930  1.0000
  C   C76       1.0  0.21766  0.00538  0.40624  1.0000
  C   C77       1.0  0.30406  0.98897  0.37295  1.0000
  C   C78       1.0  0.34502  0.98995  0.36637  1.0000
  H   H33       1.0  0.36079  0.97039  0.40311  1.0000
  H   H34       1.0  0.29175  0.96852  0.41418  1.0000
  H   H35       1.0  0.23248  0.00181  0.46568  1.0000
  H   H36       1.0  0.16323  0.99982  0.47016  1.0000
  H   H37       1.0  0.00474  0.85572  0.47110  1.0000
  H   H38       1.0  0.00642  0.78648  0.46648  1.0000
  H   H39       1.0  0.85633  0.02003  0.46771  1.0000
  H   H40       1.0  0.78708  0.01722  0.46301  1.0000
  H   H41       1.0  0.72694  0.04894  0.40573  1.0000
  H   H42       1.0  0.65802  0.04374  0.39828  1.0000
  H   H43       1.0  0.02056  0.16228  0.46857  1.0000
  H   H44       1.0  0.01816  0.23153  0.46431  1.0000
  H   H45       1.0  0.04482  0.36095  0.40179  1.0000
  H   H46       1.0  0.05024  0.29204  0.40831  1.0000
  H   H47       1.0  0.97219  0.72683  0.42117  1.0000
  H   H48       1.0  0.97402  0.65780  0.41033  1.0000
  N   N9        1.0  0.00834  0.48767  0.42182  1.0000
  C   C79       1.0  0.00721  0.52703  0.42856  1.0000
  C   C80       1.0  0.01013  0.54986  0.34958  1.0000
  H   H49       1.0  0.00480  0.53960  0.49102  1.0000
  N   N10       1.0  0.01013  0.58879  0.35493  1.0000
  N   N11       1.0  0.53120  0.00591  0.42034  1.0000
  C   C81       1.0  0.49183  0.00487  0.42716  1.0000
  C   C82       1.0  0.46898  0.00863  0.34844  1.0000
  H   H50       1.0  0.47928  0.00188  0.48953  1.0000
  N   N12       1.0  0.43006  0.00866  0.35402  1.0000
