data_image0
_chemical_formula_structural       C3NC3NC5NC4NC35H25C21H18C16H16NC2HNCHCNC2HNC2HNCHCNC2HC18H17C3NC3NC2NC5NC34H24C3NC3NC5NC5NC36H26CNCHCNC2HCNHCNCHCNC2HCNH
_chemical_formula_sum              "C228 N24 H138"
_cell_length_a       58.5812
_cell_length_b       58.5812
_cell_length_c       14.9841
_cell_angle_alpha    89.773
_cell_angle_beta     90.227
_cell_angle_gamma    120

_space_group_name_H-M_alt    "P 1"
_space_group_IT_number       1

loop_
  _space_group_symop_operation_xyz
  'x, y, z'

loop_
  _atom_site_type_symbol
  _atom_site_label
  _atom_site_symmetry_multiplicity
  _atom_site_fract_x
  _atom_site_fract_y
  _atom_site_fract_z
  _atom_site_occupancy
  C   C1        1.0  0.01932  0.48548  0.32922  1.0000
  C   C2        1.0  0.04653  0.49905  0.32873  1.0000
  C   C3        1.0  0.05519  0.52602  0.33030  1.0000
  N   N1        1.0  0.03299  0.52778  0.33182  1.0000
  C   C4        1.0  0.01074  0.50385  0.33146  1.0000
  C   C5        1.0  0.98391  0.49748  0.33279  1.0000
  C   C6        1.0  0.97528  0.51622  0.33303  1.0000
  N   N2        1.0  0.99022  0.54278  0.33149  1.0000
  C   C7        1.0  0.97536  0.55450  0.33204  1.0000
  C   C8        1.0  0.94915  0.53410  0.33376  1.0000
  C   C9        1.0  0.94910  0.51053  0.33490  1.0000
  C   C10       1.0  0.98409  0.58189  0.33070  1.0000
  C   C11       1.0  0.01094  0.60230  0.33016  1.0000
  N   N3        1.0  0.03314  0.60053  0.33181  1.0000
  C   C12       1.0  0.05539  0.62447  0.33157  1.0000
  C   C13       1.0  0.04680  0.64284  0.32928  1.0000
  C   C14       1.0  0.01960  0.62927  0.32860  1.0000
  C   C15       1.0  0.08222  0.63084  0.33304  1.0000
  N   N4        1.0  0.07591  0.58554  0.33177  1.0000
  C   C16       1.0  0.09078  0.57383  0.33229  1.0000
  C   C17       1.0  0.11699  0.59423  0.33386  1.0000
  C   C18       1.0  0.11703  0.61780  0.33501  1.0000
  C   C19       1.0  0.08204  0.54643  0.33097  1.0000
  C   C20       1.0  0.10178  0.53901  0.33025  1.0000
  C   C21       1.0  0.11029  0.53372  0.24892  1.0000
  C   C22       1.0  0.13089  0.52794  0.24788  1.0000
  C   C23       1.0  0.14365  0.52738  0.32776  1.0000
  C   C24       1.0  0.16565  0.52309  0.32629  1.0000
  C   C25       1.0  0.20804  0.53238  0.26211  1.0000
  C   C26       1.0  0.18566  0.53536  0.26106  1.0000
  C   C27       1.0  0.10200  0.65799  0.33438  1.0000
  C   C28       1.0  0.11531  0.67089  0.25535  1.0000
  C   C29       1.0  0.13580  0.69730  0.25769  1.0000
  C   C30       1.0  0.14354  0.71165  0.33875  1.0000
  C   C31       1.0  0.16526  0.73810  0.34145  1.0000
  C   C32       1.0  0.16917  0.75653  0.27334  1.0000
  C   C33       1.0  0.19138  0.78203  0.27359  1.0000
  C   C34       1.0  0.21048  0.79027  0.34246  1.0000
  C   C35       1.0  0.96437  0.58933  0.32986  1.0000
  C   C36       1.0  0.92293  0.60159  0.32737  1.0000
  C   C37       1.0  0.93531  0.60071  0.24740  1.0000
  C   C38       1.0  0.95570  0.59463  0.24844  1.0000
  C   C39       1.0  0.90125  0.60638  0.32600  1.0000
  C   C40       1.0  0.88097  0.59429  0.26134  1.0000
  C   C41       1.0  0.85895  0.59787  0.26230  1.0000
  C   C42       1.0  0.85626  0.61350  0.32851  1.0000
  C   C43       1.0  0.96411  0.47032  0.33395  1.0000
  C   C44       1.0  0.95050  0.45767  0.25501  1.0000
  C   C45       1.0  0.92982  0.43135  0.25735  1.0000
  C   C46       1.0  0.92217  0.41684  0.33831  1.0000
  C   C47       1.0  0.90015  0.39055  0.34112  1.0000
  C   C48       1.0  0.85422  0.33885  0.34210  1.0000
  C   C49       1.0  0.87307  0.34691  0.27280  1.0000
  C   C50       1.0  0.89562  0.37218  0.27257  1.0000
  H   H1        1.0  0.87059  0.33445  0.22129  1.0000
  H   H2        1.0  0.90875  0.37704  0.22127  1.0000
  H   H3        1.0  0.91975  0.42321  0.19942  1.0000
  H   H4        1.0  0.95510  0.46776  0.19577  1.0000
  H   H5        1.0  0.00793  0.46540  0.32817  1.0000
  H   H6        1.0  0.05788  0.49032  0.32760  1.0000
  H   H7        1.0  0.03303  0.54417  0.33420  1.0000
  H   H8        1.0  0.03311  0.58414  0.33420  1.0000
  H   H9        1.0  0.93249  0.49237  0.33660  1.0000
  H   H10       1.0  0.93259  0.53575  0.33448  1.0000
  H   H11       1.0  0.96396  0.59379  0.18935  1.0000
  H   H12       1.0  0.92958  0.60450  0.18718  1.0000
  H   H13       1.0  0.00825  0.63801  0.32739  1.0000
  H   H14       1.0  0.05820  0.66292  0.32828  1.0000
  H   H15       1.0  0.13364  0.63597  0.33656  1.0000
  H   H16       1.0  0.11060  0.66094  0.19599  1.0000
  H   H17       1.0  0.14562  0.70565  0.19963  1.0000
  H   H18       1.0  0.19341  0.79454  0.22247  1.0000
  H   H19       1.0  0.15583  0.75155  0.22242  1.0000
  H   H20       1.0  0.18469  0.54754  0.21393  1.0000
  H   H21       1.0  0.22245  0.54240  0.21564  1.0000
  H   H22       1.0  0.13653  0.52419  0.18770  1.0000
  H   H23       1.0  0.10181  0.53442  0.18986  1.0000
  H   H24       1.0  0.88150  0.58188  0.21459  1.0000
  H   H25       1.0  0.84432  0.58799  0.21624  1.0000
  C   C51       1.0  0.54454  0.51974  0.33475  1.0000
  C   C52       1.0  0.56493  0.51392  0.33631  1.0000
  C   C53       1.0  0.58851  0.53744  0.33742  1.0000
  C   C54       1.0  0.56535  0.67562  0.25171  1.0000
  C   C55       1.0  0.57113  0.70201  0.25063  1.0000
  C   C56       1.0  0.56670  0.77469  0.26469  1.0000
  C   C57       1.0  0.56369  0.74932  0.26376  1.0000
  C   C58       1.0  0.42823  0.54346  0.25745  1.0000
  C   C59       1.0  0.40182  0.53752  0.25943  1.0000
  C   C60       1.0  0.34258  0.51161  0.27440  1.0000
  C   C61       1.0  0.31707  0.50830  0.27421  1.0000
  C   C62       1.0  0.30875  0.51905  0.34276  1.0000
  C   C63       1.0  0.49831  0.43365  0.25016  1.0000
  C   C64       1.0  0.50439  0.46013  0.25121  1.0000
  C   C65       1.0  0.50476  0.38572  0.26409  1.0000
  C   C66       1.0  0.50120  0.36012  0.26503  1.0000
  C   C67       1.0  0.64130  0.59188  0.25712  1.0000
  C   C68       1.0  0.66763  0.59751  0.25911  1.0000
  C   C69       1.0  0.76022  0.61427  0.34242  1.0000
  C   C70       1.0  0.75208  0.62523  0.27343  1.0000
  C   C71       1.0  0.72681  0.62250  0.27364  1.0000
  H   H26       1.0  0.76449  0.63534  0.22184  1.0000
  H   H27       1.0  0.72189  0.63088  0.22254  1.0000
  H   H28       1.0  0.67572  0.59574  0.20101  1.0000
  H   H29       1.0  0.63116  0.58653  0.19797  1.0000
  H   H30       1.0  0.60667  0.53899  0.33906  1.0000
  H   H31       1.0  0.50524  0.46935  0.19212  1.0000
  H   H32       1.0  0.49452  0.42426  0.18993  1.0000
  H   H33       1.0  0.46102  0.46914  0.33035  1.0000
  H   H34       1.0  0.43822  0.54877  0.19816  1.0000
  H   H35       1.0  0.39350  0.53906  0.20119  1.0000
  H   H36       1.0  0.30461  0.49789  0.22300  1.0000
  H   H37       1.0  0.34761  0.50333  0.22370  1.0000
  H   H38       1.0  0.55152  0.73627  0.21663  1.0000
  H   H39       1.0  0.55664  0.77915  0.21831  1.0000
  H   H40       1.0  0.57487  0.71151  0.19044  1.0000
  H   H41       1.0  0.56463  0.66656  0.19264  1.0000
  H   H42       1.0  0.51716  0.39875  0.21730  1.0000
  H   H43       1.0  0.51106  0.35547  0.21891  1.0000
  C   C72       1.0  0.42355  0.98886  0.25314  1.0000
  C   C73       1.0  0.39717  0.96827  0.25156  1.0000
  C   C74       1.0  0.32449  0.89110  0.26411  1.0000
  C   C75       1.0  0.34985  0.91348  0.26366  1.0000
  C   C76       1.0  0.55561  0.98382  0.26011  1.0000
  C   C77       1.0  0.56156  0.96334  0.26210  1.0000
  C   C78       1.0  0.58747  0.92998  0.27711  1.0000
  C   C79       1.0  0.59077  0.90778  0.27692  1.0000
  C   C80       1.0  0.66525  0.16360  0.25105  1.0000
  C   C81       1.0  0.63878  0.14322  0.25265  1.0000
  C   C82       1.0  0.71323  0.21796  0.26385  1.0000
  C   C83       1.0  0.73882  0.23998  0.26425  1.0000
  C   C84       1.0  0.50717  0.14846  0.25972  1.0000
  C   C85       1.0  0.50151  0.16913  0.26169  1.0000
  C   C86       1.0  0.47384  0.22587  0.27607  1.0000
  C   C87       1.0  0.47656  0.20332  0.27627  1.0000
  H   H44       1.0  0.46373  0.22828  0.22449  1.0000
  H   H45       1.0  0.46817  0.19013  0.22517  1.0000
  H   H46       1.0  0.50331  0.17914  0.20363  1.0000
  H   H47       1.0  0.51251  0.14379  0.20056  1.0000
  H   H48       1.0  0.62946  0.13488  0.19376  1.0000
  H   H49       1.0  0.67456  0.16925  0.19065  1.0000
  H   H50       1.0  0.55029  0.98861  0.20083  1.0000
  H   H51       1.0  0.55999  0.95358  0.20390  1.0000
  H   H52       1.0  0.60117  0.90583  0.22571  1.0000
  H   H53       1.0  0.59575  0.94340  0.22641  1.0000
  H   H54       1.0  0.36298  0.91450  0.21673  1.0000
  H   H55       1.0  0.32009  0.87674  0.21751  1.0000
  H   H56       1.0  0.38776  0.96270  0.19120  1.0000
  H   H57       1.0  0.43271  0.99741  0.19427  1.0000
  H   H58       1.0  0.70010  0.21739  0.21738  1.0000
  H   H59       1.0  0.74338  0.25457  0.21810  1.0000
  N   N5        1.0  0.26951  0.51168  0.26289  1.0000
  C   C88       1.0  0.24606  0.51099  0.25717  1.0000
  C   C89       1.0  0.23495  0.51580  0.33334  1.0000
  H   H60       1.0  0.23677  0.50710  0.19662  1.0000
  N   N6        1.0  0.58735  0.85685  0.26556  1.0000
  C   C90       1.0  0.58804  0.83410  0.25982  1.0000
  H   H61       1.0  0.59193  0.82883  0.19926  1.0000
  C   C91       1.0  0.23368  0.81557  0.34055  1.0000
  N   N7        1.0  0.24232  0.82960  0.26327  1.0000
  C   C92       1.0  0.26508  0.85306  0.25802  1.0000
  C   C93       1.0  0.28103  0.86408  0.33450  1.0000
  H   H62       1.0  0.27045  0.86242  0.19762  1.0000
  N   N8        1.0  0.79885  0.62047  0.26225  1.0000
  C   C94       1.0  0.82197  0.62051  0.25650  1.0000
  C   C95       1.0  0.83305  0.61552  0.33288  1.0000
  H   H63       1.0  0.83104  0.62405  0.19579  1.0000
  N   N9        1.0  0.47860  0.27742  0.26491  1.0000
  C   C96       1.0  0.47856  0.30051  0.25918  1.0000
  H   H64       1.0  0.47501  0.30616  0.19848  1.0000
  C   C97       1.0  0.83066  0.31384  0.34011  1.0000
  N   N10       1.0  0.82151  0.30013  0.26261  1.0000
  C   C98       1.0  0.79841  0.27699  0.25733  1.0000
  C   C99       1.0  0.78262  0.26601  0.33401  1.0000
  H   H65       1.0  0.79267  0.26786  0.19676  1.0000
  C   C100      1.0  0.09086  0.61210  0.33326  1.0000
  C   C101      1.0  0.13465  0.53237  0.40906  1.0000
  C   C102      1.0  0.11402  0.53809  0.41045  1.0000
  C   C103      1.0  0.16880  0.50740  0.39194  1.0000
  C   C104      1.0  0.19130  0.50460  0.39357  1.0000
  C   C105      1.0  0.21136  0.51716  0.32890  1.0000
  C   C106      1.0  0.12971  0.69858  0.41735  1.0000
  C   C107      1.0  0.10929  0.67212  0.41540  1.0000
  C   C108      1.0  0.20626  0.77204  0.41165  1.0000
  C   C109      1.0  0.18419  0.74647  0.41090  1.0000
  C   C110      1.0  0.95248  0.59051  0.41012  1.0000
  C   C111      1.0  0.93206  0.59654  0.40874  1.0000
  C   C112      1.0  0.87659  0.62585  0.39264  1.0000
  C   C113      1.0  0.89874  0.62246  0.39106  1.0000
  C   C114      1.0  0.95695  0.45601  0.41482  1.0000
  C   C115      1.0  0.93634  0.42964  0.41676  1.0000
  C   C116      1.0  0.88146  0.38235  0.41101  1.0000
  C   C117      1.0  0.85907  0.35699  0.41179  1.0000
  H   H66       1.0  0.84579  0.35236  0.46245  1.0000
  H   H67       1.0  0.88342  0.39512  0.46078  1.0000
  H   H68       1.0  0.93172  0.41988  0.47658  1.0000
  H   H69       1.0  0.96644  0.46480  0.47302  1.0000
  H   H70       1.0  0.95822  0.58642  0.46987  1.0000
  H   H71       1.0  0.92327  0.59627  0.46793  1.0000
  H   H72       1.0  0.13356  0.59259  0.33447  1.0000
  H   H73       1.0  0.09998  0.66317  0.47364  1.0000
  H   H74       1.0  0.13438  0.70822  0.47724  1.0000
  H   H75       1.0  0.18267  0.73368  0.46031  1.0000
  H   H76       1.0  0.21973  0.77682  0.46201  1.0000
  H   H77       1.0  0.10844  0.54223  0.47011  1.0000
  H   H78       1.0  0.14372  0.53291  0.46815  1.0000
  H   H79       1.0  0.19289  0.49325  0.44256  1.0000
  H   H80       1.0  0.15471  0.49786  0.43974  1.0000
  H   H81       1.0  0.91306  0.63189  0.43840  1.0000
  H   H82       1.0  0.87547  0.63749  0.44118  1.0000
  C   C118      1.0  0.61357  0.63273  0.33198  1.0000
  C   C119      1.0  0.60000  0.64637  0.33157  1.0000
  C   C120      1.0  0.57303  0.62806  0.33314  1.0000
  N   N11       1.0  0.57127  0.60409  0.33464  1.0000
  C   C121      1.0  0.59520  0.60577  0.33420  1.0000
  C   C122      1.0  0.60157  0.58531  0.33540  1.0000
  C   C123      1.0  0.58282  0.55793  0.33566  1.0000
  N   N12       1.0  0.55625  0.54632  0.33424  1.0000
  C   C124      1.0  0.51714  0.50109  0.33349  1.0000
  C   C125      1.0  0.49674  0.50753  0.33303  1.0000
  N   N13       1.0  0.49851  0.53150  0.33464  1.0000
  C   C126      1.0  0.47457  0.52981  0.33434  1.0000
  C   C127      1.0  0.45620  0.50286  0.33215  1.0000
  C   C128      1.0  0.46977  0.48922  0.33155  1.0000
  C   C129      1.0  0.46821  0.55028  0.33566  1.0000
  C   C130      1.0  0.48695  0.57765  0.33590  1.0000
  N   N14       1.0  0.51352  0.58927  0.33455  1.0000
  C   C131      1.0  0.52523  0.61584  0.33504  1.0000
  C   C132      1.0  0.50483  0.62165  0.33649  1.0000
  C   C133      1.0  0.48126  0.59813  0.33755  1.0000
  C   C134      1.0  0.55263  0.63450  0.33380  1.0000
  C   C135      1.0  0.56005  0.66167  0.33305  1.0000
  C   C136      1.0  0.57169  0.71517  0.33048  1.0000
  C   C137      1.0  0.56667  0.70101  0.41180  1.0000
  C   C138      1.0  0.56098  0.67467  0.41323  1.0000
  C   C139      1.0  0.57597  0.74146  0.32899  1.0000
  C   C140      1.0  0.59166  0.76017  0.39462  1.0000
  C   C141      1.0  0.59445  0.78547  0.39622  1.0000
  C   C142      1.0  0.58189  0.79310  0.33154  1.0000
  C   C143      1.0  0.44106  0.54291  0.33669  1.0000
  C   C144      1.0  0.38739  0.53077  0.34033  1.0000
  C   C145      1.0  0.40040  0.52989  0.41915  1.0000
  C   C146      1.0  0.42685  0.53593  0.41756  1.0000
  C   C147      1.0  0.36093  0.52602  0.34263  1.0000
  C   C148      1.0  0.32690  0.53294  0.41209  1.0000
  C   C149      1.0  0.35249  0.53648  0.41174  1.0000
  C   C150      1.0  0.50969  0.47392  0.33264  1.0000
  C   C151      1.0  0.50851  0.46069  0.41290  1.0000
  C   C152      1.0  0.50250  0.43424  0.41150  1.0000
  C   C153      1.0  0.49744  0.42023  0.33013  1.0000
  C   C154      1.0  0.49267  0.39377  0.32874  1.0000
  C   C155      1.0  0.48557  0.34166  0.33121  1.0000
  C   C156      1.0  0.47322  0.34951  0.39538  1.0000
  C   C157      1.0  0.47659  0.37504  0.39381  1.0000
  C   C158      1.0  0.62872  0.59265  0.33625  1.0000
  C   C159      1.0  0.64310  0.59962  0.41698  1.0000
  C   C160      1.0  0.68221  0.60419  0.33991  1.0000
  C   C161      1.0  0.66948  0.60537  0.41858  1.0000
  C   C162      1.0  0.70850  0.60847  0.34232  1.0000
  C   C163      1.0  0.71679  0.59784  0.41193  1.0000
  C   C164      1.0  0.74215  0.60080  0.41227  1.0000
  H   H83       1.0  0.74684  0.59204  0.46274  1.0000
  H   H84       1.0  0.70407  0.58690  0.46179  1.0000
  H   H85       1.0  0.67929  0.61038  0.47831  1.0000
  H   H86       1.0  0.63436  0.60017  0.47534  1.0000
  H   H87       1.0  0.63365  0.64142  0.33088  1.0000
  H   H88       1.0  0.60874  0.66646  0.33043  1.0000
  H   H89       1.0  0.55488  0.58773  0.33697  1.0000
  H   H90       1.0  0.51490  0.54785  0.33679  1.0000
  H   H91       1.0  0.56328  0.49571  0.33706  1.0000
  H   H92       1.0  0.51263  0.47040  0.47264  1.0000
  H   H93       1.0  0.50278  0.42562  0.47068  1.0000
  H   H94       1.0  0.43612  0.49418  0.33113  1.0000
  H   H95       1.0  0.50647  0.63986  0.33704  1.0000
  H   H96       1.0  0.46309  0.59657  0.33899  1.0000
  H   H97       1.0  0.43576  0.53549  0.47595  1.0000
  H   H98       1.0  0.39070  0.52482  0.47895  1.0000
  H   H99       1.0  0.36522  0.54764  0.46131  1.0000
  H   H100      1.0  0.32207  0.54155  0.46228  1.0000
  H   H101      1.0  0.55681  0.66482  0.47289  1.0000
  H   H102      1.0  0.56616  0.70944  0.47088  1.0000
  H   H103      1.0  0.60580  0.79831  0.44524  1.0000
  H   H104      1.0  0.60120  0.75553  0.44242  1.0000
  H   H105      1.0  0.46716  0.37983  0.44116  1.0000
  H   H106      1.0  0.46158  0.33664  0.44391  1.0000
  C   C165      1.0  0.46632  0.07972  0.33444  1.0000
  C   C166      1.0  0.45268  0.05251  0.33386  1.0000
  C   C167      1.0  0.47099  0.04385  0.33545  1.0000
  N   N15       1.0  0.49496  0.06605  0.33713  1.0000
  C   C168      1.0  0.49327  0.08830  0.33672  1.0000
  C   C169      1.0  0.51374  0.11513  0.33799  1.0000
  C   C170      1.0  0.54112  0.12376  0.33821  1.0000
  N   N16       1.0  0.55273  0.10881  0.33673  1.0000
  C   C171      1.0  0.57931  0.12368  0.33713  1.0000
  C   C172      1.0  0.58513  0.14989  0.33865  1.0000
  C   C173      1.0  0.56161  0.14994  0.33992  1.0000
  C   C174      1.0  0.59796  0.11494  0.33570  1.0000
  C   C175      1.0  0.59151  0.08809  0.33530  1.0000
  N   N17       1.0  0.56755  0.06589  0.33715  1.0000
  C   C176      1.0  0.56924  0.04364  0.33687  1.0000
  C   C177      1.0  0.59619  0.05222  0.33447  1.0000
  C   C178      1.0  0.60982  0.07943  0.33369  1.0000
  C   C179      1.0  0.54878  0.01681  0.33830  1.0000
  C   C180      1.0  0.52140  0.00818  0.33847  1.0000
  N   N18       1.0  0.50978  0.02313  0.33703  1.0000
  C   C181      1.0  0.48321  0.00826  0.33734  1.0000
  C   C182      1.0  0.47740  0.98205  0.33879  1.0000
  C   C183      1.0  0.50092  0.98200  0.34003  1.0000
  C   C184      1.0  0.46455  0.01700  0.33594  1.0000
  C   C185      1.0  0.43739  0.99727  0.33474  1.0000
  C   C186      1.0  0.38389  0.95540  0.33115  1.0000
  C   C187      1.0  0.39792  0.96428  0.41272  1.0000
  C   C188      1.0  0.42427  0.98493  0.41466  1.0000
  C   C189      1.0  0.35760  0.93341  0.32912  1.0000
  C   C190      1.0  0.33879  0.93017  0.39445  1.0000
  C   C191      1.0  0.31349  0.90766  0.39552  1.0000
  C   C192      1.0  0.30596  0.88768  0.33059  1.0000
  C   C193      1.0  0.55615  0.99703  0.33935  1.0000
  C   C194      1.0  0.56830  0.95550  0.34302  1.0000
  C   C195      1.0  0.56918  0.96923  0.42184  1.0000
  C   C196      1.0  0.56313  0.98965  0.42023  1.0000
  C   C197      1.0  0.57305  0.93379  0.34533  1.0000
  C   C198      1.0  0.58001  0.88857  0.34546  1.0000
  C   C199      1.0  0.56614  0.89271  0.41484  1.0000
  C   C200      1.0  0.56261  0.91476  0.41449  1.0000
  C   C201      1.0  0.62512  0.13465  0.33434  1.0000
  C   C202      1.0  0.63848  0.14664  0.41432  1.0000
  C   C203      1.0  0.66493  0.16707  0.41238  1.0000
  C   C204      1.0  0.67881  0.17609  0.33074  1.0000
  C   C205      1.0  0.70527  0.19777  0.32878  1.0000
  C   C206      1.0  0.75739  0.24277  0.33016  1.0000
  C   C207      1.0  0.74964  0.22252  0.39457  1.0000
  C   C208      1.0  0.72411  0.20037  0.39355  1.0000
  C   C209      1.0  0.50639  0.13494  0.33885  1.0000
  C   C210      1.0  0.49943  0.14219  0.41958  1.0000
  C   C211      1.0  0.49485  0.17688  0.34251  1.0000
  C   C212      1.0  0.49368  0.16281  0.42118  1.0000
  C   C213      1.0  0.49059  0.19890  0.34494  1.0000
  C   C214      1.0  0.50122  0.21768  0.41457  1.0000
  C   C215      1.0  0.49829  0.24009  0.41486  1.0000
  C   C216      1.0  0.48481  0.24483  0.34505  1.0000
  H   H107      1.0  0.50703  0.25342  0.46538  1.0000
  H   H108      1.0  0.51216  0.21579  0.46441  1.0000
  H   H109      1.0  0.48868  0.16749  0.48092  1.0000
  H   H110      1.0  0.49887  0.13277  0.47793  1.0000
  H   H111      1.0  0.45763  0.09112  0.33330  1.0000
  H   H112      1.0  0.43259  0.04117  0.33260  1.0000
  H   H113      1.0  0.51132  0.06602  0.33938  1.0000
  H   H114      1.0  0.55120  0.06592  0.33958  1.0000
  H   H115      1.0  0.56006  0.16655  0.34149  1.0000
  H   H116      1.0  0.60334  0.16645  0.33928  1.0000
  H   H117      1.0  0.62887  0.14100  0.47425  1.0000
  H   H118      1.0  0.67365  0.17593  0.47138  1.0000
  H   H119      1.0  0.62991  0.09077  0.33231  1.0000
  H   H120      1.0  0.60487  0.04083  0.33337  1.0000
  H   H121      1.0  0.45920  0.96548  0.33920  1.0000
  H   H122      1.0  0.50248  0.96539  0.34148  1.0000
  H   H123      1.0  0.56357  0.99888  0.47861  1.0000
  H   H124      1.0  0.57424  0.96448  0.48164  1.0000
  H   H125      1.0  0.55141  0.91620  0.46397  1.0000
  H   H126      1.0  0.55749  0.87914  0.46493  1.0000
  H   H127      1.0  0.43402  0.99044  0.47449  1.0000
  H   H128      1.0  0.38941  0.95516  0.47162  1.0000
  H   H129      1.0  0.30057  0.90600  0.44432  1.0000
  H   H130      1.0  0.34336  0.94420  0.44242  1.0000
  H   H131      1.0  0.71939  0.18611  0.44107  1.0000
  H   H132      1.0  0.76258  0.22371  0.44291  1.0000
  C   C217      1.0  0.24945  0.52082  0.41355  1.0000
  N   N19       1.0  0.27294  0.52152  0.41435  1.0000
  C   C218      1.0  0.28345  0.51693  0.34039  1.0000
  H   H133      1.0  0.24312  0.52510  0.47124  1.0000
  C   C219      1.0  0.57822  0.82734  0.41620  1.0000
  N   N20       1.0  0.57752  0.85013  0.41702  1.0000
  C   C220      1.0  0.58211  0.86537  0.34306  1.0000
  C   C221      1.0  0.58323  0.81802  0.33598  1.0000
  H   H134      1.0  0.57395  0.81662  0.47389  1.0000
  C   C222      1.0  0.27158  0.84949  0.41449  1.0000
  N   N21       1.0  0.24880  0.82600  0.41482  1.0000
  H   H135      1.0  0.28221  0.85576  0.47239  1.0000
  C   C223      1.0  0.81888  0.61102  0.41329  1.0000
  N   N22       1.0  0.79570  0.61096  0.41413  1.0000
  C   C224      1.0  0.78523  0.61572  0.33998  1.0000
  H   H136      1.0  0.82519  0.60665  0.47118  1.0000
  C   C225      1.0  0.48806  0.30659  0.41597  1.0000
  N   N23       1.0  0.48812  0.28347  0.41679  1.0000
  C   C226      1.0  0.48336  0.26839  0.34262  1.0000
  C   C227      1.0  0.48357  0.31643  0.33556  1.0000
  H   H137      1.0  0.49243  0.31715  0.47385  1.0000
  C   C228      1.0  0.79258  0.28026  0.41421  1.0000
  N   N24       1.0  0.81569  0.30344  0.41457  1.0000
  H   H138      1.0  0.78212  0.27401  0.47229  1.0000
