data_image0
_chemical_formula_structural       C3NC3NC5NC5NC36H26N4C3NC3NC5NC5NC36H26N4C3NC3NC5NC5NC36H26N4CN2CHCN2CHCN2CHCN2CHCN2CHCN2CHC16H16C16H16C16H16C3HCH3CHC3HCH3CHC3HCH3CHC3HCH3CHC3HCH3CHC3HCH3CH
_chemical_formula_sum              "C246 N36 H162"
_cell_length_a       67.4392
_cell_length_b       67.4392
_cell_length_c       14.8752
_cell_angle_alpha    89.8352
_cell_angle_beta     90.1648
_cell_angle_gamma    120

_space_group_name_H-M_alt    "P 1"
_space_group_IT_number       1

loop_
  _space_group_symop_operation_xyz
  'x, y, z'

loop_
  _atom_site_type_symbol
  _atom_site_label
  _atom_site_symmetry_multiplicity
  _atom_site_fract_x
  _atom_site_fract_y
  _atom_site_fract_z
  _atom_site_occupancy
  C   C1        1.0  0.04829  0.50727  0.31399  1.0000
  C   C2        1.0  0.02463  0.49532  0.31510  1.0000
  C   C3        1.0  0.01699  0.51113  0.31610  1.0000
  N   N1        1.0  0.03626  0.53200  0.31573  1.0000
  C   C4        1.0  0.05568  0.53067  0.31466  1.0000
  C   C5        1.0  0.07896  0.54855  0.31443  1.0000
  C   C6        1.0  0.08627  0.57231  0.31551  1.0000
  N   N2        1.0  0.07322  0.58234  0.31537  1.0000
  C   C7        1.0  0.08604  0.60545  0.31707  1.0000
  C   C8        1.0  0.10883  0.61056  0.31841  1.0000
  C   C9        1.0  0.10897  0.59018  0.31736  1.0000
  C   C10       1.0  0.07844  0.62167  0.31743  1.0000
  C   C11       1.0  0.05507  0.61598  0.31619  1.0000
  N   N3        1.0  0.03581  0.59512  0.31573  1.0000
  C   C12       1.0  0.01639  0.59645  0.31461  1.0000
  C   C13       1.0  0.02377  0.61984  0.31399  1.0000
  C   C14       1.0  0.04743  0.63180  0.31520  1.0000
  C   C15       1.0  0.99310  0.57857  0.31431  1.0000
  C   C16       1.0  0.98579  0.55481  0.31536  1.0000
  N   N4        1.0  0.99885  0.54478  0.31512  1.0000
  C   C17       1.0  0.98603  0.52167  0.31690  1.0000
  C   C18       1.0  0.96324  0.51657  0.31842  1.0000
  C   C19       1.0  0.96309  0.53694  0.31737  1.0000
  C   C20       1.0  0.99362  0.50544  0.31725  1.0000
  C   C21       1.0  0.97637  0.48182  0.31988  1.0000
  C   C22       1.0  0.93766  0.43642  0.32683  1.0000
  C   C23       1.0  0.94666  0.44761  0.24363  1.0000
  C   C24       1.0  0.96562  0.46998  0.24008  1.0000
  C   C25       1.0  0.91741  0.41425  0.33055  1.0000
  C   C26       1.0  0.91363  0.39671  0.26883  1.0000
  C   C27       1.0  0.89362  0.37504  0.27233  1.0000
  C   C28       1.0  0.87655  0.37018  0.33752  1.0000
  C   C29       1.0  0.97565  0.58467  0.31336  1.0000
  C   C30       1.0  0.93736  0.59206  0.31299  1.0000
  C   C31       1.0  0.94616  0.58856  0.23186  1.0000
  C   C32       1.0  0.96496  0.58489  0.23189  1.0000
  C   C33       1.0  0.91761  0.59485  0.31330  1.0000
  C   C34       1.0  0.87765  0.59969  0.31698  1.0000
  C   C35       1.0  0.87877  0.58362  0.25986  1.0000
  C   C36       1.0  0.89833  0.58118  0.25828  1.0000
  C   C37       1.0  0.09568  0.64529  0.32017  1.0000
  C   C38       1.0  0.10607  0.65735  0.24031  1.0000
  C   C39       1.0  0.12489  0.67980  0.24382  1.0000
  C   C40       1.0  0.13408  0.69087  0.32702  1.0000
  C   C41       1.0  0.15413  0.71319  0.33061  1.0000
  C   C42       1.0  0.19450  0.75762  0.33768  1.0000
  C   C43       1.0  0.17717  0.75263  0.27325  1.0000
  C   C44       1.0  0.15740  0.73078  0.26970  1.0000
  C   C45       1.0  0.09643  0.54247  0.31346  1.0000
  C   C46       1.0  0.10697  0.54222  0.23192  1.0000
  C   C47       1.0  0.13501  0.53555  0.31305  1.0000
  C   C48       1.0  0.12592  0.53878  0.23187  1.0000
  C   C49       1.0  0.15497  0.53311  0.31334  1.0000
  C   C50       1.0  0.17406  0.54689  0.25775  1.0000
  C   C51       1.0  0.19383  0.54482  0.25938  1.0000
  C   C52       1.0  0.19539  0.52902  0.31715  1.0000
  H   H1        1.0  0.20734  0.55527  0.21883  1.0000
  H   H2        1.0  0.17399  0.55906  0.21669  1.0000
  H   H3        1.0  0.13310  0.53876  0.17139  1.0000
  H   H4        1.0  0.10126  0.54510  0.17215  1.0000
  H   H5        1.0  0.05829  0.49982  0.31317  1.0000
  H   H6        1.0  0.01480  0.47786  0.31491  1.0000
  H   H7        1.0  0.03616  0.54618  0.31684  1.0000
  H   H8        1.0  0.03591  0.58093  0.31682  1.0000
  H   H9        1.0  0.12346  0.58893  0.31836  1.0000
  H   H10       1.0  0.12319  0.62639  0.32000  1.0000
  H   H11       1.0  0.10049  0.64958  0.17911  1.0000
  H   H12       1.0  0.13251  0.68760  0.18457  1.0000
  H   H13       1.0  0.05726  0.64925  0.31508  1.0000
  H   H14       1.0  0.01378  0.62730  0.31312  1.0000
  H   H15       1.0  0.94887  0.50074  0.32023  1.0000
  H   H16       1.0  0.94861  0.53820  0.31859  1.0000
  H   H17       1.0  0.97049  0.58189  0.17215  1.0000
  H   H18       1.0  0.93888  0.58859  0.17143  1.0000
  H   H19       1.0  0.89809  0.56883  0.21771  1.0000
  H   H20       1.0  0.86512  0.57326  0.21972  1.0000
  H   H21       1.0  0.97103  0.47788  0.17895  1.0000
  H   H22       1.0  0.93877  0.44002  0.18449  1.0000
  H   H23       1.0  0.89182  0.36272  0.22781  1.0000
  H   H24       1.0  0.92573  0.39937  0.22164  1.0000
  H   H25       1.0  0.14507  0.72803  0.22320  1.0000
  H   H26       1.0  0.17859  0.76498  0.22940  1.0000
  N   N5        1.0  0.85767  0.34986  0.34780  1.0000
  N   N6        1.0  0.21472  0.52806  0.31543  1.0000
  N   N7        1.0  0.21318  0.77809  0.34799  1.0000
  N   N8        1.0  0.85852  0.60103  0.31518  1.0000
  C   C53       1.0  0.59391  0.63530  0.31623  1.0000
  C   C54       1.0  0.60586  0.62359  0.31726  1.0000
  C   C55       1.0  0.59005  0.60013  0.31821  1.0000
  N   N9        1.0  0.56918  0.59854  0.31791  1.0000
  C   C56       1.0  0.57051  0.61928  0.31684  1.0000
  C   C57       1.0  0.55263  0.62469  0.31659  1.0000
  C   C58       1.0  0.52887  0.60824  0.31762  1.0000
  N   N10       1.0  0.51884  0.58515  0.31749  1.0000
  C   C59       1.0  0.49573  0.57487  0.31912  1.0000
  C   C60       1.0  0.49063  0.59254  0.32040  1.0000
  C   C61       1.0  0.51100  0.61307  0.31940  1.0000
  C   C62       1.0  0.47951  0.55104  0.31947  1.0000
  C   C63       1.0  0.48519  0.53336  0.31828  1.0000
  N   N11       1.0  0.50606  0.53497  0.31786  1.0000
  C   C64       1.0  0.50473  0.51422  0.31676  1.0000
  C   C65       1.0  0.48133  0.49820  0.31612  1.0000
  C   C66       1.0  0.46938  0.50991  0.31732  1.0000
  C   C67       1.0  0.52260  0.50881  0.31648  1.0000
  C   C68       1.0  0.54636  0.52525  0.31750  1.0000
  N   N12       1.0  0.55640  0.54835  0.31726  1.0000
  C   C69       1.0  0.57951  0.55863  0.31893  1.0000
  C   C70       1.0  0.58461  0.54094  0.32040  1.0000
  C   C71       1.0  0.56423  0.52042  0.31944  1.0000
  C   C72       1.0  0.59574  0.58245  0.31923  1.0000
  C   C73       1.0  0.61935  0.58880  0.32172  1.0000
  C   C74       1.0  0.66477  0.59552  0.32829  1.0000
  C   C75       1.0  0.65353  0.59340  0.24518  1.0000
  C   C76       1.0  0.63117  0.59003  0.24180  1.0000
  C   C77       1.0  0.68694  0.59744  0.33181  1.0000
  C   C78       1.0  0.70445  0.61127  0.26995  1.0000
  C   C79       1.0  0.72612  0.61294  0.27325  1.0000
  C   C80       1.0  0.73103  0.60068  0.33838  1.0000
  C   C81       1.0  0.51650  0.48525  0.31554  1.0000
  C   C82       1.0  0.50911  0.43957  0.31521  1.0000
  C   C83       1.0  0.51261  0.45197  0.23407  1.0000
  C   C84       1.0  0.51626  0.47444  0.23408  1.0000
  C   C85       1.0  0.50633  0.41704  0.31553  1.0000
  C   C86       1.0  0.50148  0.37222  0.31920  1.0000
  C   C87       1.0  0.51754  0.38949  0.26207  1.0000
  C   C88       1.0  0.52000  0.41150  0.26054  1.0000
  C   C89       1.0  0.45589  0.54467  0.32206  1.0000
  C   C90       1.0  0.44385  0.54306  0.24209  1.0000
  C   C91       1.0  0.42140  0.53944  0.24542  1.0000
  C   C92       1.0  0.41030  0.53747  0.32853  1.0000
  C   C93       1.0  0.38798  0.53518  0.33192  1.0000
  C   C94       1.0  0.34355  0.53115  0.33839  1.0000
  C   C95       1.0  0.34857  0.51885  0.27423  1.0000
  C   C96       1.0  0.37041  0.52091  0.27099  1.0000
  C   C97       1.0  0.55871  0.64824  0.31563  1.0000
  C   C98       1.0  0.55897  0.65914  0.23410  1.0000
  C   C99       1.0  0.56564  0.69375  0.31524  1.0000
  C   C100      1.0  0.56241  0.68153  0.23405  1.0000
  C   C101      1.0  0.56807  0.71614  0.31555  1.0000
  C   C102      1.0  0.55428  0.72151  0.25994  1.0000
  C   C103      1.0  0.55636  0.74336  0.26158  1.0000
  C   C104      1.0  0.57215  0.76063  0.31935  1.0000
  H   H27       1.0  0.54591  0.74646  0.22101  1.0000
  H   H28       1.0  0.54212  0.70933  0.21887  1.0000
  H   H29       1.0  0.56243  0.68881  0.17358  1.0000
  H   H30       1.0  0.55610  0.65063  0.17431  1.0000
  H   H31       1.0  0.60136  0.65274  0.31534  1.0000
  H   H32       1.0  0.62332  0.63121  0.31699  1.0000
  H   H33       1.0  0.55500  0.58425  0.31885  1.0000
  H   H34       1.0  0.52025  0.54925  0.31893  1.0000
  H   H35       1.0  0.51225  0.62881  0.32036  1.0000
  H   H36       1.0  0.47479  0.59108  0.32193  1.0000
  H   H37       1.0  0.45164  0.54530  0.18095  1.0000
  H   H38       1.0  0.41361  0.53928  0.18610  1.0000
  H   H39       1.0  0.45192  0.50228  0.31717  1.0000
  H   H40       1.0  0.47388  0.48076  0.31529  1.0000
  H   H41       1.0  0.60044  0.54240  0.32209  1.0000
  H   H42       1.0  0.56297  0.50468  0.32056  1.0000
  H   H43       1.0  0.51928  0.48305  0.17434  1.0000
  H   H44       1.0  0.51257  0.44474  0.17364  1.0000
  H   H45       1.0  0.53233  0.42365  0.21991  1.0000
  H   H46       1.0  0.52791  0.38625  0.22193  1.0000
  H   H47       1.0  0.62324  0.58761  0.18073  1.0000
  H   H48       1.0  0.66112  0.59324  0.18595  1.0000
  H   H49       1.0  0.73842  0.62352  0.22866  1.0000
  H   H50       1.0  0.70176  0.62078  0.22287  1.0000
  H   H51       1.0  0.37318  0.51139  0.22460  1.0000
  H   H52       1.0  0.33624  0.50796  0.23038  1.0000
  N   N13       1.0  0.75134  0.60207  0.34837  1.0000
  N   N14       1.0  0.57311  0.78093  0.31762  1.0000
  N   N15       1.0  0.32308  0.52933  0.34850  1.0000
  N   N16       1.0  0.50014  0.35176  0.31739  1.0000
  C   C105      1.0  0.46588  0.05287  0.31762  1.0000
  C   C106      1.0  0.47758  0.07654  0.31879  1.0000
  C   C107      1.0  0.50104  0.08418  0.31987  1.0000
  N   N17       1.0  0.50264  0.06491  0.31952  1.0000
  C   C108      1.0  0.48190  0.04549  0.31832  1.0000
  C   C109      1.0  0.47649  0.02221  0.31799  1.0000
  C   C110      1.0  0.49294  0.01490  0.31915  1.0000
  N   N18       1.0  0.51603  0.02796  0.31910  1.0000
  C   C111      1.0  0.52632  0.01514  0.32085  1.0000
  C   C112      1.0  0.50864  0.99235  0.32216  1.0000
  C   C113      1.0  0.48812  0.99220  0.32097  1.0000
  C   C114      1.0  0.55015  0.02274  0.32124  1.0000
  C   C115      1.0  0.56782  0.04611  0.31995  1.0000
  N   N19       1.0  0.56621  0.06537  0.31949  1.0000
  C   C116      1.0  0.58696  0.08479  0.31825  1.0000
  C   C117      1.0  0.60297  0.07741  0.31756  1.0000
  C   C118      1.0  0.59127  0.05375  0.31885  1.0000
  C   C119      1.0  0.59237  0.10808  0.31791  1.0000
  C   C120      1.0  0.57592  0.11539  0.31907  1.0000
  N   N20       1.0  0.55283  0.10233  0.31891  1.0000
  C   C121      1.0  0.54254  0.11514  0.32069  1.0000
  C   C122      1.0  0.56023  0.13793  0.32215  1.0000
  C   C123      1.0  0.58075  0.13808  0.32103  1.0000
  C   C124      1.0  0.51871  0.10755  0.32103  1.0000
  C   C125      1.0  0.51236  0.12481  0.32355  1.0000
  C   C126      1.0  0.50565  0.16350  0.33027  1.0000
  C   C127      1.0  0.50774  0.15448  0.24712  1.0000
  C   C128      1.0  0.51111  0.13550  0.24368  1.0000
  C   C129      1.0  0.50373  0.18375  0.33384  1.0000
  C   C130      1.0  0.48988  0.18750  0.27207  1.0000
  C   C131      1.0  0.48822  0.20750  0.27541  1.0000
  C   C132      1.0  0.50053  0.22461  0.34042  1.0000
  C   C133      1.0  0.61592  0.12553  0.31668  1.0000
  C   C134      1.0  0.66159  0.16381  0.31568  1.0000
  C   C135      1.0  0.64913  0.15497  0.23471  1.0000
  C   C136      1.0  0.62666  0.13616  0.23506  1.0000
  C   C137      1.0  0.68413  0.18356  0.31565  1.0000
  C   C138      1.0  0.72895  0.22352  0.31861  1.0000
  C   C139      1.0  0.71163  0.22237  0.26174  1.0000
  C   C140      1.0  0.68962  0.20281  0.26053  1.0000
  C   C141      1.0  0.55652  0.00550  0.32393  1.0000
  C   C142      1.0  0.55814  0.99516  0.24398  1.0000
  C   C143      1.0  0.56176  0.97633  0.24737  1.0000
  C   C144      1.0  0.56372  0.96710  0.33051  1.0000
  C   C145      1.0  0.56601  0.94705  0.33394  1.0000
  C   C146      1.0  0.57005  0.90667  0.34055  1.0000
  C   C147      1.0  0.58234  0.92404  0.27631  1.0000
  C   C148      1.0  0.58027  0.94382  0.27299  1.0000
  C   C149      1.0  0.45294  0.00474  0.31677  1.0000
  C   C150      1.0  0.44212  0.99425  0.23508  1.0000
  C   C151      1.0  0.40744  0.96615  0.31573  1.0000
  C   C152      1.0  0.41974  0.97529  0.23471  1.0000
  C   C153      1.0  0.38505  0.94619  0.31569  1.0000
  C   C154      1.0  0.37973  0.92714  0.25998  1.0000
  C   C155      1.0  0.35788  0.90736  0.26130  1.0000
  C   C156      1.0  0.34055  0.90578  0.31878  1.0000
  H   H53       1.0  0.35481  0.89388  0.22064  1.0000
  H   H54       1.0  0.39195  0.92722  0.21911  1.0000
  H   H55       1.0  0.41251  0.96814  0.17413  1.0000
  H   H56       1.0  0.45068  0.99999  0.17541  1.0000
  H   H57       1.0  0.44844  0.04288  0.31668  1.0000
  H   H58       1.0  0.46995  0.08636  0.31856  1.0000
  H   H59       1.0  0.51693  0.06501  0.32061  1.0000
  H   H60       1.0  0.55193  0.06527  0.32068  1.0000
  H   H61       1.0  0.47238  0.97771  0.32199  1.0000
  H   H62       1.0  0.51011  0.97799  0.32378  1.0000
  H   H63       1.0  0.55587  0.00076  0.18284  1.0000
  H   H64       1.0  0.56189  0.96875  0.18807  1.0000
  H   H65       1.0  0.59890  0.04393  0.31873  1.0000
  H   H66       1.0  0.62041  0.08740  0.31664  1.0000
  H   H67       1.0  0.55877  0.15230  0.32388  1.0000
  H   H68       1.0  0.59649  0.15257  0.32213  1.0000
  H   H69       1.0  0.61799  0.13060  0.17543  1.0000
  H   H70       1.0  0.65630  0.16221  0.17418  1.0000
  H   H71       1.0  0.67742  0.20303  0.22013  1.0000
  H   H72       1.0  0.71483  0.23600  0.22154  1.0000
  H   H73       1.0  0.51352  0.13006  0.18258  1.0000
  H   H74       1.0  0.50790  0.16231  0.18791  1.0000
  H   H75       1.0  0.47763  0.20928  0.23087  1.0000
  H   H76       1.0  0.48036  0.17536  0.22503  1.0000
  H   H77       1.0  0.58980  0.95618  0.22661  1.0000
  H   H78       1.0  0.59322  0.92265  0.23247  1.0000
  N   N21       1.0  0.49912  0.24351  0.35049  1.0000
  N   N22       1.0  0.32025  0.88645  0.31671  1.0000
  N   N23       1.0  0.57186  0.88799  0.35067  1.0000
  N   N24       1.0  0.74941  0.24265  0.31647  1.0000
  C   C157      1.0  0.28571  0.52216  0.32562  1.0000
  N   N25       1.0  0.27486  0.52844  0.26418  1.0000
  N   N26       1.0  0.25557  0.52806  0.27967  1.0000
  C   C158      1.0  0.30547  0.52249  0.29719  1.0000
  H   H79       1.0  0.30608  0.51785  0.23438  1.0000
  C   C159      1.0  0.57903  0.85782  0.32777  1.0000
  N   N27       1.0  0.57275  0.84077  0.26634  1.0000
  N   N28       1.0  0.57312  0.82183  0.28185  1.0000
  C   C160      1.0  0.57869  0.87728  0.29935  1.0000
  H   H80       1.0  0.58333  0.88261  0.23652  1.0000
  C   C161      1.0  0.24334  0.81547  0.32556  1.0000
  N   N29       1.0  0.26046  0.82635  0.26443  1.0000
  N   N30       1.0  0.27938  0.84563  0.28024  1.0000
  C   C162      1.0  0.22392  0.79572  0.29684  1.0000
  H   H81       1.0  0.21861  0.79516  0.23401  1.0000
  C   C163      1.0  0.78841  0.60847  0.32529  1.0000
  N   N31       1.0  0.79895  0.60192  0.26392  1.0000
  N   N32       1.0  0.81806  0.60190  0.27940  1.0000
  C   C164      1.0  0.76880  0.60852  0.29686  1.0000
  H   H82       1.0  0.76819  0.61316  0.23391  1.0000
  C   C165      1.0  0.49272  0.27420  0.32745  1.0000
  N   N33       1.0  0.49926  0.29137  0.26609  1.0000
  N   N34       1.0  0.49928  0.31048  0.28158  1.0000
  C   C166      1.0  0.49267  0.25459  0.29900  1.0000
  H   H83       1.0  0.48804  0.24942  0.23603  1.0000
  C   C167      1.0  0.82698  0.31277  0.32522  1.0000
  N   N35       1.0  0.80975  0.30220  0.26415  1.0000
  N   N36       1.0  0.79065  0.28309  0.27995  1.0000
  C   C168      1.0  0.84656  0.33237  0.29647  1.0000
  H   H84       1.0  0.85169  0.33295  0.23346  1.0000
  C   C169      1.0  0.96790  0.47069  0.40311  1.0000
  C   C170      1.0  0.94893  0.44834  0.40634  1.0000
  C   C171      1.0  0.88026  0.38746  0.39961  1.0000
  C   C172      1.0  0.90022  0.40912  0.39582  1.0000
  C   C173      1.0  0.96724  0.58842  0.39456  1.0000
  C   C174      1.0  0.94847  0.59213  0.39419  1.0000
  C   C175      1.0  0.91652  0.61121  0.36942  1.0000
  C   C176      1.0  0.89697  0.61366  0.37105  1.0000
  C   C177      1.0  0.12317  0.67871  0.40661  1.0000
  C   C178      1.0  0.10435  0.65627  0.40343  1.0000
  C   C179      1.0  0.17159  0.71844  0.39505  1.0000
  C   C180      1.0  0.19131  0.74027  0.39889  1.0000
  C   C181      1.0  0.10512  0.53896  0.39473  1.0000
  C   C182      1.0  0.12403  0.53547  0.39433  1.0000
  C   C183      1.0  0.17626  0.51494  0.37182  1.0000
  C   C184      1.0  0.15650  0.51702  0.37014  1.0000
  H   H85       1.0  0.17644  0.50286  0.41297  1.0000
  H   H86       1.0  0.14300  0.50631  0.41010  1.0000
  H   H87       1.0  0.13032  0.53382  0.45486  1.0000
  H   H88       1.0  0.09817  0.53965  0.45497  1.0000
  H   H89       1.0  0.09738  0.64779  0.46242  1.0000
  H   H90       1.0  0.12897  0.68602  0.46833  1.0000
  H   H91       1.0  0.97431  0.58778  0.45477  1.0000
  H   H92       1.0  0.94240  0.59398  0.45470  1.0000
  H   H93       1.0  0.89711  0.62593  0.41168  1.0000
  H   H94       1.0  0.93018  0.62185  0.40894  1.0000
  H   H95       1.0  0.90186  0.42129  0.44090  1.0000
  H   H96       1.0  0.86832  0.38444  0.44810  1.0000
  H   H97       1.0  0.94327  0.44092  0.46804  1.0000
  H   H98       1.0  0.97510  0.47902  0.46209  1.0000
  H   H99       1.0  0.17031  0.70625  0.43953  1.0000
  H   H100      1.0  0.20346  0.74339  0.44681  1.0000
  C   C185      1.0  0.63053  0.59138  0.40486  1.0000
  C   C186      1.0  0.65287  0.59475  0.40790  1.0000
  C   C187      1.0  0.71377  0.58701  0.40054  1.0000
  C   C188      1.0  0.69210  0.58529  0.39694  1.0000
  C   C189      1.0  0.51278  0.47301  0.39676  1.0000
  C   C190      1.0  0.50905  0.45052  0.39641  1.0000
  C   C191      1.0  0.48997  0.39951  0.37165  1.0000
  C   C192      1.0  0.48751  0.37751  0.37328  1.0000
  C   C193      1.0  0.42244  0.53866  0.40823  1.0000
  C   C194      1.0  0.44488  0.54227  0.40524  1.0000
  C   C195      1.0  0.38270  0.54734  0.39615  1.0000
  C   C196      1.0  0.36087  0.54523  0.39971  1.0000
  C   C197      1.0  0.56222  0.66033  0.39690  1.0000
  C   C198      1.0  0.56572  0.68274  0.39652  1.0000
  C   C199      1.0  0.58623  0.75553  0.37403  1.0000
  C   C200      1.0  0.58415  0.73368  0.37237  1.0000
  H   H101      1.0  0.59830  0.76772  0.41520  1.0000
  H   H102      1.0  0.59486  0.73084  0.41233  1.0000
  H   H103      1.0  0.56735  0.69059  0.45705  1.0000
  H   H104      1.0  0.56152  0.65262  0.45715  1.0000
  H   H105      1.0  0.45335  0.54375  0.46430  1.0000
  H   H106      1.0  0.41511  0.53709  0.46990  1.0000
  H   H107      1.0  0.51340  0.48063  0.45696  1.0000
  H   H108      1.0  0.50719  0.44251  0.45691  1.0000
  H   H109      1.0  0.47525  0.36533  0.41392  1.0000
  H   H110      1.0  0.47933  0.40248  0.41117  1.0000
  H   H111      1.0  0.67996  0.57471  0.44211  1.0000
  H   H112      1.0  0.71682  0.57802  0.44895  1.0000
  H   H113      1.0  0.66032  0.59643  0.46955  1.0000
  H   H114      1.0  0.62221  0.59015  0.46390  1.0000
  H   H115      1.0  0.39487  0.55822  0.44063  1.0000
  H   H116      1.0  0.35774  0.55423  0.44748  1.0000
  C   C201      1.0  0.50980  0.13330  0.40673  1.0000
  C   C202      1.0  0.50644  0.15227  0.40984  1.0000
  C   C203      1.0  0.51420  0.22094  0.40256  1.0000
  C   C204      1.0  0.51590  0.20098  0.39895  1.0000
  C   C205      1.0  0.62823  0.13398  0.39773  1.0000
  C   C206      1.0  0.65073  0.15274  0.39704  1.0000
  C   C207      1.0  0.70171  0.18469  0.37153  1.0000
  C   C208      1.0  0.72371  0.20423  0.37279  1.0000
  C   C209      1.0  0.56253  0.97796  0.41018  1.0000
  C   C210      1.0  0.55891  0.99678  0.40713  1.0000
  C   C211      1.0  0.55385  0.92955  0.39822  1.0000
  C   C212      1.0  0.55597  0.90983  0.40184  1.0000
  C   C213      1.0  0.44079  0.99600  0.39787  1.0000
  C   C214      1.0  0.41837  0.97709  0.39716  1.0000
  C   C215      1.0  0.34561  0.92487  0.37356  1.0000
  C   C216      1.0  0.36745  0.94463  0.37223  1.0000
  H   H117      1.0  0.33337  0.92467  0.41454  1.0000
  H   H118      1.0  0.37026  0.95811  0.41228  1.0000
  H   H119      1.0  0.41046  0.97076  0.45758  1.0000
  H   H120      1.0  0.44844  0.00292  0.45821  1.0000
  H   H121      1.0  0.55744  0.00372  0.46617  1.0000
  H   H122      1.0  0.56410  0.97213  0.47186  1.0000
  H   H123      1.0  0.62066  0.12694  0.45803  1.0000
  H   H124      1.0  0.65878  0.15885  0.45743  1.0000
  H   H125      1.0  0.73593  0.20412  0.41324  1.0000
  H   H126      1.0  0.69878  0.17105  0.41109  1.0000
  H   H127      1.0  0.52649  0.19936  0.44406  1.0000
  H   H128      1.0  0.52320  0.23291  0.45093  1.0000
  H   H129      1.0  0.50479  0.15797  0.47151  1.0000
  H   H130      1.0  0.51107  0.12615  0.46576  1.0000
  H   H131      1.0  0.54299  0.93080  0.44270  1.0000
  H   H132      1.0  0.54697  0.89764  0.44963  1.0000
  C   C217      1.0  0.24426  0.52114  0.35925  1.0000
  C   C218      1.0  0.25423  0.51408  0.42662  1.0000
  C   C219      1.0  0.27509  0.51439  0.41104  1.0000
  H   H133      1.0  0.24615  0.50852  0.48732  1.0000
  C   C220      1.0  0.28465  0.50609  0.48257  1.0000
  H   H134      1.0  0.27344  0.49935  0.54101  1.0000
  H   H135      1.0  0.30105  0.52013  0.50559  1.0000
  H   H136      1.0  0.28715  0.49241  0.45629  1.0000
  C   C221      1.0  0.22364  0.52060  0.37345  1.0000
  H   H137      1.0  0.21569  0.51454  0.43176  1.0000
  C   C222      1.0  0.58003  0.81734  0.36145  1.0000
  C   C223      1.0  0.58709  0.83428  0.42882  1.0000
  C   C224      1.0  0.58678  0.85485  0.41323  1.0000
  H   H138      1.0  0.59264  0.83168  0.48954  1.0000
  C   C225      1.0  0.59506  0.87262  0.48478  1.0000
  H   H139      1.0  0.60180  0.86806  0.54324  1.0000
  H   H140      1.0  0.58102  0.87494  0.50776  1.0000
  H   H141      1.0  0.60875  0.88883  0.45854  1.0000
  C   C226      1.0  0.58057  0.79724  0.37566  1.0000
  H   H142      1.0  0.58661  0.79527  0.43399  1.0000
  C   C227      1.0  0.28378  0.85690  0.35990  1.0000
  C   C228      1.0  0.26676  0.84689  0.42696  1.0000
  C   C229      1.0  0.24621  0.82605  0.41104  1.0000
  H   H143      1.0  0.26929  0.85494  0.48771  1.0000
  C   C230      1.0  0.22836  0.81644  0.48227  1.0000
  H   H144      1.0  0.23285  0.82763  0.54079  1.0000
  H   H145      1.0  0.22601  0.80003  0.50526  1.0000
  H   H146      1.0  0.21218  0.81395  0.45572  1.0000
  C   C231      1.0  0.30386  0.87750  0.37444  1.0000
  H   H147      1.0  0.30576  0.88543  0.43278  1.0000
  C   C232      1.0  0.82948  0.60862  0.35893  1.0000
  C   C233      1.0  0.81982  0.61593  0.42625  1.0000
  C   C234      1.0  0.79916  0.61606  0.41068  1.0000
  H   H148      1.0  0.82800  0.62135  0.48693  1.0000
  C   C235      1.0  0.78994  0.62459  0.48220  1.0000
  H   H149      1.0  0.80124  0.63114  0.54059  1.0000
  H   H150      1.0  0.77346  0.61073  0.50532  1.0000
  H   H151      1.0  0.78771  0.63846  0.45587  1.0000
  C   C236      1.0  0.84991  0.60875  0.37311  1.0000
  H   H152      1.0  0.85798  0.61471  0.43134  1.0000
  C   C237      1.0  0.49255  0.31507  0.36112  1.0000
  C   C238      1.0  0.48525  0.29802  0.42843  1.0000
  C   C239      1.0  0.48513  0.27726  0.41284  1.0000
  H   H153      1.0  0.47983  0.30070  0.48911  1.0000
  C   C240      1.0  0.47661  0.25942  0.48436  1.0000
  H   H154      1.0  0.47005  0.26409  0.54276  1.0000
  H   H155      1.0  0.49047  0.25677  0.50746  1.0000
  H   H156      1.0  0.46273  0.24334  0.45802  1.0000
  C   C241      1.0  0.49241  0.33535  0.37530  1.0000
  H   H157      1.0  0.48646  0.33739  0.43355  1.0000
  C   C242      1.0  0.78615  0.27171  0.35956  1.0000
  C   C243      1.0  0.80328  0.28140  0.42657  1.0000
  C   C244      1.0  0.82402  0.30206  0.41065  1.0000
  H   H158      1.0  0.80068  0.27325  0.48727  1.0000
  C   C245      1.0  0.84195  0.31132  0.48184  1.0000
  H   H159      1.0  0.83735  0.30004  0.54029  1.0000
  H   H160      1.0  0.84463  0.32781  0.50495  1.0000
  H   H161      1.0  0.85799  0.31354  0.45518  1.0000
  C   C246      1.0  0.76589  0.25128  0.37407  1.0000
  H   H162      1.0  0.76393  0.24323  0.43231  1.0000
