data_image0
_chemical_formula_structural       C2NC2ONH2C2NC2ONH2C2NC2ONH2NCHNCHNCHCNCNCNC18H12CNCNCNC18H12CNCNCNC18H12CNCNCNC18H12NCHNCHNCHC2NC2ONH2C2NC2ONH2C2NC2ONH2
_chemical_formula_sum              "C114 N30 O6 H66"
_cell_length_a       44.7993
_cell_length_b       44.7993
_cell_length_c       15.0168
_cell_angle_alpha    90
_cell_angle_beta     90
_cell_angle_gamma    120

_space_group_name_H-M_alt    "P 1"
_space_group_IT_number       1

loop_
  _space_group_symop_operation_xyz
  'x, y, z'

loop_
  _atom_site_type_symbol
  _atom_site_label
  _atom_site_symmetry_multiplicity
  _atom_site_fract_x
  _atom_site_fract_y
  _atom_site_fract_z
  _atom_site_occupancy
  C   C1        1.0  0.17344  0.09078  0.31869  1.0000
  C   C2        1.0  0.24544  0.12719  0.33181  1.0000
  N   N1        1.0  0.22866  0.10414  0.26545  1.0000
  C   C3        1.0  0.19390  0.08581  0.25447  1.0000
  C   C4        1.0  0.18167  0.06474  0.17747  1.0000
  O   O1        1.0  0.20033  0.05094  0.14510  1.0000
  N   N2        1.0  0.15493  0.06112  0.12754  1.0000
  H   H1        1.0  0.14303  0.07371  0.14109  1.0000
  H   H2        1.0  0.14912  0.04813  0.07225  1.0000
  C   C5        1.0  0.89574  0.08232  0.31866  1.0000
  C   C6        1.0  0.85931  0.11789  0.33181  1.0000
  N   N3        1.0  0.88236  0.12417  0.26543  1.0000
  C   C7        1.0  0.90068  0.10773  0.25440  1.0000
  C   C8        1.0  0.92180  0.11661  0.17748  1.0000
  O   O2        1.0  0.93547  0.14902  0.14490  1.0000
  N   N4        1.0  0.92548  0.09352  0.12758  1.0000
  H   H3        1.0  0.91280  0.06902  0.14103  1.0000
  H   H4        1.0  0.93834  0.10068  0.07209  1.0000
  C   C9        1.0  0.90419  0.81312  0.31871  1.0000
  C   C10       1.0  0.86859  0.74113  0.33189  1.0000
  N   N5        1.0  0.86231  0.75790  0.26552  1.0000
  C   C11       1.0  0.87875  0.79266  0.25451  1.0000
  C   C12       1.0  0.86989  0.80488  0.17751  1.0000
  O   O3        1.0  0.83744  0.78623  0.14517  1.0000
  N   N6        1.0  0.89302  0.83163  0.12758  1.0000
  H   H5        1.0  0.91750  0.84352  0.14109  1.0000
  H   H6        1.0  0.88583  0.83743  0.07225  1.0000
  N   N7        1.0  0.57493  0.13976  0.25433  1.0000
  C   C13       1.0  0.54313  0.13633  0.25496  1.0000
  H   H7        1.0  0.53430  0.14191  0.19816  1.0000
  N   N8        1.0  0.84674  0.43490  0.25368  1.0000
  C   C14       1.0  0.85011  0.40651  0.25433  1.0000
  H   H8        1.0  0.84478  0.39218  0.19744  1.0000
  N   N9        1.0  0.55166  0.41167  0.25439  1.0000
  C   C15       1.0  0.58003  0.44346  0.25509  1.0000
  H   H9        1.0  0.59446  0.45231  0.19832  1.0000
  C   C16       1.0  0.97412  0.95990  0.33699  1.0000
  N   N10       1.0  0.00911  0.97891  0.33675  1.0000
  C   C17       1.0  0.02667  0.01394  0.33698  1.0000
  N   N11       1.0  0.00766  0.02992  0.33678  1.0000
  C   C18       1.0  0.97263  0.01245  0.33702  1.0000
  N   N12       1.0  0.95665  0.97746  0.33678  1.0000
  C   C19       1.0  0.06337  0.03307  0.33451  1.0000
  C   C20       1.0  0.08292  0.01630  0.32555  1.0000
  C   C21       1.0  0.11909  0.03518  0.32046  1.0000
  C   C22       1.0  0.13698  0.07157  0.32380  1.0000
  C   C23       1.0  0.11779  0.08847  0.33523  1.0000
  C   C24       1.0  0.08160  0.06955  0.33976  1.0000
  C   C25       1.0  0.95655  0.92320  0.33452  1.0000
  C   C26       1.0  0.97481  0.90497  0.33975  1.0000
  C   C27       1.0  0.95754  0.86878  0.33524  1.0000
  C   C28       1.0  0.92143  0.84959  0.32378  1.0000
  C   C29       1.0  0.90294  0.86748  0.32047  1.0000
  C   C30       1.0  0.92022  0.90364  0.32557  1.0000
  C   C31       1.0  0.95349  0.03001  0.33455  1.0000
  C   C32       1.0  0.91701  0.01174  0.33975  1.0000
  C   C33       1.0  0.89807  0.02899  0.33522  1.0000
  C   C34       1.0  0.91497  0.06510  0.32379  1.0000
  C   C35       1.0  0.95135  0.08360  0.32051  1.0000
  C   C36       1.0  0.97025  0.06634  0.32564  1.0000
  H   H10       1.0  0.97171  0.85661  0.33825  1.0000
  H   H11       1.0  0.00103  0.91781  0.34670  1.0000
  H   H12       1.0  0.87666  0.85433  0.31465  1.0000
  H   H13       1.0  0.90576  0.91547  0.32190  1.0000
  H   H14       1.0  0.90362  0.98551  0.34670  1.0000
  H   H15       1.0  0.87173  0.01481  0.33823  1.0000
  H   H16       1.0  0.99654  0.08080  0.32197  1.0000
  H   H17       1.0  0.96448  0.10989  0.31471  1.0000
  H   H18       1.0  0.06876  0.08294  0.34674  1.0000
  H   H19       1.0  0.12996  0.11482  0.33831  1.0000
  H   H20       1.0  0.13224  0.02205  0.31463  1.0000
  H   H21       1.0  0.07110  0.99001  0.32186  1.0000
  C   C37       1.0  0.44474  0.19599  0.33998  1.0000
  N   N13       1.0  0.40977  0.17973  0.33944  1.0000
  C   C38       1.0  0.39242  0.19746  0.33574  1.0000
  N   N14       1.0  0.41119  0.23252  0.33125  1.0000
  C   C39       1.0  0.44620  0.24988  0.32969  1.0000
  N   N15       1.0  0.46211  0.23090  0.33469  1.0000
  C   C40       1.0  0.35581  0.17992  0.33615  1.0000
  C   C41       1.0  0.33627  0.14480  0.31127  1.0000
  C   C42       1.0  0.30006  0.12765  0.30963  1.0000
  C   C43       1.0  0.28202  0.14471  0.33504  1.0000
  C   C44       1.0  0.30148  0.17969  0.36098  1.0000
  C   C45       1.0  0.33772  0.19705  0.36074  1.0000
  C   C46       1.0  0.46321  0.17794  0.34589  1.0000
  C   C47       1.0  0.44999  0.14431  0.31072  1.0000
  C   C48       1.0  0.47020  0.12823  0.30976  1.0000
  C   C49       1.0  0.50347  0.14476  0.34792  1.0000
  C   C50       1.0  0.51621  0.17778  0.38593  1.0000
  C   C51       1.0  0.49651  0.19418  0.38429  1.0000
  C   C52       1.0  0.46609  0.28640  0.32281  1.0000
  C   C53       1.0  0.50046  0.30223  0.29137  1.0000
  C   C54       1.0  0.52132  0.33821  0.28893  1.0000
  C   C55       1.0  0.50872  0.35974  0.31893  1.0000
  C   C56       1.0  0.47417  0.34427  0.34821  1.0000
  C   C57       1.0  0.45303  0.30807  0.34904  1.0000
  H   H22       1.0  0.46077  0.10473  0.27960  1.0000
  H   H23       1.0  0.42631  0.13202  0.28076  1.0000
  H   H24       1.0  0.54073  0.19106  0.41112  1.0000
  H   H25       1.0  0.50715  0.21848  0.41050  1.0000
  H   H26       1.0  0.51107  0.28776  0.27107  1.0000
  H   H27       1.0  0.54647  0.34844  0.26933  1.0000
  H   H28       1.0  0.42850  0.29770  0.37341  1.0000
  H   H29       1.0  0.46453  0.35920  0.37170  1.0000
  H   H30       1.0  0.35071  0.22240  0.37959  1.0000
  H   H31       1.0  0.28952  0.19326  0.37783  1.0000
  H   H32       1.0  0.28697  0.10230  0.29070  1.0000
  H   H33       1.0  0.34818  0.13142  0.29194  1.0000
  C   C58       1.0  0.79057  0.24843  0.34038  1.0000
  N   N16       1.0  0.80682  0.22972  0.33978  1.0000
  C   C59       1.0  0.78907  0.19462  0.33607  1.0000
  N   N17       1.0  0.75402  0.17836  0.33159  1.0000
  C   C60       1.0  0.73666  0.19601  0.33008  1.0000
  N   N18       1.0  0.75566  0.23090  0.33510  1.0000
  C   C61       1.0  0.80661  0.17555  0.33638  1.0000
  C   C62       1.0  0.84171  0.19112  0.31140  1.0000
  C   C63       1.0  0.85886  0.17206  0.30972  1.0000
  C   C64       1.0  0.84180  0.13695  0.33510  1.0000
  C   C65       1.0  0.80683  0.12144  0.36107  1.0000
  C   C66       1.0  0.78947  0.14032  0.36093  1.0000
  C   C67       1.0  0.80862  0.28495  0.34622  1.0000
  C   C68       1.0  0.84223  0.30535  0.31092  1.0000
  C   C69       1.0  0.85824  0.34163  0.30958  1.0000
  C   C70       1.0  0.84169  0.35837  0.34760  1.0000
  C   C71       1.0  0.80874  0.33811  0.38601  1.0000
  C   C72       1.0  0.79238  0.30201  0.38462  1.0000
  C   C73       1.0  0.70015  0.17941  0.32315  1.0000
  C   C74       1.0  0.68435  0.19797  0.29172  1.0000
  C   C75       1.0  0.64837  0.18286  0.28912  1.0000
  C   C76       1.0  0.62681  0.14872  0.31905  1.0000
  C   C77       1.0  0.64226  0.12964  0.34842  1.0000
  C   C78       1.0  0.67846  0.14466  0.34927  1.0000
  H   H34       1.0  0.88168  0.35569  0.27910  1.0000
  H   H35       1.0  0.85447  0.29395  0.28074  1.0000
  H   H36       1.0  0.79546  0.34936  0.41114  1.0000
  H   H37       1.0  0.76812  0.28836  0.41101  1.0000
  H   H38       1.0  0.69884  0.22306  0.27149  1.0000
  H   H39       1.0  0.63817  0.19781  0.26959  1.0000
  H   H40       1.0  0.68880  0.13048  0.37367  1.0000
  H   H41       1.0  0.62730  0.10506  0.37179  1.0000
  H   H42       1.0  0.76413  0.12798  0.37984  1.0000
  H   H43       1.0  0.79325  0.09591  0.37794  1.0000
  H   H44       1.0  0.88421  0.18432  0.29077  1.0000
  H   H45       1.0  0.85510  0.21641  0.29216  1.0000
  C   C79       1.0  0.73804  0.54185  0.34030  1.0000
  N   N19       1.0  0.75675  0.57682  0.33975  1.0000
  C   C80       1.0  0.79184  0.59416  0.33602  1.0000
  N   N20       1.0  0.80811  0.57538  0.33145  1.0000
  C   C81       1.0  0.79046  0.54037  0.32987  1.0000
  N   N21       1.0  0.75557  0.52446  0.33492  1.0000
  C   C82       1.0  0.81092  0.63077  0.33639  1.0000
  C   C83       1.0  0.79534  0.65031  0.31150  1.0000
  C   C84       1.0  0.81441  0.68652  0.30981  1.0000
  C   C85       1.0  0.84952  0.70455  0.33518  1.0000
  C   C86       1.0  0.86503  0.68509  0.36112  1.0000
  C   C87       1.0  0.84615  0.64885  0.36093  1.0000
  C   C88       1.0  0.70153  0.52339  0.34622  1.0000
  C   C89       1.0  0.68112  0.53656  0.31077  1.0000
  C   C90       1.0  0.64483  0.51634  0.30978  1.0000
  C   C91       1.0  0.62809  0.48312  0.34818  1.0000
  C   C92       1.0  0.64837  0.47044  0.38651  1.0000
  C   C93       1.0  0.68447  0.49014  0.38489  1.0000
  C   C94       1.0  0.80706  0.52047  0.32282  1.0000
  C   C95       1.0  0.78857  0.48620  0.29075  1.0000
  C   C96       1.0  0.80366  0.46531  0.28814  1.0000
  C   C97       1.0  0.83772  0.47780  0.31857  1.0000
  C   C98       1.0  0.85677  0.51228  0.34845  1.0000
  C   C99       1.0  0.84174  0.53344  0.34951  1.0000
  H   H46       1.0  0.63076  0.52573  0.27938  1.0000
  H   H47       1.0  0.69252  0.56021  0.28061  1.0000
  H   H48       1.0  0.63713  0.44594  0.41188  1.0000
  H   H49       1.0  0.69813  0.47954  0.41130  1.0000
  H   H50       1.0  0.76353  0.47566  0.27017  1.0000
  H   H51       1.0  0.78876  0.44022  0.26810  1.0000
  H   H52       1.0  0.85587  0.55791  0.37423  1.0000
  H   H53       1.0  0.88129  0.52183  0.37222  1.0000
  H   H54       1.0  0.85849  0.63585  0.37978  1.0000
  H   H55       1.0  0.89056  0.69704  0.37794  1.0000
  H   H56       1.0  0.80216  0.69961  0.29088  1.0000
  H   H57       1.0  0.77006  0.63841  0.29221  1.0000
  N   N22       1.0  0.19007  0.11389  0.38515  1.0000
  C   C100      1.0  0.22479  0.13247  0.39349  1.0000
  H   H58       1.0  0.23522  0.14886  0.44629  1.0000
  N   N23       1.0  0.87263  0.07583  0.38515  1.0000
  C   C101      1.0  0.85402  0.09194  0.39345  1.0000
  H   H59       1.0  0.83768  0.08601  0.44634  1.0000
  N   N24       1.0  0.91068  0.79651  0.38517  1.0000
  C   C102      1.0  0.89453  0.76179  0.39354  1.0000
  H   H60       1.0  0.90050  0.75136  0.44635  1.0000
  C   C103      1.0  0.59109  0.13681  0.32778  1.0000
  C   C104      1.0  0.52666  0.13232  0.33761  1.0000
  N   N25       1.0  0.54291  0.12966  0.41102  1.0000
  C   C105      1.0  0.57349  0.13009  0.41064  1.0000
  C   C106      1.0  0.58649  0.12844  0.49526  1.0000
  O   O4        1.0  0.56422  0.10505  0.55424  1.0000
  N   N26       1.0  0.61804  0.15196  0.52574  1.0000
  H   H61       1.0  0.63337  0.17220  0.49104  1.0000
  H   H62       1.0  0.62439  0.15090  0.58709  1.0000
  C   C107      1.0  0.84959  0.45396  0.32717  1.0000
  C   C108      1.0  0.85409  0.39397  0.33687  1.0000
  N   N27       1.0  0.85669  0.41288  0.41029  1.0000
  C   C109      1.0  0.85632  0.44306  0.40999  1.0000
  C   C110      1.0  0.85770  0.45747  0.49479  1.0000
  O   O5        1.0  0.88114  0.45873  0.55380  1.0000
  N   N28       1.0  0.83398  0.46525  0.52510  1.0000
  H   H63       1.0  0.81385  0.46045  0.49010  1.0000
  H   H64       1.0  0.83498  0.47271  0.58639  1.0000
  C   C111      1.0  0.53248  0.39545  0.32773  1.0000
  C   C112      1.0  0.59246  0.45990  0.33779  1.0000
  N   N29       1.0  0.57353  0.44361  0.41113  1.0000
  C   C113      1.0  0.54338  0.41304  0.41063  1.0000
  C   C114      1.0  0.52870  0.40000  0.49520  1.0000
  O   O6        1.0  0.52755  0.42225  0.55421  1.0000
  N   N30       1.0  0.52068  0.36845  0.52562  1.0000
  H   H65       1.0  0.52562  0.35315  0.49091  1.0000
  H   H66       1.0  0.51325  0.36208  0.58696  1.0000
