data_image0
_chemical_formula_structural       C3NO2CNCHNCNH2C2NC3HC3NHC4HC3NHNO2C4HC3NHNO2CNC2HNO2CNC2H2NO2CNC2H2NO2CNC2H2NO2CNC2H2NO2CNC2H2NO2CNCNCNCNCNCNCNCNCNCNCNCNCNCNCNC2HNO2CNC2H2NO2CNC2H2NO2C3HC3NHNO2C4HC3NHNO2C4HCN2O2C4HC3NHNO2C4HC3NHNO2C4HC3NHNO2
_chemical_formula_sum              "C108 N54 O36 H36"
_cell_length_a       46.094
_cell_length_b       46.094
_cell_length_c       14.8677
_cell_angle_alpha    90
_cell_angle_beta     90
_cell_angle_gamma    120

_space_group_name_H-M_alt    "P 1"
_space_group_IT_number       1

loop_
  _space_group_symop_operation_xyz
  'x, y, z'

loop_
  _atom_site_type_symbol
  _atom_site_label
  _atom_site_symmetry_multiplicity
  _atom_site_fract_x
  _atom_site_fract_y
  _atom_site_fract_z
  _atom_site_occupancy
  C   C1        1.0  0.02470  0.51336  0.35074  1.0000
  C   C2        1.0  0.04195  0.49568  0.33041  1.0000
  C   C3        1.0  0.07754  0.51314  0.33178  1.0000
  N   N1        1.0  0.02428  0.46131  0.30681  1.0000
  O   O1        1.0  0.03011  0.44382  0.36066  1.0000
  O   O2        1.0  0.03112  0.45650  0.22833  1.0000
  C   C4        1.0  0.07843  0.56404  0.36999  1.0000
  N   N2        1.0  0.04443  0.54661  0.36947  1.0000
  C   C5        1.0  0.09680  0.54777  0.35126  1.0000
  H   H1        1.0  0.08948  0.50012  0.31605  1.0000
  N   N3        1.0  0.15112  0.59945  0.34379  1.0000
  C   C6        1.0  0.13269  0.56523  0.35038  1.0000
  N   N4        1.0  0.14963  0.54790  0.35333  1.0000
  H   H2        1.0  0.09021  0.58898  0.38532  1.0000
  H   H3        1.0  0.20225  0.53941  0.21380  1.0000
  C   C7        1.0  0.18521  0.61589  0.33908  1.0000
  C   C8        1.0  0.18362  0.56384  0.35070  1.0000
  N   N5        1.0  0.20068  0.59753  0.34286  1.0000
  C   C9        1.0  0.20312  0.54815  0.35434  1.0000
  C   C10       1.0  0.20631  0.65085  0.32791  1.0000
  C   C11       1.0  0.20859  0.67395  0.39358  1.0000
  H   H4        1.0  0.19225  0.66644  0.44650  1.0000
  C   C12       1.0  0.98863  0.49873  0.35279  1.0000
  C   C13       1.0  0.91645  0.46383  0.35508  1.0000
  C   C14       1.0  0.93506  0.44711  0.35163  1.0000
  N   N6        1.0  0.96903  0.46473  0.35075  1.0000
  H   H5        1.0  0.92350  0.42157  0.34920  1.0000
  C   C15       1.0  0.46331  0.55123  0.35122  1.0000
  C   C16       1.0  0.49771  0.51353  0.35070  1.0000
  C   C17       1.0  0.51539  0.54846  0.33029  1.0000
  C   C18       1.0  0.49794  0.56659  0.33169  1.0000
  H   H6        1.0  0.51095  0.59154  0.31586  1.0000
  C   C19       1.0  0.51235  0.49209  0.35277  1.0000
  C   C20       1.0  0.54726  0.45483  0.35507  1.0000
  C   C21       1.0  0.56398  0.49017  0.35167  1.0000
  N   N7        1.0  0.54635  0.50650  0.35076  1.0000
  H   H7        1.0  0.58952  0.50416  0.34924  1.0000
  N   N8        1.0  0.54975  0.56515  0.30660  1.0000
  O   O3        1.0  0.56727  0.58849  0.36038  1.0000
  O   O4        1.0  0.55453  0.57677  0.22809  1.0000
  C   C22       1.0  0.45985  0.91431  0.35127  1.0000
  C   C23       1.0  0.49754  0.98641  0.35082  1.0000
  C   C24       1.0  0.46260  0.96916  0.33045  1.0000
  C   C25       1.0  0.44448  0.93357  0.33178  1.0000
  H   H8        1.0  0.41952  0.92163  0.31605  1.0000
  C   C26       1.0  0.51898  0.02249  0.35289  1.0000
  C   C27       1.0  0.55626  0.09467  0.35517  1.0000
  C   C28       1.0  0.52093  0.07606  0.35158  1.0000
  N   N9        1.0  0.50458  0.04208  0.35070  1.0000
  H   H9        1.0  0.50695  0.08762  0.34903  1.0000
  N   N10       1.0  0.44591  0.98683  0.30685  1.0000
  O   O5        1.0  0.42257  0.98099  0.36067  1.0000
  O   O6        1.0  0.43427  0.98000  0.22835  1.0000
  C   C29       1.0  0.21350  0.54008  0.27367  1.0000
  N   N11       1.0  0.24185  0.53805  0.27249  1.0000
  C   C30       1.0  0.31514  0.56505  0.26157  1.0000
  C   C31       1.0  0.34839  0.57107  0.26111  1.0000
  H   H10       1.0  0.36473  0.58719  0.21397  1.0000
  N   N12       1.0  0.30496  0.58118  0.19821  1.0000
  O   O7        1.0  0.30692  0.57273  0.11907  1.0000
  O   O8        1.0  0.32212  0.61256  0.20425  1.0000
  C   C32       1.0  0.47086  0.67557  0.27354  1.0000
  N   N13       1.0  0.47285  0.70593  0.27237  1.0000
  C   C33       1.0  0.44598  0.75228  0.26168  1.0000
  C   C34       1.0  0.43999  0.77953  0.26124  1.0000
  H   H11       1.0  0.42380  0.77972  0.21425  1.0000
  H   H12       1.0  0.47121  0.66489  0.21352  1.0000
  N   N14       1.0  0.42973  0.72592  0.19851  1.0000
  O   O9        1.0  0.43808  0.73626  0.11928  1.0000
  O   O10       1.0  0.39837  0.71175  0.20487  1.0000
  C   C35       1.0  0.33550  0.79760  0.27388  1.0000
  N   N15       1.0  0.30514  0.76922  0.27265  1.0000
  C   C36       1.0  0.25873  0.69600  0.26154  1.0000
  C   C37       1.0  0.23148  0.66275  0.26108  1.0000
  H   H13       1.0  0.23126  0.64640  0.21397  1.0000
  H   H14       1.0  0.34614  0.80869  0.21389  1.0000
  N   N16       1.0  0.28502  0.70615  0.19815  1.0000
  O   O11       1.0  0.27461  0.70422  0.11902  1.0000
  O   O12       1.0  0.29921  0.68896  0.20410  1.0000
  C   C38       1.0  0.79917  0.47058  0.27849  1.0000
  N   N17       1.0  0.77047  0.47198  0.27679  1.0000
  C   C39       1.0  0.69680  0.44319  0.26450  1.0000
  C   C40       1.0  0.66333  0.43654  0.26355  1.0000
  H   H15       1.0  0.64721  0.42021  0.21640  1.0000
  H   H16       1.0  0.81074  0.47178  0.21878  1.0000
  N   N18       1.0  0.70755  0.42737  0.20174  1.0000
  O   O13       1.0  0.70552  0.43559  0.12239  1.0000
  O   O14       1.0  0.69084  0.39598  0.20801  1.0000
  C   C41       1.0  0.54074  0.33090  0.27802  1.0000
  N   N19       1.0  0.53928  0.30078  0.27631  1.0000
  C   C42       1.0  0.56813  0.25595  0.26442  1.0000
  C   C43       1.0  0.57477  0.22912  0.26347  1.0000
  H   H17       1.0  0.59121  0.22940  0.21658  1.0000
  H   H18       1.0  0.53948  0.34129  0.21840  1.0000
  N   N20       1.0  0.58406  0.28257  0.20189  1.0000
  O   O15       1.0  0.57596  0.27241  0.12243  1.0000
  O   O16       1.0  0.61544  0.29725  0.20854  1.0000
  C   C44       1.0  0.68016  0.21211  0.27816  1.0000
  N   N21       1.0  0.71026  0.24079  0.27644  1.0000
  C   C45       1.0  0.75515  0.31441  0.26471  1.0000
  C   C46       1.0  0.78200  0.34787  0.26372  1.0000
  H   H19       1.0  0.78167  0.36404  0.21697  1.0000
  H   H20       1.0  0.66969  0.20066  0.21838  1.0000
  N   N22       1.0  0.72848  0.30375  0.20234  1.0000
  O   O17       1.0  0.73858  0.30585  0.12280  1.0000
  O   O18       1.0  0.71383  0.32048  0.20926  1.0000
  C   C47       1.0  0.39523  0.57159  0.33899  1.0000
  N   N23       1.0  0.41164  0.55391  0.34373  1.0000
  C   C48       1.0  0.44586  0.56966  0.35031  1.0000
  N   N24       1.0  0.46322  0.60394  0.35327  1.0000
  C   C49       1.0  0.44730  0.62201  0.35056  1.0000
  N   N25       1.0  0.41361  0.60542  0.34275  1.0000
  C   C50       1.0  0.43952  0.82589  0.33893  1.0000
  N   N26       1.0  0.45719  0.85998  0.34369  1.0000
  C   C51       1.0  0.44143  0.87843  0.35036  1.0000
  N   N27       1.0  0.40715  0.86150  0.35341  1.0000
  C   C52       1.0  0.38910  0.82751  0.35075  1.0000
  N   N28       1.0  0.40570  0.81043  0.34286  1.0000
  C   C53       1.0  0.82824  0.39515  0.34049  1.0000
  N   N29       1.0  0.86232  0.41193  0.34548  1.0000
  C   C54       1.0  0.88050  0.44611  0.35362  1.0000
  N   N30       1.0  0.86316  0.46304  0.35779  1.0000
  C   C55       1.0  0.82915  0.44677  0.35472  1.0000
  N   N31       1.0  0.81241  0.41313  0.34549  1.0000
  C   C56       1.0  0.61598  0.43535  0.34052  1.0000
  N   N32       1.0  0.59919  0.45264  0.34552  1.0000
  C   C57       1.0  0.56500  0.43661  0.35360  1.0000
  N   N33       1.0  0.54808  0.40235  0.35765  1.0000
  C   C58       1.0  0.56436  0.38462  0.35453  1.0000
  N   N34       1.0  0.59801  0.40154  0.34536  1.0000
  C   C59       1.0  0.57583  0.18289  0.34043  1.0000
  N   N35       1.0  0.55851  0.14882  0.34548  1.0000
  C   C60       1.0  0.57449  0.13062  0.35366  1.0000
  N   N36       1.0  0.60876  0.14794  0.35779  1.0000
  C   C61       1.0  0.62652  0.18194  0.35457  1.0000
  N   N37       1.0  0.60964  0.19869  0.34534  1.0000
  C   C62       1.0  0.97122  0.51702  0.35731  1.0000
  C   C63       1.0  0.93561  0.49925  0.35836  1.0000
  H   H21       1.0  0.92360  0.51285  0.36072  1.0000
  N   N38       1.0  0.98879  0.55249  0.35929  1.0000
  O   O19       1.0  0.98283  0.56351  0.43006  1.0000
  O   O20       1.0  0.98193  0.56470  0.29257  1.0000
  C   C64       1.0  0.44704  0.51659  0.37001  1.0000
  N   N39       1.0  0.46447  0.50003  0.36950  1.0000
  C   C65       1.0  0.49406  0.45639  0.35726  1.0000
  C   C66       1.0  0.51184  0.43856  0.35831  1.0000
  H   H22       1.0  0.49825  0.41296  0.36065  1.0000
  H   H23       1.0  0.42210  0.50344  0.38538  1.0000
  N   N40       1.0  0.45860  0.43850  0.35921  1.0000
  O   O21       1.0  0.44758  0.42151  0.42997  1.0000
  O   O22       1.0  0.44640  0.41943  0.29246  1.0000
  C   C67       1.0  0.49449  0.93268  0.37004  1.0000
  N   N41       1.0  0.51105  0.96668  0.36954  1.0000
  C   C68       1.0  0.55468  0.03989  0.35757  1.0000
  C   C69       1.0  0.57252  0.07550  0.35858  1.0000
  H   H24       1.0  0.59812  0.08751  0.36108  1.0000
  H   H25       1.0  0.50765  0.92090  0.38536  1.0000
  N   N42       1.0  0.57256  0.02232  0.35972  1.0000
  O   O23       1.0  0.58950  0.02829  0.43058  1.0000
  O   O24       1.0  0.59169  0.02918  0.29309  1.0000
  C   C70       1.0  0.26125  0.54200  0.34576  1.0000
  C   C71       1.0  0.25113  0.54872  0.42988  1.0000
  C   C72       1.0  0.22216  0.55203  0.43244  1.0000
  H   H26       1.0  0.21656  0.56003  0.49079  1.0000
  C   C73       1.0  0.29333  0.54505  0.33176  1.0000
  C   C74       1.0  0.36027  0.55779  0.32792  1.0000
  C   C75       1.0  0.33719  0.53696  0.39360  1.0000
  N   N43       1.0  0.30558  0.53216  0.39394  1.0000
  H   H27       1.0  0.34465  0.52795  0.44621  1.0000
  N   N44       1.0  0.27146  0.55542  0.50720  1.0000
  O   O25       1.0  0.25550  0.53547  0.56989  1.0000
  O   O26       1.0  0.28266  0.58487  0.53503  1.0000
  C   C76       1.0  0.46302  0.65720  0.35436  1.0000
  C   C77       1.0  0.46916  0.72151  0.34573  1.0000
  C   C78       1.0  0.46270  0.70477  0.42995  1.0000
  C   C79       1.0  0.45941  0.67250  0.43253  1.0000
  H   H28       1.0  0.45157  0.65897  0.49102  1.0000
  C   C80       1.0  0.46605  0.75051  0.33172  1.0000
  C   C81       1.0  0.45337  0.80477  0.32787  1.0000
  C   C82       1.0  0.47426  0.80253  0.39339  1.0000
  N   N45       1.0  0.47902  0.77569  0.39376  1.0000
  H   H29       1.0  0.48326  0.81900  0.44598  1.0000
  N   N46       1.0  0.45628  0.71853  0.50747  1.0000
  O   O27       1.0  0.47644  0.72260  0.56965  1.0000
  O   O28       1.0  0.42692  0.70031  0.53602  1.0000
  C   C83       1.0  0.35391  0.80803  0.35465  1.0000
  C   C84       1.0  0.28960  0.74986  0.34590  1.0000
  C   C85       1.0  0.30638  0.76006  0.43008  1.0000
  C   C86       1.0  0.33864  0.78905  0.43274  1.0000
  H   H30       1.0  0.35221  0.79462  0.49113  1.0000
  C   C87       1.0  0.26057  0.71777  0.33184  1.0000
  N   N47       1.0  0.23545  0.70552  0.39405  1.0000
  N   N48       1.0  0.29268  0.73977  0.50745  1.0000
  O   O29       1.0  0.28863  0.75576  0.56994  1.0000
  O   O30       1.0  0.31093  0.72860  0.53560  1.0000
  C   C88       1.0  0.80927  0.46205  0.35892  1.0000
  C   C89       1.0  0.75055  0.46713  0.34949  1.0000
  C   C90       1.0  0.76035  0.45994  0.43344  1.0000
  C   C91       1.0  0.78962  0.45716  0.43641  1.0000
  H   H31       1.0  0.79504  0.44883  0.49446  1.0000
  C   C92       1.0  0.71829  0.46351  0.33474  1.0000
  C   C93       1.0  0.65100  0.44966  0.32961  1.0000
  C   C94       1.0  0.67381  0.47077  0.39541  1.0000
  N   N49       1.0  0.70561  0.47612  0.39645  1.0000
  H   H32       1.0  0.66602  0.47963  0.44768  1.0000
  N   N50       1.0  0.73941  0.45221  0.50987  1.0000
  O   O31       1.0  0.75470  0.47165  0.57405  1.0000
  O   O32       1.0  0.72845  0.42257  0.53576  1.0000
  C   C95       1.0  0.54909  0.34945  0.35857  1.0000
  C   C96       1.0  0.54405  0.28569  0.34908  1.0000
  C   C97       1.0  0.55113  0.30261  0.43310  1.0000
  C   C98       1.0  0.55387  0.33464  0.43612  1.0000
  H   H33       1.0  0.56215  0.34837  0.49421  1.0000
  C   C99       1.0  0.54767  0.25704  0.33440  1.0000
  C   C100      1.0  0.56158  0.20366  0.32948  1.0000
  C   C101      1.0  0.54030  0.20523  0.39495  1.0000
  N   N51       1.0  0.53495  0.23169  0.39592  1.0000
  H   H34       1.0  0.53135  0.18853  0.44708  1.0000
  N   N52       1.0  0.55877  0.28935  0.50960  1.0000
  O   O33       1.0  0.53924  0.28514  0.57359  1.0000
  O   O34       1.0  0.58838  0.30804  0.53577  1.0000
  C   C102      1.0  0.66168  0.20179  0.35885  1.0000
  C   C103      1.0  0.72548  0.26055  0.34929  1.0000
  C   C104      1.0  0.70864  0.25057  0.43340  1.0000
  C   C105      1.0  0.67662  0.22128  0.43645  1.0000
  H   H35       1.0  0.66295  0.21576  0.49465  1.0000
  C   C106      1.0  0.75409  0.29283  0.33457  1.0000
  C   C107      1.0  0.80752  0.36012  0.32958  1.0000
  C   C108      1.0  0.80597  0.33724  0.39493  1.0000
  N   N53       1.0  0.77949  0.30545  0.39595  1.0000
  H   H36       1.0  0.82267  0.34501  0.44705  1.0000
  N   N54       1.0  0.72201  0.27134  0.51008  1.0000
  O   O35       1.0  0.72630  0.25592  0.57366  1.0000
  O   O36       1.0  0.70337  0.28224  0.53686  1.0000
