data_image0
_chemical_formula_structural       C3NC3NC5NC5NC20H18N4C3NC3NC5NC5NC20H18N4C3NC3NC5NC5NC20H18N4C3NC3NC5NC5NC20H18N4C3NC3NC5NC5NC20H18N4C3NC3NC5NC5NC20H18N4CN2CHCN2CHCN2CHCN2CHCN2CHCN2CHCN2CHCN2CHCN2CHCN2CHCN2CHCN2CHC8H8C8H8C8H8C8H8C8H8C8H8C3NH3CHC3NH3CHC3NH3CHC3NH3CHC3NH3CHC3NH3CHC3NH3CHC3NH3CHC3NH3CHC3NH3CHC3NH3CHC3NH3CH
_chemical_formula_sum              "C336 N84 H216"
_cell_length_a       69.0038
_cell_length_b       69.0037
_cell_length_c       14.8418
_cell_angle_alpha    90.0046
_cell_angle_beta     89.9096
_cell_angle_gamma    120

_space_group_name_H-M_alt    "P 1"
_space_group_IT_number       1

loop_
  _space_group_symop_operation_xyz
  'x, y, z'

loop_
  _atom_site_type_symbol
  _atom_site_label
  _atom_site_symmetry_multiplicity
  _atom_site_fract_x
  _atom_site_fract_y
  _atom_site_fract_z
  _atom_site_occupancy
  C   C1        1.0  0.21523  0.37913  0.31898  1.0000
  C   C2        1.0  0.23530  0.37915  0.32143  1.0000
  C   C3        1.0  0.25280  0.40133  0.32075  1.0000
  N   N1        1.0  0.24259  0.41383  0.31805  1.0000
  C   C4        1.0  0.21987  0.40129  0.31712  1.0000
  C   C5        1.0  0.20343  0.40809  0.31484  1.0000
  C   C6        1.0  0.20848  0.43078  0.31409  1.0000
  N   N2        1.0  0.22883  0.44955  0.31345  1.0000
  C   C7        1.0  0.22733  0.46837  0.31332  1.0000
  C   C8        1.0  0.20451  0.46126  0.31383  1.0000
  C   C9        1.0  0.19293  0.43816  0.31461  1.0000
  C   C10       1.0  0.24500  0.49096  0.31297  1.0000
  C   C11       1.0  0.26816  0.49775  0.31440  1.0000
  N   N3        1.0  0.27822  0.48516  0.31508  1.0000
  C   C12       1.0  0.30085  0.49777  0.31849  1.0000
  C   C13       1.0  0.30558  0.51998  0.31884  1.0000
  C   C14       1.0  0.28561  0.51996  0.31672  1.0000
  C   C15       1.0  0.31724  0.49102  0.32148  1.0000
  C   C16       1.0  0.31237  0.46845  0.32173  1.0000
  N   N4        1.0  0.29206  0.44962  0.32052  1.0000
  C   C17       1.0  0.29368  0.43087  0.32241  1.0000
  C   C18       1.0  0.31660  0.43827  0.32446  1.0000
  C   C19       1.0  0.32809  0.46137  0.32441  1.0000
  C   C20       1.0  0.27605  0.40817  0.32289  1.0000
  C   C21       1.0  0.28255  0.39144  0.32799  1.0000
  C   C22       1.0  0.30249  0.36368  0.33740  1.0000
  C   C23       1.0  0.29622  0.36870  0.25361  1.0000
  C   C24       1.0  0.28655  0.38251  0.24895  1.0000
  C   C25       1.0  0.34012  0.50828  0.32715  1.0000
  C   C26       1.0  0.38381  0.54651  0.33735  1.0000
  C   C27       1.0  0.37466  0.53633  0.25339  1.0000
  C   C28       1.0  0.35302  0.51749  0.24830  1.0000
  C   C29       1.0  0.23929  0.50820  0.31504  1.0000
  C   C30       1.0  0.24015  0.51998  0.23586  1.0000
  C   C31       1.0  0.23737  0.53884  0.24021  1.0000
  C   C32       1.0  0.23373  0.54647  0.32340  1.0000
  C   C33       1.0  0.18016  0.39130  0.31535  1.0000
  C   C34       1.0  0.16727  0.38579  0.23563  1.0000
  C   C35       1.0  0.13234  0.36333  0.32080  1.0000
  C   C36       1.0  0.14378  0.37200  0.23850  1.0000
  H   H1        1.0  0.13494  0.36883  0.17974  1.0000
  H   H2        1.0  0.17484  0.39252  0.17524  1.0000
  H   H3        1.0  0.19980  0.36502  0.31887  1.0000
  H   H4        1.0  0.23665  0.36507  0.32333  1.0000
  H   H5        1.0  0.25061  0.42989  0.31718  1.0000
  H   H6        1.0  0.27021  0.46911  0.31403  1.0000
  H   H7        1.0  0.17588  0.42856  0.31589  1.0000
  H   H8        1.0  0.19725  0.47103  0.31416  1.0000
  H   H9        1.0  0.24357  0.51536  0.17499  1.0000
  H   H10       1.0  0.23858  0.54735  0.18202  1.0000
  H   H11       1.0  0.28438  0.53412  0.31756  1.0000
  H   H12       1.0  0.32094  0.53414  0.32124  1.0000
  H   H13       1.0  0.32405  0.42867  0.32625  1.0000
  H   H14       1.0  0.34513  0.47117  0.32607  1.0000
  H   H15       1.0  0.34648  0.51094  0.18645  1.0000
  H   H16       1.0  0.38340  0.54289  0.19502  1.0000
  H   H17       1.0  0.28311  0.38661  0.18709  1.0000
  H   H18       1.0  0.29929  0.36295  0.19494  1.0000
  N   N5        1.0  0.40379  0.56470  0.34815  1.0000
  N   N6        1.0  0.23223  0.56505  0.32210  1.0000
  N   N7        1.0  0.10986  0.35120  0.31819  1.0000
  N   N8        1.0  0.31244  0.35141  0.34794  1.0000
  C   C37       1.0  0.69499  0.83875  0.32006  1.0000
  C   C38       1.0  0.69497  0.85880  0.32242  1.0000
  C   C39       1.0  0.67279  0.85413  0.32169  1.0000
  N   N9        1.0  0.66029  0.83141  0.31906  1.0000
  C   C40       1.0  0.67283  0.82123  0.31822  1.0000
  C   C41       1.0  0.66603  0.79799  0.31599  1.0000
  C   C42       1.0  0.64334  0.78035  0.31527  1.0000
  N   N10       1.0  0.62458  0.78193  0.31467  1.0000
  C   C43       1.0  0.60576  0.76161  0.31455  1.0000
  C   C44       1.0  0.61287  0.74591  0.31502  1.0000
  C   C45       1.0  0.63597  0.75742  0.31583  1.0000
  C   C46       1.0  0.58316  0.75668  0.31427  1.0000
  C   C47       1.0  0.57637  0.77306  0.31560  1.0000
  N   N11       1.0  0.58896  0.79571  0.31617  1.0000
  C   C48       1.0  0.57635  0.80573  0.31951  1.0000
  C   C49       1.0  0.55414  0.78825  0.32009  1.0000
  C   C50       1.0  0.55416  0.76829  0.31804  1.0000
  C   C51       1.0  0.58310  0.82887  0.32226  1.0000
  C   C52       1.0  0.60567  0.84658  0.32248  1.0000
  N   N12       1.0  0.62450  0.84510  0.32140  1.0000
  C   C53       1.0  0.64325  0.86545  0.32320  1.0000
  C   C54       1.0  0.63585  0.88099  0.32506  1.0000
  C   C55       1.0  0.61275  0.86938  0.32495  1.0000
  C   C56       1.0  0.66595  0.87052  0.32367  1.0000
  C   C57       1.0  0.68267  0.89376  0.32869  1.0000
  C   C58       1.0  0.71044  0.94147  0.33786  1.0000
  C   C59       1.0  0.70548  0.93014  0.25414  1.0000
  C   C60       1.0  0.69169  0.90665  0.24959  1.0000
  C   C61       1.0  0.56584  0.83450  0.32777  1.0000
  C   C62       1.0  0.52759  0.83995  0.33776  1.0000
  C   C63       1.0  0.53782  0.84093  0.25382  1.0000
  C   C64       1.0  0.55666  0.83813  0.24885  1.0000
  C   C65       1.0  0.56593  0.73374  0.31631  1.0000
  C   C66       1.0  0.55418  0.72282  0.23713  1.0000
  C   C67       1.0  0.53532  0.70118  0.24147  1.0000
  C   C68       1.0  0.52765  0.68991  0.32465  1.0000
  C   C69       1.0  0.68282  0.79151  0.31653  1.0000
  C   C70       1.0  0.68840  0.78414  0.23679  1.0000
  C   C71       1.0  0.71079  0.77166  0.32198  1.0000
  C   C72       1.0  0.70216  0.77441  0.23968  1.0000
  H   H19       1.0  0.70538  0.76876  0.18092  1.0000
  H   H20       1.0  0.68170  0.78497  0.17641  1.0000
  H   H21       1.0  0.70910  0.83744  0.32000  1.0000
  H   H22       1.0  0.70905  0.87424  0.32427  1.0000
  H   H23       1.0  0.64424  0.82338  0.31814  1.0000
  H   H24       1.0  0.60501  0.80375  0.31485  1.0000
  H   H25       1.0  0.64557  0.74997  0.31702  1.0000
  H   H26       1.0  0.60309  0.72887  0.31539  1.0000
  H   H27       1.0  0.55883  0.73087  0.17629  1.0000
  H   H28       1.0  0.52683  0.69389  0.18329  1.0000
  H   H29       1.0  0.54001  0.75291  0.31908  1.0000
  H   H30       1.0  0.53998  0.78945  0.32247  1.0000
  H   H31       1.0  0.64545  0.89804  0.32661  1.0000
  H   H32       1.0  0.60295  0.87661  0.32642  1.0000
  H   H33       1.0  0.56325  0.83811  0.18703  1.0000
  H   H34       1.0  0.53129  0.84306  0.19540  1.0000
  H   H35       1.0  0.68764  0.89908  0.18777  1.0000
  H   H36       1.0  0.71131  0.93893  0.19545  1.0000
  N   N13       1.0  0.50938  0.84171  0.34843  1.0000
  N   N14       1.0  0.50907  0.66983  0.32336  1.0000
  N   N15       1.0  0.72290  0.76128  0.31939  1.0000
  N   N16       1.0  0.72270  0.96368  0.34828  1.0000
  C   C73       1.0  0.23537  0.85889  0.31815  1.0000
  C   C74       1.0  0.21532  0.83882  0.32050  1.0000
  C   C75       1.0  0.22000  0.82132  0.31981  1.0000
  N   N17       1.0  0.24272  0.83153  0.31721  1.0000
  C   C76       1.0  0.25290  0.85425  0.31636  1.0000
  C   C77       1.0  0.27614  0.87069  0.31418  1.0000
  C   C78       1.0  0.29378  0.86564  0.31351  1.0000
  N   N18       1.0  0.29220  0.84529  0.31285  1.0000
  C   C79       1.0  0.31252  0.84680  0.31284  1.0000
  C   C80       1.0  0.32822  0.86961  0.31347  1.0000
  C   C81       1.0  0.31671  0.88120  0.31421  1.0000
  C   C82       1.0  0.31745  0.82913  0.31251  1.0000
  C   C83       1.0  0.30107  0.80597  0.31378  1.0000
  N   N19       1.0  0.27842  0.79590  0.31431  1.0000
  C   C84       1.0  0.26840  0.77328  0.31764  1.0000
  C   C85       1.0  0.28588  0.76854  0.31820  1.0000
  C   C86       1.0  0.30584  0.78852  0.31618  1.0000
  C   C87       1.0  0.24525  0.75687  0.32041  1.0000
  C   C88       1.0  0.22755  0.76174  0.32064  1.0000
  N   N20       1.0  0.22903  0.78205  0.31953  1.0000
  C   C89       1.0  0.20867  0.78044  0.32134  1.0000
  C   C90       1.0  0.19314  0.75752  0.32321  1.0000
  C   C91       1.0  0.20475  0.74602  0.32310  1.0000
  C   C92       1.0  0.20360  0.79807  0.32183  1.0000
  C   C93       1.0  0.18036  0.79156  0.32685  1.0000
  C   C94       1.0  0.13265  0.77162  0.33627  1.0000
  C   C95       1.0  0.14401  0.77794  0.25248  1.0000
  C   C96       1.0  0.16749  0.78764  0.24782  1.0000
  C   C97       1.0  0.23963  0.73399  0.32598  1.0000
  C   C98       1.0  0.23415  0.69029  0.33616  1.0000
  C   C99       1.0  0.23324  0.69952  0.25217  1.0000
  C   C100      1.0  0.23604  0.72117  0.24710  1.0000
  C   C101      1.0  0.34039  0.83484  0.31477  1.0000
  C   C102      1.0  0.35141  0.83403  0.23574  1.0000
  C   C103      1.0  0.37306  0.83682  0.24031  1.0000
  C   C104      1.0  0.38420  0.84038  0.32363  1.0000
  C   C105      1.0  0.28262  0.89396  0.31481  1.0000
  C   C106      1.0  0.29010  0.90694  0.23517  1.0000
  C   C107      1.0  0.30246  0.94178  0.32051  1.0000
  C   C108      1.0  0.29980  0.93043  0.23817  1.0000
  H   H37       1.0  0.30551  0.93932  0.17946  1.0000
  H   H38       1.0  0.28931  0.89943  0.17474  1.0000
  H   H39       1.0  0.23669  0.87432  0.31805  1.0000
  H   H40       1.0  0.19989  0.83746  0.32232  1.0000
  H   H41       1.0  0.25075  0.82351  0.31636  1.0000
  H   H42       1.0  0.27038  0.80391  0.31303  1.0000
  H   H43       1.0  0.32416  0.89825  0.31553  1.0000
  H   H44       1.0  0.34527  0.87688  0.31391  1.0000
  H   H45       1.0  0.34346  0.83069  0.17476  1.0000
  H   H46       1.0  0.38043  0.83565  0.18221  1.0000
  H   H47       1.0  0.32122  0.78975  0.31724  1.0000
  H   H48       1.0  0.28468  0.75318  0.32059  1.0000
  H   H49       1.0  0.17609  0.75006  0.32477  1.0000
  H   H50       1.0  0.19751  0.72899  0.32458  1.0000
  H   H51       1.0  0.23613  0.72777  0.18525  1.0000
  H   H52       1.0  0.23116  0.69085  0.19378  1.0000
  H   H53       1.0  0.17508  0.79113  0.18596  1.0000
  H   H54       1.0  0.13523  0.77495  0.19382  1.0000
  N   N21       1.0  0.23237  0.67031  0.34693  1.0000
  N   N22       1.0  0.40429  0.84188  0.32256  1.0000
  N   N23       1.0  0.31283  0.96427  0.31804  1.0000
  N   N24       1.0  0.11043  0.76167  0.34680  1.0000
  C   C109      1.0  0.88183  0.67205  0.31983  1.0000
  C   C110      1.0  0.86175  0.67202  0.32237  1.0000
  C   C111      1.0  0.84425  0.64985  0.32187  1.0000
  N   N25       1.0  0.85447  0.63734  0.31922  1.0000
  C   C112      1.0  0.87719  0.64989  0.31815  1.0000
  C   C113      1.0  0.89363  0.64309  0.31586  1.0000
  C   C114      1.0  0.88858  0.62039  0.31528  1.0000
  N   N26       1.0  0.86823  0.60163  0.31487  1.0000
  C   C115      1.0  0.86973  0.58281  0.31485  1.0000
  C   C116      1.0  0.89255  0.58992  0.31523  1.0000
  C   C117      1.0  0.90413  0.61302  0.31582  1.0000
  C   C118      1.0  0.85206  0.56021  0.31473  1.0000
  C   C119      1.0  0.82890  0.55343  0.31619  1.0000
  N   N27       1.0  0.81884  0.56601  0.31681  1.0000
  C   C120      1.0  0.79621  0.55341  0.32028  1.0000
  C   C121      1.0  0.79148  0.53120  0.32083  1.0000
  C   C122      1.0  0.81145  0.53121  0.31863  1.0000
  C   C123      1.0  0.77981  0.56015  0.32318  1.0000
  C   C124      1.0  0.78468  0.58273  0.32336  1.0000
  N   N28       1.0  0.80499  0.60156  0.32206  1.0000
  C   C125      1.0  0.80338  0.62030  0.32384  1.0000
  C   C126      1.0  0.78045  0.61291  0.32591  1.0000
  C   C127      1.0  0.76896  0.58981  0.32594  1.0000
  C   C128      1.0  0.82101  0.64300  0.32414  1.0000
  C   C129      1.0  0.81450  0.65973  0.32909  1.0000
  C   C130      1.0  0.79455  0.68750  0.33831  1.0000
  C   C131      1.0  0.80090  0.68249  0.25457  1.0000
  C   C132      1.0  0.81061  0.66871  0.25000  1.0000
  C   C133      1.0  0.75693  0.54289  0.32890  1.0000
  C   C134      1.0  0.71323  0.50466  0.33920  1.0000
  C   C135      1.0  0.72245  0.51486  0.25521  1.0000
  C   C136      1.0  0.74411  0.53368  0.25006  1.0000
  C   C137      1.0  0.85777  0.54298  0.31677  1.0000
  C   C138      1.0  0.85696  0.53121  0.23763  1.0000
  C   C139      1.0  0.85973  0.51234  0.24202  1.0000
  C   C140      1.0  0.86331  0.50470  0.32522  1.0000
  C   C141      1.0  0.91689  0.65987  0.31616  1.0000
  C   C142      1.0  0.92983  0.66537  0.23635  1.0000
  C   C143      1.0  0.96473  0.68783  0.32119  1.0000
  C   C144      1.0  0.95332  0.67915  0.23900  1.0000
  H   H55       1.0  0.96216  0.68232  0.18016  1.0000
  H   H56       1.0  0.92227  0.65866  0.17602  1.0000
  H   H57       1.0  0.89725  0.68616  0.31964  1.0000
  H   H58       1.0  0.86040  0.68611  0.32421  1.0000
  H   H59       1.0  0.84645  0.62129  0.31853  1.0000
  H   H60       1.0  0.82685  0.58206  0.31558  1.0000
  H   H61       1.0  0.92118  0.62262  0.31694  1.0000
  H   H62       1.0  0.89981  0.58014  0.31560  1.0000
  H   H63       1.0  0.85360  0.53585  0.17674  1.0000
  H   H64       1.0  0.85857  0.50385  0.18384  1.0000
  H   H65       1.0  0.81268  0.51706  0.31969  1.0000
  H   H66       1.0  0.77612  0.51703  0.32330  1.0000
  H   H67       1.0  0.77300  0.62251  0.32753  1.0000
  H   H68       1.0  0.75193  0.58000  0.32758  1.0000
  H   H69       1.0  0.75069  0.54025  0.18820  1.0000
  H   H70       1.0  0.71378  0.50829  0.19684  1.0000
  H   H71       1.0  0.81409  0.66461  0.18816  1.0000
  H   H72       1.0  0.79790  0.68827  0.19588  1.0000
  N   N29       1.0  0.69325  0.48646  0.35003  1.0000
  N   N30       1.0  0.86481  0.48612  0.32398  1.0000
  N   N31       1.0  0.98721  0.69995  0.31838  1.0000
  N   N32       1.0  0.78458  0.69975  0.34877  1.0000
  C   C145      1.0  0.40208  0.21243  0.32053  1.0000
  C   C146      1.0  0.40210  0.19238  0.32289  1.0000
  C   C147      1.0  0.42428  0.19706  0.32243  1.0000
  N   N33       1.0  0.43678  0.21978  0.31994  1.0000
  C   C148      1.0  0.42424  0.22996  0.31894  1.0000
  C   C149      1.0  0.43104  0.25320  0.31680  1.0000
  C   C150      1.0  0.45374  0.27084  0.31632  1.0000
  N   N34       1.0  0.47250  0.26926  0.31586  1.0000
  C   C151      1.0  0.49132  0.28958  0.31595  1.0000
  C   C152      1.0  0.48421  0.30528  0.31643  1.0000
  C   C153      1.0  0.46111  0.29377  0.31697  1.0000
  C   C154      1.0  0.51392  0.29450  0.31578  1.0000
  C   C155      1.0  0.52070  0.27813  0.31720  1.0000
  N   N35       1.0  0.50812  0.25548  0.31779  1.0000
  C   C156      1.0  0.52072  0.24546  0.32115  1.0000
  C   C157      1.0  0.54292  0.26293  0.32163  1.0000
  C   C158      1.0  0.54291  0.28289  0.31960  1.0000
  C   C159      1.0  0.51397  0.22231  0.32397  1.0000
  C   C160      1.0  0.49139  0.20460  0.32399  1.0000
  N   N36       1.0  0.47256  0.20609  0.32266  1.0000
  C   C161      1.0  0.45382  0.18573  0.32429  1.0000
  C   C162      1.0  0.46121  0.17020  0.32630  1.0000
  C   C163      1.0  0.48431  0.18180  0.32648  1.0000
  C   C164      1.0  0.43112  0.18066  0.32455  1.0000
  C   C165      1.0  0.41438  0.15742  0.32933  1.0000
  C   C166      1.0  0.38660  0.10970  0.33807  1.0000
  C   C167      1.0  0.39170  0.12110  0.25444  1.0000
  C   C168      1.0  0.40551  0.14459  0.25011  1.0000
  C   C169      1.0  0.53122  0.21668  0.32956  1.0000
  C   C170      1.0  0.56945  0.21122  0.33958  1.0000
  C   C171      1.0  0.55928  0.21023  0.25566  1.0000
  C   C172      1.0  0.54044  0.21304  0.25066  1.0000
  C   C173      1.0  0.53115  0.31744  0.31793  1.0000
  C   C174      1.0  0.54296  0.32842  0.23879  1.0000
  C   C175      1.0  0.56182  0.35006  0.24321  1.0000
  C   C176      1.0  0.56941  0.36127  0.32643  1.0000
  C   C177      1.0  0.41426  0.25968  0.31712  1.0000
  C   C178      1.0  0.40882  0.26712  0.23732  1.0000
  C   C179      1.0  0.38628  0.27953  0.32219  1.0000
  C   C180      1.0  0.39502  0.27682  0.24000  1.0000
  H   H73       1.0  0.39191  0.28252  0.18119  1.0000
  H   H74       1.0  0.41559  0.26631  0.17700  1.0000
  H   H75       1.0  0.38797  0.21375  0.32029  1.0000
  H   H76       1.0  0.38801  0.17695  0.32460  1.0000
  H   H77       1.0  0.45284  0.22781  0.31924  1.0000
  H   H78       1.0  0.49207  0.24744  0.31668  1.0000
  H   H79       1.0  0.45151  0.30122  0.31817  1.0000
  H   H80       1.0  0.49399  0.32233  0.31688  1.0000
  H   H81       1.0  0.53837  0.32042  0.17790  1.0000
  H   H82       1.0  0.57035  0.35739  0.18504  1.0000
  H   H83       1.0  0.55707  0.29828  0.32051  1.0000
  H   H84       1.0  0.55709  0.26173  0.32402  1.0000
  H   H85       1.0  0.45161  0.15314  0.32790  1.0000
  H   H86       1.0  0.49411  0.17457  0.32815  1.0000
  H   H87       1.0  0.53389  0.21305  0.18885  1.0000
  H   H88       1.0  0.56584  0.20808  0.19725  1.0000
  H   H89       1.0  0.40966  0.15221  0.18835  1.0000
  H   H90       1.0  0.38599  0.11236  0.19565  1.0000
  N   N37       1.0  0.58765  0.20944  0.35027  1.0000
  N   N38       1.0  0.58799  0.38135  0.32520  1.0000
  N   N39       1.0  0.37416  0.28989  0.31942  1.0000
  N   N40       1.0  0.37433  0.08747  0.34829  1.0000
  C   C181      1.0  0.86170  0.19229  0.31954  1.0000
  C   C182      1.0  0.88175  0.21237  0.32188  1.0000
  C   C183      1.0  0.87707  0.22986  0.32124  1.0000
  N   N41       1.0  0.85435  0.21965  0.31869  1.0000
  C   C184      1.0  0.84417  0.19693  0.31782  1.0000
  C   C185      1.0  0.82094  0.18049  0.31568  1.0000
  C   C186      1.0  0.80329  0.18554  0.31510  1.0000
  N   N42       1.0  0.80488  0.20589  0.31457  1.0000
  C   C187      1.0  0.78455  0.20438  0.31461  1.0000
  C   C188      1.0  0.76885  0.18156  0.31510  1.0000
  C   C189      1.0  0.78037  0.16998  0.31577  1.0000
  C   C190      1.0  0.77962  0.22205  0.31444  1.0000
  C   C191      1.0  0.79600  0.24521  0.31574  1.0000
  N   N43       1.0  0.81864  0.25528  0.31616  1.0000
  C   C192      1.0  0.82866  0.27790  0.31954  1.0000
  C   C193      1.0  0.81118  0.28263  0.32028  1.0000
  C   C194      1.0  0.79123  0.26266  0.31830  1.0000
  C   C195      1.0  0.85181  0.29430  0.32220  1.0000
  C   C196      1.0  0.86951  0.28943  0.32230  1.0000
  N   N44       1.0  0.86804  0.26912  0.32115  1.0000
  C   C197      1.0  0.88839  0.27074  0.32285  1.0000
  C   C198      1.0  0.90392  0.29366  0.32471  1.0000
  C   C199      1.0  0.89231  0.30515  0.32470  1.0000
  C   C200      1.0  0.89346  0.25311  0.32324  1.0000
  C   C201      1.0  0.91670  0.25962  0.32820  1.0000
  C   C202      1.0  0.96441  0.27955  0.33726  1.0000
  C   C203      1.0  0.95309  0.27322  0.25357  1.0000
  C   C204      1.0  0.92960  0.26353  0.24907  1.0000
  C   C205      1.0  0.85743  0.31718  0.32784  1.0000
  C   C206      1.0  0.86288  0.36087  0.33811  1.0000
  C   C207      1.0  0.86386  0.35168  0.25409  1.0000
  C   C208      1.0  0.86105  0.33004  0.24898  1.0000
  C   C209      1.0  0.75668  0.21634  0.31671  1.0000
  C   C210      1.0  0.74574  0.21719  0.23767  1.0000
  C   C211      1.0  0.72409  0.21441  0.24224  1.0000
  C   C212      1.0  0.71285  0.21078  0.32553  1.0000
  C   C213      1.0  0.81446  0.15722  0.31615  1.0000
  C   C214      1.0  0.80708  0.14431  0.23641  1.0000
  C   C215      1.0  0.79461  0.10940  0.32154  1.0000
  C   C216      1.0  0.79736  0.12082  0.23927  1.0000
  H   H91       1.0  0.79170  0.11198  0.18051  1.0000
  H   H92       1.0  0.80791  0.15187  0.17605  1.0000
  H   H93       1.0  0.86038  0.17687  0.31942  1.0000
  H   H94       1.0  0.89718  0.21372  0.32365  1.0000
  H   H95       1.0  0.84632  0.22767  0.31785  1.0000
  H   H96       1.0  0.82669  0.24727  0.31474  1.0000
  H   H97       1.0  0.77292  0.15293  0.31695  1.0000
  H   H98       1.0  0.75181  0.17430  0.31557  1.0000
  H   H99       1.0  0.75376  0.22062  0.17674  1.0000
  H   H100      1.0  0.71679  0.21564  0.18416  1.0000
  H   H101      1.0  0.77584  0.26142  0.31946  1.0000
  H   H102      1.0  0.81238  0.29799  0.32274  1.0000
  H   H103      1.0  0.92097  0.30112  0.32620  1.0000
  H   H104      1.0  0.89954  0.32219  0.32621  1.0000
  H   H105      1.0  0.86104  0.32347  0.18711  1.0000
  H   H106      1.0  0.86599  0.36038  0.19572  1.0000
  H   H107      1.0  0.92204  0.26004  0.18726  1.0000
  H   H108      1.0  0.96189  0.27621  0.19486  1.0000
  N   N45       1.0  0.86464  0.38084  0.34892  1.0000
  N   N46       1.0  0.69277  0.20928  0.32446  1.0000
  N   N47       1.0  0.78424  0.08692  0.31892  1.0000
  N   N48       1.0  0.98662  0.28950  0.34764  1.0000
  C   C217      1.0  0.22633  0.63418  0.32683  1.0000
  N   N49       1.0  0.23367  0.62416  0.26772  1.0000
  N   N50       1.0  0.23456  0.60608  0.28602  1.0000
  C   C218      1.0  0.22636  0.65316  0.29607  1.0000
  H   H109      1.0  0.22208  0.65353  0.23247  1.0000
  C   C219      1.0  0.43993  0.59480  0.32809  1.0000
  N   N51       1.0  0.44998  0.61216  0.26898  1.0000
  N   N52       1.0  0.46806  0.63113  0.28728  1.0000
  C   C220      1.0  0.42098  0.57584  0.29732  1.0000
  H   H110      1.0  0.42064  0.57121  0.23367  1.0000
  C   C221      1.0  0.47931  0.84777  0.32811  1.0000
  N   N53       1.0  0.46204  0.84051  0.26878  1.0000
  N   N54       1.0  0.44304  0.83960  0.28688  1.0000
  C   C222      1.0  0.49830  0.84778  0.29753  1.0000
  H   H111      1.0  0.50304  0.85216  0.23400  1.0000
  C   C223      1.0  0.87069  0.41698  0.32886  1.0000
  N   N55       1.0  0.86338  0.42700  0.26977  1.0000
  N   N56       1.0  0.86250  0.44509  0.28802  1.0000
  C   C224      1.0  0.87070  0.39802  0.29810  1.0000
  H   H112      1.0  0.87506  0.39769  0.23452  1.0000
  C   C225      1.0  0.65712  0.45639  0.32999  1.0000
  N   N57       1.0  0.64711  0.43906  0.27085  1.0000
  N   N58       1.0  0.62902  0.42007  0.28914  1.0000
  C   C226      1.0  0.67610  0.47535  0.29922  1.0000
  H   H113      1.0  0.67647  0.48003  0.23563  1.0000
  C   C227      1.0  0.61774  0.20340  0.32999  1.0000
  N   N59       1.0  0.63507  0.21068  0.27066  1.0000
  N   N60       1.0  0.65405  0.21159  0.28877  1.0000
  C   C228      1.0  0.59877  0.20338  0.29938  1.0000
  H   H114      1.0  0.59411  0.19907  0.23581  1.0000
  C   C229      1.0  0.02558  0.30529  0.32600  1.0000
  N   N61       1.0  0.04145  0.31936  0.26632  1.0000
  N   N62       1.0  0.06300  0.33050  0.28284  1.0000
  C   C230      1.0  0.00347  0.29449  0.29575  1.0000
  H   H115      1.0  0.00074  0.29089  0.23054  1.0000
  C   C231      1.0  0.76879  0.72290  0.32723  1.0000
  N   N63       1.0  0.75475  0.72470  0.26758  1.0000
  N   N64       1.0  0.74361  0.73512  0.28410  1.0000
  C   C232      1.0  0.77962  0.71161  0.29693  1.0000
  H   H116      1.0  0.78326  0.71249  0.23172  1.0000
  C   C233      1.0  0.35118  0.04854  0.32636  1.0000
  N   N65       1.0  0.34945  0.03273  0.26662  1.0000
  N   N66       1.0  0.33902  0.01116  0.28301  1.0000
  C   C234      1.0  0.36254  0.07068  0.29626  1.0000
  H   H117      1.0  0.36175  0.07348  0.23106  1.0000
  C   C235      1.0  0.07149  0.74586  0.32546  1.0000
  N   N67       1.0  0.05564  0.73177  0.26599  1.0000
  N   N68       1.0  0.03408  0.72064  0.28269  1.0000
  C   C236      1.0  0.09361  0.75667  0.29502  1.0000
  H   H118      1.0  0.09635  0.76024  0.22977  1.0000
  C   C237      1.0  0.32825  0.32826  0.32656  1.0000
  N   N69       1.0  0.34237  0.32649  0.26706  1.0000
  N   N70       1.0  0.35350  0.31608  0.28375  1.0000
  C   C238      1.0  0.31747  0.33958  0.29615  1.0000
  H   H119      1.0  0.31393  0.33875  0.23091  1.0000
  C   C239      1.0  0.74586  0.00264  0.32673  1.0000
  N   N71       1.0  0.74767  0.01850  0.26710  1.0000
  N   N72       1.0  0.75808  0.04005  0.28361  1.0000
  C   C240      1.0  0.73457  0.98053  0.29643  1.0000
  H   H120      1.0  0.73545  0.97779  0.23121  1.0000
  C   C241      1.0  0.28847  0.38612  0.41177  1.0000
  C   C242      1.0  0.29824  0.37244  0.41621  1.0000
  C   C243      1.0  0.34934  0.51825  0.41114  1.0000
  C   C244      1.0  0.37091  0.53715  0.41595  1.0000
  C   C245      1.0  0.23250  0.53433  0.40232  1.0000
  C   C246      1.0  0.23533  0.51552  0.39828  1.0000
  C   C247      1.0  0.16887  0.38240  0.39771  1.0000
  C   C248      1.0  0.14540  0.36858  0.40030  1.0000
  H   H121      1.0  0.13794  0.36299  0.46164  1.0000
  H   H122      1.0  0.17760  0.38661  0.45699  1.0000
  H   H123      1.0  0.23516  0.50762  0.45689  1.0000
  H   H124      1.0  0.23010  0.53933  0.46405  1.0000
  H   H125      1.0  0.34013  0.51225  0.46901  1.0000
  H   H126      1.0  0.37701  0.54425  0.47756  1.0000
  H   H127      1.0  0.30274  0.36932  0.47789  1.0000
  H   H128      1.0  0.28647  0.39288  0.47004  1.0000
  C   C249      1.0  0.68792  0.90503  0.41242  1.0000
  C   C250      1.0  0.70159  0.92849  0.41672  1.0000
  C   C251      1.0  0.55582  0.83380  0.41173  1.0000
  C   C252      1.0  0.53691  0.83645  0.41643  1.0000
  C   C253      1.0  0.53975  0.70080  0.40356  1.0000
  C   C254      1.0  0.55857  0.72244  0.39953  1.0000
  C   C255      1.0  0.69165  0.78911  0.39889  1.0000
  C   C256      1.0  0.70547  0.77946  0.40149  1.0000
  H   H129      1.0  0.71101  0.77758  0.46283  1.0000
  H   H130      1.0  0.68739  0.79362  0.45818  1.0000
  H   H131      1.0  0.56644  0.73018  0.45815  1.0000
  H   H132      1.0  0.53472  0.69340  0.46528  1.0000
  H   H133      1.0  0.56177  0.83060  0.46965  1.0000
  H   H134      1.0  0.52976  0.83546  0.47801  1.0000
  H   H135      1.0  0.70467  0.93613  0.47836  1.0000
  H   H136      1.0  0.68110  0.89629  0.47070  1.0000
  C   C257      1.0  0.16907  0.78557  0.41064  1.0000
  C   C258      1.0  0.14561  0.77579  0.41507  1.0000
  C   C259      1.0  0.24026  0.72470  0.40998  1.0000
  C   C260      1.0  0.23757  0.70312  0.41479  1.0000
  C   C261      1.0  0.37320  0.84155  0.40242  1.0000
  C   C262      1.0  0.35156  0.83871  0.39813  1.0000
  C   C263      1.0  0.28491  0.90517  0.39722  1.0000
  C   C264      1.0  0.29458  0.92864  0.39993  1.0000
  H   H137      1.0  0.29636  0.93603  0.46130  1.0000
  H   H138      1.0  0.28034  0.89638  0.45644  1.0000
  H   H139      1.0  0.34375  0.83883  0.45666  1.0000
  H   H140      1.0  0.38051  0.84387  0.46424  1.0000
  H   H141      1.0  0.24339  0.73384  0.46790  1.0000
  H   H142      1.0  0.23851  0.69696  0.47641  1.0000
  H   H143      1.0  0.13795  0.77125  0.47675  1.0000
  H   H144      1.0  0.17778  0.78752  0.46890  1.0000
  C   C265      1.0  0.80849  0.66502  0.41283  1.0000
  C   C266      1.0  0.79871  0.67870  0.41717  1.0000
  C   C267      1.0  0.74764  0.53292  0.41292  1.0000
  C   C268      1.0  0.72606  0.51402  0.41778  1.0000
  C   C269      1.0  0.86450  0.51683  0.40411  1.0000
  C   C270      1.0  0.86168  0.53564  0.40003  1.0000
  C   C271      1.0  0.92817  0.66875  0.39842  1.0000
  C   C272      1.0  0.95164  0.68257  0.40079  1.0000
  H   H145      1.0  0.95907  0.68816  0.46207  1.0000
  H   H146      1.0  0.91941  0.66456  0.45776  1.0000
  H   H147      1.0  0.86178  0.54352  0.45864  1.0000
  H   H148      1.0  0.86682  0.51179  0.46587  1.0000
  H   H149      1.0  0.75679  0.53892  0.47079  1.0000
  H   H150      1.0  0.71991  0.50690  0.47942  1.0000
  H   H151      1.0  0.79414  0.68180  0.47882  1.0000
  H   H152      1.0  0.81042  0.65824  0.47113  1.0000
  C   C273      1.0  0.40899  0.14607  0.41296  1.0000
  C   C274      1.0  0.39531  0.12261  0.41707  1.0000
  C   C275      1.0  0.54119  0.21739  0.41351  1.0000
  C   C276      1.0  0.56009  0.21472  0.41822  1.0000
  C   C277      1.0  0.55725  0.35032  0.40532  1.0000
  C   C278      1.0  0.53845  0.32867  0.40121  1.0000
  C   C279      1.0  0.40529  0.26202  0.39937  1.0000
  C   C280      1.0  0.39146  0.27167  0.40177  1.0000
  H   H153      1.0  0.38582  0.27350  0.46304  1.0000
  H   H154      1.0  0.40945  0.25746  0.45870  1.0000
  H   H155      1.0  0.53052  0.32090  0.45980  1.0000
  H   H156      1.0  0.56223  0.35768  0.46707  1.0000
  H   H157      1.0  0.53519  0.22057  0.47142  1.0000
  H   H158      1.0  0.56719  0.21570  0.47981  1.0000
  H   H159      1.0  0.39214  0.11491  0.47864  1.0000
  H   H160      1.0  0.41570  0.15475  0.47134  1.0000
  C   C281      1.0  0.92796  0.26559  0.41191  1.0000
  C   C282      1.0  0.95142  0.27538  0.41616  1.0000
  C   C283      1.0  0.85674  0.32644  0.41186  1.0000
  C   C284      1.0  0.85939  0.34801  0.41671  1.0000
  C   C285      1.0  0.72377  0.20954  0.40431  1.0000
  C   C286      1.0  0.74541  0.21236  0.40003  1.0000
  C   C287      1.0  0.81206  0.14595  0.39849  1.0000
  C   C288      1.0  0.80241  0.12247  0.40104  1.0000
  H   H161      1.0  0.80054  0.11503  0.46237  1.0000
  H   H162      1.0  0.81657  0.15469  0.45777  1.0000
  H   H163      1.0  0.75316  0.21221  0.45856  1.0000
  H   H164      1.0  0.71638  0.20714  0.46610  1.0000
  H   H165      1.0  0.85354  0.31726  0.46975  1.0000
  H   H166      1.0  0.85840  0.35413  0.47835  1.0000
  H   H167      1.0  0.95905  0.27991  0.47778  1.0000
  H   H168      1.0  0.91922  0.26364  0.47021  1.0000
  C   C289      1.0  0.22822  0.59546  0.36684  1.0000
  C   C290      1.0  0.22040  0.60478  0.43232  1.0000
  C   C291      1.0  0.21892  0.62411  0.41322  1.0000
  N   N73       1.0  0.21000  0.63154  0.47702  1.0000
  H   H169      1.0  0.20463  0.62377  0.53430  1.0000
  H   H170      1.0  0.20687  0.64351  0.46502  1.0000
  H   H171      1.0  0.21518  0.59710  0.49375  1.0000
  C   C292      1.0  0.22936  0.57633  0.38454  1.0000
  H   H172      1.0  0.22766  0.57113  0.44797  1.0000
  C   C293      1.0  0.47863  0.63541  0.36810  1.0000
  C   C294      1.0  0.46927  0.61827  0.43356  1.0000
  C   C295      1.0  0.44996  0.59746  0.41446  1.0000
  N   N74       1.0  0.44248  0.58110  0.47824  1.0000
  H   H173      1.0  0.45022  0.58351  0.53551  1.0000
  H   H174      1.0  0.43052  0.56601  0.46626  1.0000
  H   H175      1.0  0.47691  0.62073  0.49498  1.0000
  C   C296      1.0  0.49775  0.65568  0.38579  1.0000
  H   H176      1.0  0.50290  0.65919  0.44922  1.0000
  C   C297      1.0  0.43864  0.84583  0.36769  1.0000
  C   C298      1.0  0.45568  0.85356  0.43338  1.0000
  C   C299      1.0  0.47652  0.85507  0.41451  1.0000
  N   N75       1.0  0.49278  0.86390  0.47853  1.0000
  H   H177      1.0  0.49028  0.86919  0.53581  1.0000
  H   H178      1.0  0.50789  0.86704  0.46672  1.0000
  H   H179      1.0  0.45313  0.85871  0.49482  1.0000
  C   C300      1.0  0.41834  0.84467  0.38516  1.0000
  H   H180      1.0  0.41474  0.84628  0.44857  1.0000
  C   C301      1.0  0.86881  0.45571  0.36877  1.0000
  C   C302      1.0  0.87659  0.44638  0.43422  1.0000
  C   C303      1.0  0.87808  0.42706  0.41517  1.0000
  N   N76       1.0  0.88698  0.41962  0.47891  1.0000
  H   H181      1.0  0.89219  0.42730  0.53639  1.0000
  H   H182      1.0  0.88995  0.40753  0.46730  1.0000
  H   H183      1.0  0.88182  0.45407  0.49557  1.0000
  C   C304      1.0  0.86768  0.47485  0.38641  1.0000
  H   H184      1.0  0.86938  0.48007  0.44980  1.0000
  C   C305      1.0  0.61839  0.41575  0.36998  1.0000
  C   C306      1.0  0.62770  0.43285  0.43549  1.0000
  C   C307      1.0  0.64703  0.45367  0.41641  1.0000
  N   N77       1.0  0.65446  0.46999  0.48023  1.0000
  H   H185      1.0  0.64668  0.46755  0.53752  1.0000
  H   H186      1.0  0.66643  0.48510  0.46825  1.0000
  H   H187      1.0  0.62001  0.43036  0.49693  1.0000
  C   C308      1.0  0.59925  0.39547  0.38766  1.0000
  H   H188      1.0  0.59404  0.39193  0.45108  1.0000
  C   C309      1.0  0.65838  0.20532  0.36958  1.0000
  C   C310      1.0  0.64128  0.19757  0.43527  1.0000
  C   C311      1.0  0.62046  0.19606  0.41639  1.0000
  N   N78       1.0  0.60414  0.18720  0.48039  1.0000
  H   H189      1.0  0.60658  0.18188  0.53767  1.0000
  H   H190      1.0  0.58904  0.18406  0.46858  1.0000
  H   H191      1.0  0.64377  0.19239  0.49671  1.0000
  C   C312      1.0  0.67866  0.20648  0.38706  1.0000
  H   H192      1.0  0.68221  0.20486  0.45048  1.0000
  C   C313      1.0  0.07190  0.32918  0.36263  1.0000
  C   C314      1.0  0.05661  0.31496  0.42869  1.0000
  C   C315      1.0  0.03329  0.30245  0.41142  1.0000
  N   N79       1.0  0.01977  0.28805  0.47624  1.0000
  H   H193      1.0  0.02588  0.28628  0.53270  1.0000
  H   H194      1.0  0.00404  0.27769  0.46581  1.0000
  H   H195      1.0  0.06258  0.31321  0.48952  1.0000
  C   C316      1.0  0.09483  0.34119  0.37960  1.0000
  H   H196      1.0  0.09978  0.34183  0.44286  1.0000
  C   C317      1.0  0.74493  0.74538  0.36383  1.0000
  C   C318      1.0  0.75912  0.74433  0.42985  1.0000
  C   C319      1.0  0.77162  0.73350  0.41258  1.0000
  N   N80       1.0  0.78601  0.73441  0.47732  1.0000
  H   H197      1.0  0.78767  0.74220  0.53399  1.0000
  H   H198      1.0  0.79624  0.72887  0.46727  1.0000
  H   H199      1.0  0.76087  0.75210  0.49059  1.0000
  C   C320      1.0  0.73294  0.75634  0.38076  1.0000
  H   H200      1.0  0.73235  0.76076  0.44395  1.0000
  C   C321      1.0  0.32871  0.00218  0.36271  1.0000
  C   C322      1.0  0.32971  0.01740  0.42882  1.0000
  C   C323      1.0  0.34054  0.04074  0.41171  1.0000
  N   N81       1.0  0.33958  0.05419  0.47655  1.0000
  H   H201      1.0  0.33163  0.04802  0.53294  1.0000
  H   H202      1.0  0.34496  0.06993  0.46620  1.0000
  H   H203      1.0  0.32191  0.01137  0.48958  1.0000
  C   C324      1.0  0.31776  0.97923  0.37952  1.0000
  H   H204      1.0  0.31335  0.97421  0.44272  1.0000
  C   C325      1.0  0.02515  0.72199  0.36248  1.0000
  C   C326      1.0  0.04042  0.73625  0.42832  1.0000
  C   C327      1.0  0.06374  0.74875  0.41085  1.0000
  N   N82       1.0  0.07724  0.76319  0.47542  1.0000
  H   H205      1.0  0.07110  0.76499  0.53186  1.0000
  H   H206      1.0  0.09297  0.77354  0.46484  1.0000
  H   H207      1.0  0.03442  0.73803  0.48911  1.0000
  C   C328      1.0  0.00221  0.71000  0.37963  1.0000
  H   H208      1.0  0.99723  0.70940  0.44289  1.0000
  C   C329      1.0  0.35210  0.30581  0.36356  1.0000
  C   C330      1.0  0.33782  0.30683  0.42944  1.0000
  C   C331      1.0  0.32533  0.31765  0.41198  1.0000
  N   N83       1.0  0.31087  0.31673  0.47661  1.0000
  H   H209      1.0  0.30904  0.30880  0.53307  1.0000
  H   H210      1.0  0.30052  0.32210  0.46604  1.0000
  H   H211      1.0  0.33602  0.29907  0.49026  1.0000
  C   C332      1.0  0.36410  0.29487  0.38070  1.0000
  H   H212      1.0  0.36468  0.29052  0.44398  1.0000
  C   C333      1.0  0.76833  0.04897  0.36334  1.0000
  C   C334      1.0  0.76727  0.03369  0.42933  1.0000
  C   C335      1.0  0.75644  0.01036  0.41207  1.0000
  N   N84       1.0  0.75735  0.99686  0.47679  1.0000
  H   H213      1.0  0.76513  0.00296  0.53345  1.0000
  H   H214      1.0  0.75181  0.98109  0.46672  1.0000
  H   H215      1.0  0.77504  0.03968  0.49006  1.0000
  C   C336      1.0  0.77929  0.07191  0.38028  1.0000
  H   H216      1.0  0.78369  0.07688  0.44346  1.0000
