data_image0
_chemical_formula_structural       C4N2O4C4N2O4C4N2O4C4N2O4C2H2C2H2C2H2C2H2C2H2C2H2C2H2C2H2C4N2O4C4N2O4C4N2O4C4N2O4C4N2O4C4N2O4C4N2O4C4N2O4C2H2C2H2C2H2C2H2C2H2C2H2C2H2C2H2C2H2C2H2C6H3C6H3C6H3C6H3C6H3C6H3C6H3C6H3C6H3C6H3C6H3C6H3C6H3C6H3C6H3C6H3C6H3C6H3C6H3C6H3C2H2C2H2C2H2C2H2C4N2O4C4N2O4C4N2O4C4N2O4C4N2O4C4N2O4C4N2O4C4N2O4C2H2C2H2C2H2C2H2C2H2C2H2C2H2C2H2C4N2O4C4N2O4C4N2O4C4N2O4C4N2O4C4N2O4C4N2O4C4N2O4C4N2O4C4N2O4
_chemical_formula_sum              "C300 N60 O120 H120"
_cell_length_a       44.1775
_cell_length_b       44.1775
_cell_length_c       14.8218
_cell_angle_alpha    90
_cell_angle_beta     90
_cell_angle_gamma    90

_space_group_name_H-M_alt    "P 1"
_space_group_IT_number       1

loop_
  _space_group_symop_operation_xyz
  'x, y, z'

loop_
  _atom_site_type_symbol
  _atom_site_label
  _atom_site_symmetry_multiplicity
  _atom_site_fract_x
  _atom_site_fract_y
  _atom_site_fract_z
  _atom_site_occupancy
  C   C1        1.0  0.37654  0.05681  0.33657  1.0000
  C   C2        1.0  0.31444  0.04078  0.33524  1.0000
  C   C3        1.0  0.33022  0.04447  0.25214  1.0000
  C   C4        1.0  0.36139  0.05237  0.25278  1.0000
  N   N1        1.0  0.31622  0.04097  0.16657  1.0000
  N   N2        1.0  0.37585  0.05589  0.16788  1.0000
  O   O1        1.0  0.30615  0.01469  0.15474  1.0000
  O   O2        1.0  0.39713  0.03742  0.15674  1.0000
  O   O3        1.0  0.29552  0.05993  0.15327  1.0000
  O   O4        1.0  0.38534  0.08235  0.15532  1.0000
  C   C5        1.0  0.63544  0.95504  0.33645  1.0000
  C   C6        1.0  0.69753  0.97109  0.33520  1.0000
  C   C7        1.0  0.68176  0.96742  0.25208  1.0000
  C   C8        1.0  0.65059  0.95951  0.25269  1.0000
  N   N3        1.0  0.69576  0.97095  0.16653  1.0000
  N   N4        1.0  0.63614  0.95601  0.16776  1.0000
  O   O5        1.0  0.70582  0.99724  0.15476  1.0000
  O   O6        1.0  0.61485  0.97448  0.15666  1.0000
  O   O7        1.0  0.71647  0.95200  0.15318  1.0000
  O   O8        1.0  0.62666  0.92955  0.15514  1.0000
  C   C9        1.0  0.95490  0.37660  0.33816  1.0000
  C   C10       1.0  0.97111  0.31454  0.33618  1.0000
  C   C11       1.0  0.96738  0.33041  0.25324  1.0000
  C   C12       1.0  0.95940  0.36156  0.25423  1.0000
  N   N5        1.0  0.97093  0.31652  0.16754  1.0000
  N   N6        1.0  0.95586  0.37610  0.16946  1.0000
  O   O9        1.0  0.99723  0.30652  0.15564  1.0000
  O   O10       1.0  0.97431  0.39742  0.15852  1.0000
  O   O11       1.0  0.95202  0.29578  0.15398  1.0000
  O   O12       1.0  0.92938  0.38557  0.15698  1.0000
  C   C13       1.0  0.05686  0.63540  0.33658  1.0000
  C   C14       1.0  0.04081  0.69748  0.33525  1.0000
  C   C15       1.0  0.04449  0.68171  0.25214  1.0000
  C   C16       1.0  0.05241  0.65054  0.25280  1.0000
  N   N7        1.0  0.04097  0.69570  0.16657  1.0000
  N   N8        1.0  0.05592  0.63608  0.16790  1.0000
  O   O13       1.0  0.01469  0.70576  0.15477  1.0000
  O   O14       1.0  0.03747  0.61477  0.15681  1.0000
  O   O15       1.0  0.05992  0.71641  0.15325  1.0000
  O   O16       1.0  0.08240  0.62661  0.15531  1.0000
  C   C17       1.0  0.15077  0.55065  0.27383  1.0000
  C   C18       1.0  0.18150  0.54274  0.27428  1.0000
  H   H1        1.0  0.19209  0.53870  0.21394  1.0000
  H   H2        1.0  0.13965  0.55194  0.21325  1.0000
  C   C19       1.0  0.86101  0.45990  0.27361  1.0000
  C   C20       1.0  0.83026  0.46775  0.27286  1.0000
  H   H3        1.0  0.81964  0.47066  0.21199  1.0000
  H   H4        1.0  0.87211  0.45753  0.21329  1.0000
  C   C21       1.0  0.55087  0.86106  0.27367  1.0000
  C   C22       1.0  0.54295  0.83034  0.27419  1.0000
  H   H5        1.0  0.53899  0.81970  0.21388  1.0000
  H   H6        1.0  0.55224  0.87214  0.21304  1.0000
  C   C23       1.0  0.46114  0.15074  0.27373  1.0000
  C   C24       1.0  0.46905  0.18147  0.27419  1.0000
  H   H7        1.0  0.47302  0.19209  0.21385  1.0000
  H   H8        1.0  0.45978  0.13964  0.21312  1.0000
  C   C25       1.0  0.19344  0.12718  0.27076  1.0000
  C   C26       1.0  0.20529  0.09761  0.27131  1.0000
  H   H9        1.0  0.20951  0.08727  0.21072  1.0000
  H   H10       1.0  0.18894  0.13725  0.20995  1.0000
  C   C27       1.0  0.81853  0.88464  0.27080  1.0000
  C   C28       1.0  0.80670  0.91423  0.27130  1.0000
  H   H11       1.0  0.80249  0.92456  0.21069  1.0000
  H   H12       1.0  0.82305  0.87457  0.21002  1.0000
  C   C29       1.0  0.88490  0.19335  0.27074  1.0000
  C   C30       1.0  0.91445  0.20525  0.27130  1.0000
  H   H13       1.0  0.92483  0.20942  0.21074  1.0000
  H   H14       1.0  0.87487  0.18875  0.20993  1.0000
  C   C31       1.0  0.12711  0.81859  0.27073  1.0000
  C   C32       1.0  0.09754  0.80672  0.27124  1.0000
  H   H15       1.0  0.08717  0.80257  0.21065  1.0000
  H   H16       1.0  0.13715  0.82318  0.20996  1.0000
  C   C33       1.0  0.32238  0.64360  0.33912  1.0000
  C   C34       1.0  0.29917  0.58293  0.34038  1.0000
  C   C35       1.0  0.30508  0.59801  0.25705  1.0000
  C   C36       1.0  0.31693  0.62802  0.25641  1.0000
  N   N9        1.0  0.29886  0.58464  0.17193  1.0000
  N   N10       1.0  0.32183  0.64156  0.17080  1.0000
  O   O17       1.0  0.27110  0.58041  0.15878  1.0000
  O   O18       1.0  0.34907  0.64856  0.15838  1.0000
  O   O19       1.0  0.31297  0.56025  0.16060  1.0000
  O   O20       1.0  0.30534  0.66431  0.15791  1.0000
  C   C37       1.0  0.68957  0.36811  0.33663  1.0000
  C   C38       1.0  0.71276  0.42880  0.33702  1.0000
  C   C39       1.0  0.70695  0.41353  0.25392  1.0000
  C   C40       1.0  0.69510  0.38352  0.25369  1.0000
  N   N11       1.0  0.71325  0.42673  0.16862  1.0000
  N   N12       1.0  0.69027  0.36982  0.16829  1.0000
  O   O21       1.0  0.74102  0.43096  0.15567  1.0000
  O   O22       1.0  0.66305  0.36277  0.15581  1.0000
  O   O23       1.0  0.69913  0.45109  0.15672  1.0000
  O   O24       1.0  0.70679  0.34704  0.15592  1.0000
  C   C41       1.0  0.64352  0.68932  0.33942  1.0000
  C   C42       1.0  0.58288  0.71268  0.34072  1.0000
  C   C43       1.0  0.59797  0.70675  0.25740  1.0000
  C   C44       1.0  0.62795  0.69483  0.25672  1.0000
  N   N13       1.0  0.58461  0.71300  0.17227  1.0000
  N   N14       1.0  0.64149  0.68995  0.17109  1.0000
  O   O25       1.0  0.58044  0.74078  0.15912  1.0000
  O   O26       1.0  0.64845  0.66272  0.15856  1.0000
  O   O27       1.0  0.56020  0.69894  0.16089  1.0000
  O   O28       1.0  0.66427  0.70642  0.15829  1.0000
  C   C45       1.0  0.36841  0.32239  0.33910  1.0000
  C   C46       1.0  0.42907  0.29912  0.34049  1.0000
  C   C47       1.0  0.41400  0.30502  0.25712  1.0000
  C   C48       1.0  0.38399  0.31689  0.25641  1.0000
  N   N15       1.0  0.42736  0.29877  0.17202  1.0000
  N   N16       1.0  0.37046  0.32177  0.17078  1.0000
  O   O29       1.0  0.43157  0.27100  0.15891  1.0000
  O   O30       1.0  0.36347  0.34900  0.15827  1.0000
  O   O31       1.0  0.45176  0.31286  0.16063  1.0000
  O   O32       1.0  0.34770  0.30528  0.15794  1.0000
  C   C49       1.0  0.21735  0.90622  0.33855  1.0000
  C   C50       1.0  0.22877  0.97022  0.33868  1.0000
  C   C51       1.0  0.22866  0.95369  0.25631  1.0000
  C   C52       1.0  0.22259  0.92190  0.25586  1.0000
  N   N17       1.0  0.23494  0.97013  0.17620  1.0000
  N   N18       1.0  0.22220  0.90719  0.17081  1.0000
  O   O33       1.0  0.21304  0.96984  0.12218  1.0000
  O   O34       1.0  0.19694  0.89554  0.15330  1.0000
  O   O35       1.0  0.25832  0.96067  0.13699  1.0000
  O   O36       1.0  0.24261  0.88757  0.16334  1.0000
  C   C53       1.0  0.79471  0.10562  0.33849  1.0000
  C   C54       1.0  0.78322  0.04164  0.33873  1.0000
  C   C55       1.0  0.78333  0.05815  0.25633  1.0000
  C   C56       1.0  0.78942  0.08994  0.25583  1.0000
  N   N19       1.0  0.77701  0.04171  0.17623  1.0000
  N   N20       1.0  0.78981  0.10463  0.17076  1.0000
  O   O37       1.0  0.79891  0.04198  0.12217  1.0000
  O   O38       1.0  0.81507  0.11628  0.15320  1.0000
  O   O39       1.0  0.75364  0.05119  0.13706  1.0000
  O   O40       1.0  0.76940  0.12426  0.16329  1.0000
  C   C57       1.0  0.10577  0.21744  0.33863  1.0000
  C   C58       1.0  0.04179  0.22893  0.33894  1.0000
  C   C59       1.0  0.05828  0.22878  0.25650  1.0000
  C   C60       1.0  0.09007  0.22269  0.25598  1.0000
  N   N21       1.0  0.04182  0.23505  0.17642  1.0000
  N   N22       1.0  0.10475  0.22227  0.17089  1.0000
  O   O41       1.0  0.04209  0.21313  0.12244  1.0000
  O   O42       1.0  0.11637  0.19699  0.15340  1.0000
  O   O43       1.0  0.05128  0.25841  0.13713  1.0000
  O   O44       1.0  0.12439  0.24265  0.16334  1.0000
  C   C61       1.0  0.90615  0.79443  0.33870  1.0000
  C   C62       1.0  0.97017  0.78309  0.33884  1.0000
  C   C63       1.0  0.95365  0.78325  0.25645  1.0000
  C   C64       1.0  0.92185  0.78927  0.25600  1.0000
  N   N23       1.0  0.97011  0.77704  0.17630  1.0000
  N   N24       1.0  0.90715  0.78970  0.17094  1.0000
  O   O45       1.0  0.96978  0.79899  0.12242  1.0000
  O   O46       1.0  0.89549  0.81497  0.15355  1.0000
  O   O47       1.0  0.96068  0.75369  0.13693  1.0000
  O   O48       1.0  0.88754  0.76929  0.16336  1.0000
  C   C65       1.0  0.28976  0.42204  0.26985  1.0000
  C   C66       1.0  0.28391  0.45338  0.26999  1.0000
  H   H17       1.0  0.27964  0.46388  0.20969  1.0000
  H   H18       1.0  0.29006  0.41082  0.20935  1.0000
  C   C67       1.0  0.71802  0.58909  0.26878  1.0000
  C   C68       1.0  0.72368  0.55771  0.26819  1.0000
  H   H19       1.0  0.72502  0.54677  0.20738  1.0000
  H   H20       1.0  0.71484  0.59992  0.20839  1.0000
  C   C69       1.0  0.42205  0.72210  0.27000  1.0000
  C   C70       1.0  0.45339  0.72792  0.27020  1.0000
  H   H21       1.0  0.46394  0.73204  0.20988  1.0000
  H   H22       1.0  0.41087  0.72166  0.20946  1.0000
  C   C71       1.0  0.58986  0.28965  0.26915  1.0000
  C   C72       1.0  0.55852  0.28385  0.26950  1.0000
  H   H23       1.0  0.54794  0.27969  0.20925  1.0000
  H   H24       1.0  0.60102  0.29003  0.20856  1.0000
  C   C73       1.0  0.24463  0.28991  0.27076  1.0000
  C   C74       1.0  0.22198  0.26744  0.27034  1.0000
  H   H25       1.0  0.21268  0.26114  0.20987  1.0000
  H   H26       1.0  0.25107  0.29929  0.21053  1.0000
  C   C75       1.0  0.76733  0.72183  0.27116  1.0000
  C   C76       1.0  0.79000  0.74430  0.27067  1.0000
  H   H27       1.0  0.79932  0.75055  0.21019  1.0000
  H   H28       1.0  0.76093  0.71240  0.21097  1.0000
  C   C77       1.0  0.72208  0.24429  0.27014  1.0000
  C   C78       1.0  0.74457  0.22165  0.26991  1.0000
  H   H29       1.0  0.75084  0.21227  0.20954  1.0000
  H   H30       1.0  0.71265  0.25062  0.20987  1.0000
  C   C79       1.0  0.28991  0.76743  0.27090  1.0000
  C   C80       1.0  0.26743  0.79008  0.27047  1.0000
  H   H31       1.0  0.26119  0.79943  0.21002  1.0000
  H   H32       1.0  0.29934  0.76104  0.21069  1.0000
  C   C81       1.0  0.51712  0.99464  0.27195  1.0000
  C   C82       1.0  0.49479  0.01715  0.27197  1.0000
  H   H33       1.0  0.48688  0.02507  0.21140  1.0000
  H   H34       1.0  0.52499  0.98667  0.21136  1.0000
  C   C83       1.0  0.01704  0.51716  0.27301  1.0000
  C   C84       1.0  0.99450  0.49485  0.27338  1.0000
  H   H35       1.0  0.98642  0.48698  0.21293  1.0000
  H   H36       1.0  0.02487  0.52505  0.21230  1.0000
  C   C85       1.0  0.28285  0.03554  0.33875  1.0000
  C   C86       1.0  0.26296  0.06042  0.34322  1.0000
  C   C87       1.0  0.23130  0.05632  0.34818  1.0000
  C   C88       1.0  0.21966  0.02632  0.34740  1.0000
  C   C89       1.0  0.23931  0.00086  0.34284  1.0000
  C   C90       1.0  0.27091  0.00594  0.33908  1.0000
  H   H37       1.0  0.19675  0.02302  0.34978  1.0000
  H   H38       1.0  0.28546  0.98790  0.33563  1.0000
  H   H39       1.0  0.27176  0.08192  0.34327  1.0000
  C   C91       1.0  0.72912  0.97633  0.33872  1.0000
  C   C92       1.0  0.74900  0.95144  0.34318  1.0000
  C   C93       1.0  0.78066  0.95554  0.34818  1.0000
  C   C94       1.0  0.79231  0.98553  0.34742  1.0000
  C   C95       1.0  0.77267  0.01099  0.34283  1.0000
  C   C96       1.0  0.74107  0.00592  0.33908  1.0000
  H   H40       1.0  0.81523  0.98882  0.34978  1.0000
  H   H41       1.0  0.72652  0.02397  0.33564  1.0000
  H   H42       1.0  0.74019  0.92994  0.34320  1.0000
  C   C97       1.0  0.97640  0.28295  0.33935  1.0000
  C   C98       1.0  0.95155  0.26302  0.34361  1.0000
  C   C99       1.0  0.95569  0.23137  0.34837  1.0000
  C   C100      1.0  0.98569  0.21976  0.34749  1.0000
  C   C101      1.0  0.01113  0.23944  0.34306  1.0000
  C   C102      1.0  0.00602  0.27104  0.33961  1.0000
  H   H43       1.0  0.98902  0.19684  0.34967  1.0000
  H   H44       1.0  0.02405  0.28561  0.33632  1.0000
  H   H45       1.0  0.93004  0.27180  0.34372  1.0000
  C   C103      1.0  0.03554  0.72907  0.33873  1.0000
  C   C104      1.0  0.06040  0.74898  0.34315  1.0000
  C   C105      1.0  0.05628  0.78063  0.34816  1.0000
  C   C106      1.0  0.02627  0.79225  0.34742  1.0000
  C   C107      1.0  0.00083  0.77258  0.34287  1.0000
  C   C108      1.0  0.00593  0.74099  0.33913  1.0000
  H   H46       1.0  0.02295  0.81516  0.34980  1.0000
  H   H47       1.0  0.98789  0.72642  0.33574  1.0000
  H   H48       1.0  0.08191  0.74019  0.34316  1.0000
  C   C109      1.0  0.22922  0.53565  0.35195  1.0000
  C   C110      1.0  0.24921  0.56045  0.34833  1.0000
  C   C111      1.0  0.28087  0.55624  0.34468  1.0000
  C   C112      1.0  0.29237  0.52620  0.34524  1.0000
  C   C113      1.0  0.27262  0.50079  0.34858  1.0000
  C   C114      1.0  0.24102  0.50600  0.35085  1.0000
  H   H49       1.0  0.31528  0.52282  0.34331  1.0000
  H   H50       1.0  0.22639  0.48801  0.35377  1.0000
  H   H51       1.0  0.24049  0.58199  0.34823  1.0000
  C   C115      1.0  0.78258  0.47622  0.34939  1.0000
  C   C116      1.0  0.76266  0.45137  0.34522  1.0000
  C   C117      1.0  0.73100  0.45552  0.34094  1.0000
  C   C118      1.0  0.71941  0.48553  0.34126  1.0000
  C   C119      1.0  0.73912  0.51097  0.34502  1.0000
  C   C120      1.0  0.77070  0.50584  0.34874  1.0000
  H   H52       1.0  0.69650  0.48887  0.33929  1.0000
  H   H53       1.0  0.78529  0.52386  0.35231  1.0000
  H   H54       1.0  0.77143  0.42985  0.34544  1.0000
  C   C121      1.0  0.53568  0.78268  0.35210  1.0000
  C   C122      1.0  0.56046  0.76266  0.34856  1.0000
  C   C123      1.0  0.55621  0.73101  0.34495  1.0000
  C   C124      1.0  0.52616  0.71954  0.34555  1.0000
  C   C125      1.0  0.50077  0.73932  0.34885  1.0000
  C   C126      1.0  0.50601  0.77092  0.35103  1.0000
  H   H55       1.0  0.52275  0.69663  0.34367  1.0000
  H   H56       1.0  0.48804  0.78557  0.35389  1.0000
  H   H57       1.0  0.58200  0.77136  0.34845  1.0000
  C   C127      1.0  0.47629  0.22914  0.35198  1.0000
  C   C128      1.0  0.45151  0.24916  0.34846  1.0000
  C   C129      1.0  0.45574  0.28081  0.34471  1.0000
  C   C130      1.0  0.48580  0.29229  0.34517  1.0000
  C   C131      1.0  0.51119  0.27251  0.34847  1.0000
  C   C132      1.0  0.50595  0.24091  0.35080  1.0000
  H   H58       1.0  0.48921  0.31519  0.34317  1.0000
  H   H59       1.0  0.52393  0.22626  0.35357  1.0000
  H   H60       1.0  0.42996  0.24046  0.34843  1.0000
  C   C133      1.0  0.19078  0.22904  0.34703  1.0000
  C   C134      1.0  0.20035  0.19843  0.34977  1.0000
  C   C135      1.0  0.17931  0.17422  0.34785  1.0000
  C   C136      1.0  0.14805  0.18105  0.34459  1.0000
  C   C137      1.0  0.13761  0.21134  0.34223  1.0000
  C   C138      1.0  0.15927  0.23507  0.34360  1.0000
  H   H61       1.0  0.13266  0.16370  0.34387  1.0000
  H   H62       1.0  0.15197  0.25708  0.34269  1.0000
  H   H63       1.0  0.22303  0.19367  0.35307  1.0000
  C   C139      1.0  0.82115  0.78279  0.34723  1.0000
  C   C140      1.0  0.81157  0.81339  0.34996  1.0000
  C   C141      1.0  0.83260  0.83761  0.34798  1.0000
  C   C142      1.0  0.86386  0.83078  0.34470  1.0000
  C   C143      1.0  0.87431  0.80050  0.34236  1.0000
  C   C144      1.0  0.85267  0.77676  0.34375  1.0000
  H   H64       1.0  0.87924  0.84815  0.34395  1.0000
  H   H65       1.0  0.85997  0.75476  0.34284  1.0000
  H   H66       1.0  0.78889  0.81815  0.35328  1.0000
  C   C145      1.0  0.78304  0.19061  0.34684  1.0000
  C   C146      1.0  0.81364  0.20021  0.34965  1.0000
  C   C147      1.0  0.83786  0.17919  0.34780  1.0000
  C   C148      1.0  0.83106  0.14793  0.34455  1.0000
  C   C149      1.0  0.80078  0.13746  0.34212  1.0000
  C   C150      1.0  0.77703  0.15909  0.34340  1.0000
  H   H67       1.0  0.84843  0.13255  0.34387  1.0000
  H   H68       1.0  0.75503  0.15178  0.34242  1.0000
  H   H69       1.0  0.81838  0.22289  0.35292  1.0000
  C   C151      1.0  0.22897  0.82122  0.34712  1.0000
  C   C152      1.0  0.19836  0.81164  0.34986  1.0000
  C   C153      1.0  0.17415  0.83267  0.34787  1.0000
  C   C154      1.0  0.18098  0.86393  0.34457  1.0000
  C   C155      1.0  0.21126  0.87438  0.34221  1.0000
  C   C156      1.0  0.23500  0.85273  0.34362  1.0000
  H   H70       1.0  0.16362  0.87932  0.34381  1.0000
  H   H71       1.0  0.25700  0.86003  0.34269  1.0000
  H   H72       1.0  0.19360  0.78897  0.35318  1.0000
  C   C157      1.0  0.32095  0.72916  0.34789  1.0000
  C   C158      1.0  0.31140  0.69855  0.34449  1.0000
  C   C159      1.0  0.33245  0.67436  0.34230  1.0000
  C   C160      1.0  0.36371  0.68123  0.34406  1.0000
  C   C161      1.0  0.37415  0.71151  0.34737  1.0000
  C   C162      1.0  0.35249  0.73523  0.34839  1.0000
  H   H73       1.0  0.37912  0.66389  0.34328  1.0000
  H   H74       1.0  0.35978  0.75721  0.35154  1.0000
  H   H75       1.0  0.28870  0.69377  0.34378  1.0000
  C   C163      1.0  0.69099  0.28257  0.34679  1.0000
  C   C164      1.0  0.70055  0.31318  0.34282  1.0000
  C   C165      1.0  0.67950  0.33736  0.34031  1.0000
  C   C166      1.0  0.64824  0.33051  0.34236  1.0000
  C   C167      1.0  0.63779  0.30025  0.34625  1.0000
  C   C168      1.0  0.65945  0.27652  0.34757  1.0000
  H   H76       1.0  0.63284  0.34786  0.34135  1.0000
  H   H77       1.0  0.65215  0.25455  0.35110  1.0000
  H   H78       1.0  0.72325  0.31795  0.34193  1.0000
  C   C169      1.0  0.72908  0.69080  0.34822  1.0000
  C   C170      1.0  0.69845  0.70032  0.34499  1.0000
  C   C171      1.0  0.67428  0.67925  0.34259  1.0000
  C   C172      1.0  0.68117  0.64799  0.34400  1.0000
  C   C173      1.0  0.71146  0.63756  0.34704  1.0000
  C   C174      1.0  0.73515  0.65927  0.34826  1.0000
  H   H79       1.0  0.66384  0.63257  0.34320  1.0000
  H   H80       1.0  0.75715  0.65199  0.35090  1.0000
  H   H81       1.0  0.69365  0.72302  0.34447  1.0000
  C   C175      1.0  0.28285  0.32100  0.34779  1.0000
  C   C176      1.0  0.31346  0.31144  0.34441  1.0000
  C   C177      1.0  0.33765  0.33248  0.34223  1.0000
  C   C178      1.0  0.33080  0.36374  0.34397  1.0000
  C   C179      1.0  0.30053  0.37420  0.34727  1.0000
  C   C180      1.0  0.27680  0.35254  0.34830  1.0000
  H   H82       1.0  0.34815  0.37915  0.34316  1.0000
  H   H83       1.0  0.25482  0.35984  0.35140  1.0000
  H   H84       1.0  0.31823  0.28874  0.34372  1.0000
  C   C181      1.0  0.44637  0.10466  0.35060  1.0000
  C   C182      1.0  0.41562  0.09615  0.34484  1.0000
  C   C183      1.0  0.40736  0.06530  0.34131  1.0000
  C   C184      1.0  0.43008  0.04290  0.34447  1.0000
  C   C185      1.0  0.46087  0.05118  0.35011  1.0000
  C   C186      1.0  0.46893  0.08207  0.35202  1.0000
  H   H85       1.0  0.42419  0.02045  0.34298  1.0000
  H   H86       1.0  0.49129  0.08812  0.35637  1.0000
  H   H87       1.0  0.39916  0.11250  0.34346  1.0000
  C   C187      1.0  0.56562  0.90717  0.35046  1.0000
  C   C188      1.0  0.59636  0.91568  0.34468  1.0000
  C   C189      1.0  0.60462  0.94654  0.34116  1.0000
  C   C190      1.0  0.58189  0.96894  0.34434  1.0000
  C   C191      1.0  0.55111  0.96065  0.35001  1.0000
  C   C192      1.0  0.54305  0.92976  0.35192  1.0000
  H   H88       1.0  0.58779  0.99138  0.34287  1.0000
  H   H89       1.0  0.52070  0.92371  0.35631  1.0000
  H   H90       1.0  0.61283  0.89933  0.34331  1.0000
  C   C193      1.0  0.90710  0.44650  0.35248  1.0000
  C   C194      1.0  0.91557  0.41573  0.34677  1.0000
  C   C195      1.0  0.94642  0.40742  0.34325  1.0000
  C   C196      1.0  0.96885  0.43012  0.34644  1.0000
  C   C197      1.0  0.96062  0.46091  0.35206  1.0000
  C   C198      1.0  0.92974  0.46902  0.35391  1.0000
  H   H91       1.0  0.99128  0.42419  0.34483  1.0000
  H   H92       1.0  0.92372  0.49139  0.35791  1.0000
  H   H93       1.0  0.89919  0.39929  0.34522  1.0000
  C   C199      1.0  0.10473  0.56557  0.35069  1.0000
  C   C200      1.0  0.09622  0.59632  0.34476  1.0000
  C   C201      1.0  0.06536  0.60458  0.34134  1.0000
  C   C202      1.0  0.04296  0.58186  0.34476  1.0000
  C   C203      1.0  0.05124  0.55107  0.35057  1.0000
  C   C204      1.0  0.08213  0.54302  0.35241  1.0000
  H   H94       1.0  0.02051  0.58776  0.34340  1.0000
  H   H95       1.0  0.08818  0.52066  0.35687  1.0000
  H   H96       1.0  0.11257  0.61278  0.34323  1.0000
  C   C205      1.0  0.36062  0.05295  0.41821  1.0000
  C   C206      1.0  0.32988  0.04512  0.41753  1.0000
  H   H97       1.0  0.31873  0.04310  0.47789  1.0000
  H   H98       1.0  0.37117  0.05623  0.47902  1.0000
  C   C207      1.0  0.65135  0.95889  0.41811  1.0000
  C   C208      1.0  0.68209  0.96674  0.41747  1.0000
  H   H99       1.0  0.69324  0.96874  0.47783  1.0000
  H   H100      1.0  0.64079  0.95559  0.47891  1.0000
  C   C209      1.0  0.95879  0.36058  0.41963  1.0000
  C   C210      1.0  0.96672  0.32987  0.41862  1.0000
  H   H101      1.0  0.96878  0.31865  0.47886  1.0000
  H   H102      1.0  0.95551  0.37106  0.48055  1.0000
  C   C211      1.0  0.05299  0.65131  0.41822  1.0000
  C   C212      1.0  0.04514  0.68205  0.41754  1.0000
  H   H103      1.0  0.04310  0.69320  0.47789  1.0000
  H   H104      1.0  0.05626  0.64076  0.47904  1.0000
  C   C213      1.0  0.13563  0.55734  0.35519  1.0000
  C   C214      1.0  0.19768  0.54108  0.35615  1.0000
  C   C215      1.0  0.18267  0.54756  0.43901  1.0000
  C   C216      1.0  0.15157  0.55563  0.43856  1.0000
  N   N25       1.0  0.19721  0.54617  0.52432  1.0000
  N   N26       1.0  0.13798  0.56175  0.52339  1.0000
  O   O49       1.0  0.20708  0.52017  0.54162  1.0000
  O   O50       1.0  0.11713  0.54349  0.54172  1.0000
  O   O51       1.0  0.21807  0.56525  0.53265  1.0000
  O   O52       1.0  0.12837  0.58842  0.52984  1.0000
  C   C217      1.0  0.87620  0.45480  0.35589  1.0000
  C   C218      1.0  0.81411  0.47089  0.35439  1.0000
  C   C219      1.0  0.82913  0.46598  0.43816  1.0000
  C   C220      1.0  0.86026  0.45796  0.43891  1.0000
  N   N27       1.0  0.81449  0.46866  0.52305  1.0000
  N   N28       1.0  0.87383  0.45318  0.52450  1.0000
  O   O53       1.0  0.80433  0.49482  0.53658  1.0000
  O   O54       1.0  0.89448  0.47191  0.54050  1.0000
  O   O55       1.0  0.79372  0.44957  0.53355  1.0000
  O   O56       1.0  0.88374  0.42673  0.53425  1.0000
  C   C221      1.0  0.55738  0.87627  0.35503  1.0000
  C   C222      1.0  0.54114  0.81422  0.35615  1.0000
  C   C223      1.0  0.54746  0.82929  0.43902  1.0000
  C   C224      1.0  0.55552  0.86040  0.43848  1.0000
  N   N29       1.0  0.54594  0.81482  0.52439  1.0000
  N   N30       1.0  0.56147  0.87406  0.52332  1.0000
  O   O57       1.0  0.51990  0.80501  0.54145  1.0000
  O   O58       1.0  0.54314  0.89489  0.54120  1.0000
  O   O59       1.0  0.56498  0.79392  0.53307  1.0000
  O   O60       1.0  0.58810  0.88372  0.53013  1.0000
  C   C225      1.0  0.45460  0.13556  0.35512  1.0000
  C   C226      1.0  0.47084  0.19761  0.35611  1.0000
  C   C227      1.0  0.46451  0.18256  0.43900  1.0000
  C   C228      1.0  0.45645  0.15145  0.43854  1.0000
  N   N31       1.0  0.46602  0.19706  0.52434  1.0000
  N   N32       1.0  0.45048  0.13781  0.52339  1.0000
  O   O61       1.0  0.49205  0.20689  0.54137  1.0000
  O   O62       1.0  0.46879  0.11698  0.54135  1.0000
  O   O63       1.0  0.44697  0.21794  0.53297  1.0000
  O   O64       1.0  0.42384  0.12817  0.53018  1.0000
  C   C229      1.0  0.18941  0.14347  0.35181  1.0000
  C   C230      1.0  0.21304  0.08301  0.35297  1.0000
  C   C231      1.0  0.20871  0.09908  0.43555  1.0000
  C   C232      1.0  0.19669  0.12912  0.43480  1.0000
  N   N33       1.0  0.21629  0.08659  0.52079  1.0000
  N   N34       1.0  0.19230  0.14621  0.51480  1.0000
  O   O65       1.0  0.24423  0.08252  0.53065  1.0000
  O   O66       1.0  0.21670  0.15106  0.55586  1.0000
  O   O67       1.0  0.20243  0.06231  0.53625  1.0000
  O   O68       1.0  0.17368  0.13388  0.56729  1.0000
  C   C233      1.0  0.82250  0.86835  0.35187  1.0000
  C   C234      1.0  0.79890  0.92883  0.35289  1.0000
  C   C235      1.0  0.80322  0.91278  0.43552  1.0000
  C   C236      1.0  0.81521  0.88272  0.43484  1.0000
  N   N35       1.0  0.79565  0.92529  0.52074  1.0000
  N   N36       1.0  0.81961  0.86565  0.51488  1.0000
  O   O69       1.0  0.76772  0.92937  0.53063  1.0000
  O   O70       1.0  0.79520  0.86083  0.55597  1.0000
  O   O71       1.0  0.80953  0.94956  0.53617  1.0000
  O   O72       1.0  0.83823  0.87799  0.56732  1.0000
  C   C237      1.0  0.86860  0.18932  0.35177  1.0000
  C   C238      1.0  0.92900  0.21309  0.35293  1.0000
  C   C239      1.0  0.91295  0.20872  0.43554  1.0000
  C   C240      1.0  0.88293  0.19666  0.43478  1.0000
  N   N37       1.0  0.92541  0.21631  0.52081  1.0000
  N   N38       1.0  0.86584  0.19223  0.51476  1.0000
  O   O73       1.0  0.92942  0.24425  0.53077  1.0000
  O   O74       1.0  0.86093  0.21663  0.55581  1.0000
  O   O75       1.0  0.94972  0.20249  0.53627  1.0000
  O   O76       1.0  0.87819  0.17364  0.56727  1.0000
  C   C241      1.0  0.14340  0.82257  0.35179  1.0000
  C   C242      1.0  0.08298  0.79890  0.35285  1.0000
  C   C243      1.0  0.09902  0.80322  0.43549  1.0000
  C   C244      1.0  0.12906  0.81524  0.43477  1.0000
  N   N39       1.0  0.08653  0.79562  0.52072  1.0000
  N   N40       1.0  0.14614  0.81963  0.51479  1.0000
  O   O77       1.0  0.08248  0.76767  0.53055  1.0000
  O   O78       1.0  0.15101  0.79522  0.55579  1.0000
  O   O79       1.0  0.06224  0.80946  0.53620  1.0000
  O   O80       1.0  0.13381  0.83822  0.56731  1.0000
  C   C245      1.0  0.31665  0.62830  0.42101  1.0000
  C   C246      1.0  0.30507  0.59863  0.42160  1.0000
  H   H105      1.0  0.29964  0.58902  0.48241  1.0000
  H   H106      1.0  0.31983  0.63912  0.48141  1.0000
  C   C247      1.0  0.69520  0.38358  0.41830  1.0000
  C   C248      1.0  0.70674  0.41326  0.41843  1.0000
  H   H107      1.0  0.71211  0.42300  0.47912  1.0000
  H   H108      1.0  0.69195  0.37288  0.47887  1.0000
  C   C249      1.0  0.62824  0.69511  0.42130  1.0000
  C   C250      1.0  0.59859  0.70674  0.42188  1.0000
  H   H109      1.0  0.58896  0.71213  0.48271  1.0000
  H   H110      1.0  0.63904  0.69185  0.48171  1.0000
  C   C251      1.0  0.38370  0.31670  0.42101  1.0000
  C   C252      1.0  0.41337  0.30509  0.42164  1.0000
  H   H111      1.0  0.42300  0.29973  0.48248  1.0000
  H   H112      1.0  0.37290  0.31996  0.48140  1.0000
  C   C253      1.0  0.21735  0.92306  0.41963  1.0000
  C   C254      1.0  0.22314  0.95441  0.41978  1.0000
  H   H113      1.0  0.22409  0.96552  0.48038  1.0000
  H   H114      1.0  0.21372  0.91241  0.48007  1.0000
  C   C255      1.0  0.79473  0.08879  0.41957  1.0000
  C   C256      1.0  0.78892  0.05744  0.41977  1.0000
  H   H115      1.0  0.78797  0.04634  0.48039  1.0000
  H   H116      1.0  0.79839  0.09944  0.48000  1.0000
  C   C257      1.0  0.08896  0.21748  0.41975  1.0000
  C   C258      1.0  0.05761  0.22329  0.41999  1.0000
  H   H117      1.0  0.04651  0.22423  0.48061  1.0000
  H   H118      1.0  0.09962  0.21381  0.48017  1.0000
  C   C259      1.0  0.92298  0.79438  0.41979  1.0000
  C   C260      1.0  0.95434  0.78863  0.41994  1.0000
  H   H119      1.0  0.96545  0.78767  0.48054  1.0000
  H   H120      1.0  0.91232  0.79799  0.48025  1.0000
  C   C261      1.0  0.29449  0.40604  0.35113  1.0000
  C   C262      1.0  0.28304  0.47009  0.35125  1.0000
  C   C263      1.0  0.28780  0.45425  0.43398  1.0000
  C   C264      1.0  0.29375  0.42252  0.43389  1.0000
  N   N41       1.0  0.28651  0.46871  0.51939  1.0000
  N   N42       1.0  0.29792  0.40849  0.51914  1.0000
  O   O81       1.0  0.26060  0.47868  0.53739  1.0000
  O   O82       1.0  0.32378  0.39706  0.52785  1.0000
  O   O83       1.0  0.30564  0.48958  0.52704  1.0000
  O   O84       1.0  0.27810  0.38888  0.53554  1.0000
  C   C265      1.0  0.71752  0.60571  0.35025  1.0000
  C   C266      1.0  0.72864  0.54163  0.34920  1.0000
  C   C267      1.0  0.72801  0.55792  0.43197  1.0000
  C   C268      1.0  0.72208  0.58974  0.43284  1.0000
  N   N43       1.0  0.73375  0.54123  0.51200  1.0000
  N   N44       1.0  0.72123  0.60417  0.51826  1.0000
  O   O85       1.0  0.71155  0.54148  0.56493  1.0000
  O   O86       1.0  0.69602  0.61612  0.53461  1.0000
  O   O87       1.0  0.75696  0.55045  0.55261  1.0000
  O   O88       1.0  0.74188  0.62343  0.52758  1.0000
  C   C269      1.0  0.40599  0.71755  0.35128  1.0000
  C   C270      1.0  0.47005  0.72894  0.35154  1.0000
  C   C271      1.0  0.45416  0.72435  0.43427  1.0000
  C   C272      1.0  0.42243  0.71843  0.43411  1.0000
  N   N45       1.0  0.46858  0.72577  0.51973  1.0000
  N   N46       1.0  0.40834  0.71443  0.51937  1.0000
  O   O89       1.0  0.47852  0.75170  0.53745  1.0000
  O   O90       1.0  0.39685  0.68861  0.52841  1.0000
  O   O91       1.0  0.48945  0.70666  0.52773  1.0000
  O   O92       1.0  0.38877  0.73434  0.53537  1.0000
  C   C273      1.0  0.60596  0.29424  0.35034  1.0000
  C   C274      1.0  0.54191  0.28287  0.35092  1.0000
  C   C275      1.0  0.55782  0.28755  0.43358  1.0000
  C   C276      1.0  0.58956  0.29344  0.43325  1.0000
  N   N47       1.0  0.54344  0.28620  0.51910  1.0000
  N   N48       1.0  0.60368  0.29754  0.51841  1.0000
  O   O93       1.0  0.53348  0.26029  0.53705  1.0000
  O   O94       1.0  0.61519  0.32336  0.52712  1.0000
  O   O95       1.0  0.52258  0.30534  0.52702  1.0000
  O   O96       1.0  0.62325  0.27765  0.53458  1.0000
  C   C277      1.0  0.25886  0.29907  0.35171  1.0000
  C   C278      1.0  0.21267  0.25308  0.35086  1.0000
  C   C279      1.0  0.22650  0.26215  0.43316  1.0000
  C   C280      1.0  0.24940  0.28507  0.43388  1.0000
  N   N49       1.0  0.21646  0.24753  0.51297  1.0000
  N   N50       1.0  0.26173  0.29309  0.51893  1.0000
  O   O97       1.0  0.20463  0.26573  0.56775  1.0000
  O   O98       1.0  0.25732  0.32043  0.53807  1.0000
  O   O99       1.0  0.23734  0.23316  0.55136  1.0000
  O   O100      1.0  0.28942  0.28710  0.52528  1.0000
  C   C281      1.0  0.75305  0.71276  0.35210  1.0000
  C   C282      1.0  0.79926  0.75874  0.35111  1.0000
  C   C283      1.0  0.78539  0.74973  0.43342  1.0000
  C   C284      1.0  0.76246  0.72683  0.43420  1.0000
  N   N51       1.0  0.79545  0.76438  0.51318  1.0000
  N   N52       1.0  0.75011  0.71892  0.51928  1.0000
  O   O101      1.0  0.80726  0.74618  0.56802  1.0000
  O   O102      1.0  0.75455  0.69161  0.53874  1.0000
  O   O103      1.0  0.77458  0.77878  0.55155  1.0000
  O   O104      1.0  0.72240  0.72488  0.52548  1.0000
  C   C285      1.0  0.71294  0.25860  0.35096  1.0000
  C   C286      1.0  0.75898  0.21248  0.35049  1.0000
  C   C287      1.0  0.74992  0.22641  0.43267  1.0000
  C   C288      1.0  0.72697  0.24928  0.43319  1.0000
  N   N53       1.0  0.76457  0.21647  0.51255  1.0000
  N   N54       1.0  0.71898  0.26171  0.51812  1.0000
  O   O105      1.0  0.74640  0.20470  0.56750  1.0000
  O   O106      1.0  0.69165  0.25728  0.53741  1.0000
  O   O107      1.0  0.77893  0.23742  0.55070  1.0000
  O   O108      1.0  0.72492  0.28943  0.52410  1.0000
  C   C289      1.0  0.29900  0.75314  0.35182  1.0000
  C   C290      1.0  0.25301  0.79933  0.35095  1.0000
  C   C291      1.0  0.26204  0.78545  0.43323  1.0000
  C   C292      1.0  0.28496  0.76255  0.43396  1.0000
  N   N55       1.0  0.24737  0.79546  0.51302  1.0000
  N   N56       1.0  0.29294  0.75020  0.51901  1.0000
  O   O109      1.0  0.26554  0.80726  0.56793  1.0000
  O   O110      1.0  0.32027  0.75460  0.53828  1.0000
  O   O111      1.0  0.23299  0.77455  0.55126  1.0000
  O   O112      1.0  0.28695  0.72250  0.52523  1.0000
  C   C293      1.0  0.52852  0.98320  0.35399  1.0000
  C   C294      1.0  0.48346  0.02863  0.35404  1.0000
  C   C295      1.0  0.49466  0.01728  0.43753  1.0000
  C   C296      1.0  0.51739  0.99460  0.43750  1.0000
  N   N57       1.0  0.48421  0.02740  0.52289  1.0000
  N   N58       1.0  0.52790  0.98452  0.52284  1.0000
  O   O113      1.0  0.49029  0.05473  0.53670  1.0000
  O   O114      1.0  0.55572  0.98905  0.53410  1.0000
  O   O115      1.0  0.45640  0.02289  0.53434  1.0000
  O   O116      1.0  0.52185  0.95719  0.53681  1.0000
  C   C297      1.0  0.02868  0.52849  0.35488  1.0000
  C   C298      1.0  0.98320  0.48347  0.35563  1.0000
  C   C299      1.0  0.99477  0.49461  0.43893  1.0000
  C   C300      1.0  0.01746  0.51732  0.43856  1.0000
  N   N59       1.0  0.98486  0.48409  0.52444  1.0000
  N   N60       1.0  0.02770  0.52781  0.52374  1.0000
  O   O117      1.0  0.95756  0.49012  0.53885  1.0000
  O   O118      1.0  0.02323  0.55563  0.53512  1.0000
  O   O119      1.0  0.98943  0.45628  0.53562  1.0000
  O   O120      1.0  0.05505  0.52171  0.53728  1.0000
