data_image0
_chemical_formula_structural       C3NC3NC5NC4NC35H25CNC4H2CH3C2NC4H2CH3C18H17C4HCNHCH3C3HCNHCH3
_chemical_formula_sum              "C92 N8 H62"
_cell_length_a       34.2522
_cell_length_b       34.252
_cell_length_c       14.8474
_cell_angle_alpha    90
_cell_angle_beta     90
_cell_angle_gamma    90.0626

_space_group_name_H-M_alt    "P 1"
_space_group_IT_number       1

loop_
  _space_group_symop_operation_xyz
  'x, y, z'

loop_
  _atom_site_type_symbol
  _atom_site_label
  _atom_site_symmetry_multiplicity
  _atom_site_fract_x
  _atom_site_fract_y
  _atom_site_fract_z
  _atom_site_occupancy
  C   C1        1.0  0.10901  0.07836  0.33852  1.0000
  C   C2        1.0  0.08054  0.10685  0.33876  1.0000
  C   C3        1.0  0.04405  0.08858  0.34182  1.0000
  N   N1        1.0  0.05185  0.04974  0.34273  1.0000
  C   C4        1.0  0.09067  0.04191  0.34061  1.0000
  C   C5        1.0  0.11045  0.00535  0.34045  1.0000
  C   C6        1.0  0.09164  0.96835  0.34044  1.0000
  N   N2        1.0  0.05289  0.96076  0.34027  1.0000
  C   C7        1.0  0.04532  0.92200  0.33988  1.0000
  C   C8        1.0  0.08166  0.90351  0.33982  1.0000
  C   C9        1.0  0.11017  0.93204  0.34002  1.0000
  C   C10       1.0  0.00832  0.90317  0.34029  1.0000
  C   C11       1.0  0.97175  0.92293  0.34136  1.0000
  N   N3        1.0  0.96389  0.96176  0.34025  1.0000
  C   C12       1.0  0.92505  0.96956  0.34213  1.0000
  C   C13       1.0  0.90680  0.93305  0.34479  1.0000
  C   C14       1.0  0.93531  0.90458  0.34390  1.0000
  C   C15       1.0  0.90522  0.00613  0.34229  1.0000
  N   N4        1.0  0.96288  0.05073  0.34260  1.0000
  C   C16       1.0  0.97050  0.08950  0.34278  1.0000
  C   C17       1.0  0.93417  0.10798  0.34316  1.0000
  C   C18       1.0  0.90566  0.07947  0.34218  1.0000
  C   C19       1.0  0.00750  0.10839  0.34262  1.0000
  C   C20       1.0  0.00790  0.15015  0.34219  1.0000
  C   C21       1.0  0.00015  0.17110  0.26219  1.0000
  C   C22       1.0  0.00039  0.21221  0.26190  1.0000
  C   C23       1.0  0.00898  0.23363  0.34106  1.0000
  C   C24       1.0  0.00935  0.27535  0.34040  1.0000
  C   C25       1.0  0.97821  0.33783  0.30262  1.0000
  C   C26       1.0  0.97791  0.29672  0.30339  1.0000
  C   C27       1.0  0.86345  0.00579  0.34213  1.0000
  C   C28       1.0  0.84258  0.99771  0.26216  1.0000
  C   C29       1.0  0.80146  0.99769  0.26166  1.0000
  C   C30       1.0  0.77994  0.00634  0.34060  1.0000
  C   C31       1.0  0.73822  0.00676  0.33957  1.0000
  C   C32       1.0  0.71675  0.97533  0.30258  1.0000
  C   C33       1.0  0.67564  0.97574  0.30141  1.0000
  C   C34       1.0  0.65413  0.00779  0.33586  1.0000
  C   C35       1.0  0.00805  0.86145  0.34079  1.0000
  C   C36       1.0  0.00887  0.77792  0.34212  1.0000
  C   C37       1.0  0.01147  0.79909  0.26033  1.0000
  C   C38       1.0  0.01092  0.84021  0.25953  1.0000
  C   C39       1.0  0.00941  0.73612  0.34299  1.0000
  C   C40       1.0  0.03693  0.71480  0.29166  1.0000
  C   C41       1.0  0.03768  0.67367  0.29347  1.0000
  C   C42       1.0  0.01083  0.65201  0.34625  1.0000
  C   C43       1.0  0.15215  0.00575  0.34044  1.0000
  C   C44       1.0  0.17324  0.00851  0.25895  1.0000
  C   C45       1.0  0.21436  0.00924  0.25940  1.0000
  C   C46       1.0  0.23566  0.00689  0.34104  1.0000
  C   C47       1.0  0.27745  0.00740  0.34156  1.0000
  C   C48       1.0  0.36155  0.00875  0.34437  1.0000
  C   C49       1.0  0.33992  0.03552  0.29142  1.0000
  C   C50       1.0  0.29879  0.03479  0.28981  1.0000
  H   H1        1.0  0.35393  0.05656  0.25468  1.0000
  H   H2        1.0  0.28449  0.05525  0.25197  1.0000
  H   H3        1.0  0.22868  0.01078  0.19900  1.0000
  H   H4        1.0  0.15877  0.01003  0.19872  1.0000
  H   H5        1.0  0.13833  0.08391  0.33619  1.0000
  H   H6        1.0  0.08615  0.13615  0.33652  1.0000
  H   H7        1.0  0.03202  0.02990  0.34564  1.0000
  H   H8        1.0  0.98370  0.98161  0.33724  1.0000
  H   H9        1.0  0.13952  0.92670  0.33990  1.0000
  H   H10       1.0  0.08703  0.87417  0.33980  1.0000
  H   H11       1.0  0.01274  0.85457  0.19919  1.0000
  H   H12       1.0  0.01315  0.78468  0.20008  1.0000
  H   H13       1.0  0.92979  0.87525  0.34556  1.0000
  H   H14       1.0  0.87751  0.92744  0.34743  1.0000
  H   H15       1.0  0.87633  0.08492  0.34165  1.0000
  H   H16       1.0  0.85722  0.99186  0.20359  1.0000
  H   H17       1.0  0.78733  0.99212  0.20228  1.0000
  H   H18       1.0  0.66156  0.95175  0.27631  1.0000
  H   H19       1.0  0.73092  0.95133  0.27773  1.0000
  H   H20       1.0  0.95396  0.28249  0.27833  1.0000
  H   H21       1.0  0.95421  0.35185  0.27748  1.0000
  H   H22       1.0  0.99489  0.22642  0.20260  1.0000
  H   H23       1.0  0.99417  0.15653  0.20358  1.0000
  H   H24       1.0  0.05743  0.72911  0.25388  1.0000
  H   H25       1.0  0.05879  0.65969  0.25697  1.0000
  C   C51       1.0  0.01867  0.58780  0.26978  1.0000
  N   N5        1.0  0.01761  0.54830  0.27291  1.0000
  C   C52       1.0  0.00935  0.48495  0.33743  1.0000
  C   C53       1.0  0.99315  0.46441  0.26253  1.0000
  C   C54       1.0  0.99419  0.42299  0.26357  1.0000
  C   C55       1.0  0.01045  0.40144  0.33580  1.0000
  H   H26       1.0  0.98314  0.40812  0.20950  1.0000
  H   H27       1.0  0.02350  0.60082  0.20889  1.0000
  C   C56       1.0  0.97373  0.48440  0.18557  1.0000
  H   H28       1.0  0.95171  0.50469  0.21055  1.0000
  H   H29       1.0  0.95909  0.46405  0.14002  1.0000
  H   H30       1.0  0.99532  0.50039  0.14611  1.0000
  C   C57       1.0  0.40349  0.00931  0.34607  1.0000
  C   C58       1.0  0.42576  0.01642  0.26774  1.0000
  N   N6        1.0  0.46526  0.01535  0.27085  1.0000
  C   C59       1.0  0.52860  0.00719  0.33548  1.0000
  C   C60       1.0  0.54911  0.99081  0.26079  1.0000
  C   C61       1.0  0.59053  0.99178  0.26192  1.0000
  C   C62       1.0  0.61212  0.00815  0.33403  1.0000
  H   H31       1.0  0.60539  0.98059  0.20802  1.0000
  H   H32       1.0  0.41274  0.02113  0.20681  1.0000
  C   C63       1.0  0.52907  0.97128  0.18399  1.0000
  H   H33       1.0  0.50871  0.94932  0.20916  1.0000
  H   H34       1.0  0.54938  0.95653  0.13860  1.0000
  H   H35       1.0  0.51316  0.99281  0.14431  1.0000
  C   C64       1.0  0.92411  0.04312  0.34244  1.0000
  C   C65       1.0  0.01711  0.21244  0.42077  1.0000
  C   C66       1.0  0.01629  0.17132  0.42157  1.0000
  C   C67       1.0  0.04112  0.29666  0.37636  1.0000
  C   C68       1.0  0.04160  0.33779  0.37437  1.0000
  C   C69       1.0  0.01017  0.35943  0.33745  1.0000
  C   C70       1.0  0.80103  0.01461  0.42040  1.0000
  C   C71       1.0  0.84215  0.01406  0.42139  1.0000
  C   C72       1.0  0.67587  0.03922  0.37272  1.0000
  C   C73       1.0  0.71699  0.03864  0.37510  1.0000
  C   C74       1.0  0.00559  0.84065  0.42271  1.0000
  C   C75       1.0  0.00581  0.79954  0.42320  1.0000
  C   C76       1.0  0.98311  0.67348  0.39687  1.0000
  C   C77       1.0  0.98251  0.71459  0.39562  1.0000
  C   C78       1.0  0.17308  0.00358  0.42223  1.0000
  C   C79       1.0  0.21418  0.00399  0.42236  1.0000
  C   C80       1.0  0.29895  0.98054  0.39426  1.0000
  C   C81       1.0  0.34005  0.98112  0.39533  1.0000
  H   H36       1.0  0.35417  0.96041  0.43279  1.0000
  H   H37       1.0  0.28482  0.95963  0.43125  1.0000
  H   H38       1.0  0.22834  0.00288  0.48301  1.0000
  H   H39       1.0  0.15850  0.00174  0.48229  1.0000
  H   H40       1.0  0.00378  0.85533  0.48264  1.0000
  H   H41       1.0  0.00456  0.78548  0.48396  1.0000
  H   H42       1.0  0.92876  0.13731  0.34353  1.0000
  H   H43       1.0  0.85650  0.01998  0.48033  1.0000
  H   H44       1.0  0.78656  0.02053  0.47914  1.0000
  H   H45       1.0  0.73138  0.06231  0.40103  1.0000
  H   H46       1.0  0.66196  0.06348  0.39685  1.0000
  H   H47       1.0  0.02194  0.15690  0.48053  1.0000
  H   H48       1.0  0.02293  0.22684  0.47967  1.0000
  H   H49       1.0  0.06578  0.35177  0.39884  1.0000
  H   H50       1.0  0.06477  0.28233  0.40243  1.0000
  H   H51       1.0  0.96152  0.72869  0.43232  1.0000
  H   H52       1.0  0.96236  0.65934  0.43425  1.0000
  C   C82       1.0  0.01138  0.61007  0.34801  1.0000
  C   C83       1.0  0.01006  0.52661  0.34766  1.0000
  C   C84       1.0  0.00330  0.54722  0.42979  1.0000
  C   C85       1.0  0.00410  0.58864  0.42784  1.0000
  H   H53       1.0  0.99967  0.60364  0.48657  1.0000
  C   C86       1.0  0.02651  0.42369  0.40684  1.0000
  N   N7        1.0  0.02525  0.46319  0.40466  1.0000
  H   H54       1.0  0.03819  0.41067  0.46255  1.0000
  C   C87       1.0  0.99388  0.52729  0.51625  1.0000
  H   H55       1.0  0.96970  0.50698  0.50646  1.0000
  H   H56       1.0  0.98534  0.54768  0.56931  1.0000
  H   H57       1.0  0.01935  0.51134  0.54039  1.0000
  C   C88       1.0  0.48694  0.00794  0.34568  1.0000
  C   C89       1.0  0.46632  0.00137  0.42789  1.0000
  C   C90       1.0  0.42490  0.00219  0.42597  1.0000
  H   H58       1.0  0.40990  0.99789  0.48475  1.0000
  C   C91       1.0  0.58989  0.02440  0.40483  1.0000
  N   N8        1.0  0.55039  0.02319  0.40257  1.0000
  H   H59       1.0  0.60292  0.03615  0.46046  1.0000
  C   C92       1.0  0.48622  0.99210  0.51446  1.0000
  H   H60       1.0  0.50646  0.96789  0.50492  1.0000
  H   H61       1.0  0.46581  0.98366  0.56761  1.0000
  H   H62       1.0  0.50224  0.01761  0.53835  1.0000
