data_image0
_chemical_formula_structural       C5NC4H2CH3NHCNC4H2CH3NHCNC4H2CH3NHCN2CNC2O3CN2CNC2O3C4HCNHCH3NHC4HCNHCH3NHC4HCNHCH3NH
_chemical_formula_sum              "C48 N18 H36 O6"
_cell_length_a       29.1514
_cell_length_b       29.1521
_cell_length_c       15.0331
_cell_angle_alpha    90
_cell_angle_beta     90
_cell_angle_gamma    120

_space_group_name_H-M_alt    "P 1"
_space_group_IT_number       1

loop_
  _space_group_symop_operation_xyz
  'x, y, z'

loop_
  _atom_site_type_symbol
  _atom_site_label
  _atom_site_symmetry_multiplicity
  _atom_site_fract_x
  _atom_site_fract_y
  _atom_site_fract_z
  _atom_site_occupancy
  C   C1        1.0  0.36901  0.65004  0.26596  1.0000
  C   C2        1.0  0.36265  0.77279  0.26993  1.0000
  C   C3        1.0  0.63594  0.35737  0.39522  1.0000
  C   C4        1.0  0.61440  0.22209  0.39465  1.0000
  C   C5        1.0  0.59894  0.48611  0.28727  1.0000
  N   N1        1.0  0.56605  0.50585  0.27569  1.0000
  C   C6        1.0  0.49740  0.52267  0.31472  1.0000
  C   C7        1.0  0.45676  0.49827  0.24976  1.0000
  C   C8        1.0  0.42349  0.52004  0.23599  1.0000
  C   C9        1.0  0.43073  0.56513  0.28315  1.0000
  H   H1        1.0  0.39331  0.50288  0.19070  1.0000
  H   H2        1.0  0.62298  0.48838  0.23597  1.0000
  C   C10       1.0  0.44713  0.45012  0.20009  1.0000
  H   H3        1.0  0.44011  0.41859  0.24680  1.0000
  H   H4        1.0  0.48157  0.45909  0.15930  1.0000
  H   H5        1.0  0.41282  0.43525  0.15608  1.0000
  N   N2        1.0  0.39561  0.58298  0.27198  1.0000
  H   H6        1.0  0.35879  0.55589  0.26190  1.0000
  C   C11       1.0  0.51161  0.11242  0.28676  1.0000
  N   N3        1.0  0.49191  0.05980  0.27514  1.0000
  C   C12       1.0  0.47474  0.97426  0.31447  1.0000
  C   C13       1.0  0.49953  0.95799  0.25031  1.0000
  C   C14       1.0  0.47771  0.90295  0.23651  1.0000
  C   C15       1.0  0.43220  0.86514  0.28283  1.0000
  H   H7        1.0  0.49515  0.88990  0.19181  1.0000
  H   H8        1.0  0.50964  0.13427  0.23532  1.0000
  C   C16       1.0  0.54811  0.99647  0.20158  1.0000
  H   H9        1.0  0.57931  0.02082  0.24890  1.0000
  H   H10       1.0  0.53958  0.02211  0.16036  1.0000
  H   H11       1.0  0.56321  0.97702  0.15811  1.0000
  N   N4        1.0  0.41434  0.81214  0.27176  1.0000
  H   H12       1.0  0.44146  0.80237  0.26244  1.0000
  C   C17       1.0  0.88477  0.39843  0.28519  1.0000
  N   N5        1.0  0.93738  0.43131  0.27341  1.0000
  C   C18       1.0  0.02297  0.49983  0.31231  1.0000
  C   C19       1.0  0.03925  0.54053  0.24748  1.0000
  C   C20       1.0  0.09430  0.57378  0.23378  1.0000
  C   C21       1.0  0.13212  0.56647  0.28090  1.0000
  H   H13       1.0  0.10737  0.60403  0.18861  1.0000
  H   H14       1.0  0.86290  0.37442  0.23393  1.0000
  C   C22       1.0  0.00078  0.55026  0.19788  1.0000
  H   H15       1.0  0.97629  0.55728  0.24464  1.0000
  H   H16       1.0  0.97528  0.51586  0.15703  1.0000
  H   H17       1.0  0.02024  0.58459  0.15395  1.0000
  N   N6        1.0  0.18511  0.60162  0.26997  1.0000
  H   H18       1.0  0.19485  0.63847  0.26012  1.0000
  C   C23       1.0  0.27882  0.62830  0.26502  1.0000
  N   N7        1.0  0.31643  0.61380  0.26600  1.0000
  N   N8        1.0  0.38351  0.70215  0.26646  1.0000
  C   C24       1.0  0.34727  0.71849  0.26548  1.0000
  N   N9        1.0  0.29515  0.68088  0.26554  1.0000
  C   C25       1.0  0.40792  0.63467  0.27086  1.0000
  C   C26       1.0  0.22451  0.58935  0.26906  1.0000
  O   O1        1.0  0.32350  0.78501  0.26977  1.0000
  O   O2        1.0  0.21234  0.53800  0.26959  1.0000
  O   O3        1.0  0.45928  0.67383  0.27165  1.0000
  C   C27       1.0  0.71922  0.36123  0.39467  1.0000
  N   N10       1.0  0.68971  0.38545  0.39500  1.0000
  N   N11       1.0  0.61172  0.30365  0.39539  1.0000
  C   C28       1.0  0.63980  0.27796  0.39509  1.0000
  N   N12       1.0  0.69353  0.30745  0.39486  1.0000
  C   C29       1.0  0.60543  0.38273  0.39481  1.0000
  C   C30       1.0  0.77508  0.39174  0.39381  1.0000
  O   O4        1.0  0.64548  0.20023  0.40682  1.0000
  O   O5        1.0  0.79689  0.44470  0.40563  1.0000
  O   O6        1.0  0.55248  0.35158  0.40670  1.0000
  C   C31       1.0  0.59662  0.45915  0.36644  1.0000
  C   C32       1.0  0.53133  0.50323  0.33856  1.0000
  C   C33       1.0  0.52884  0.47905  0.42192  1.0000
  C   C34       1.0  0.56205  0.45710  0.43417  1.0000
  H   H19       1.0  0.56073  0.43865  0.49281  1.0000
  C   C35       1.0  0.47169  0.58686  0.34708  1.0000
  N   N13       1.0  0.50271  0.56517  0.36058  1.0000
  H   H20       1.0  0.47724  0.61767  0.38668  1.0000
  C   C36       1.0  0.49129  0.47417  0.49322  1.0000
  H   H21       1.0  0.45081  0.45321  0.46780  1.0000
  H   H22       1.0  0.50053  0.51347  0.51565  1.0000
  H   H23       1.0  0.49312  0.45246  0.55103  1.0000
  N   N14       1.0  0.62637  0.43515  0.37547  1.0000
  H   H24       1.0  0.66291  0.45495  0.35461  1.0000
  C   C37       1.0  0.53807  0.13695  0.36634  1.0000
  C   C38       1.0  0.49413  0.02763  0.33829  1.0000
  C   C39       1.0  0.51784  0.04920  0.42196  1.0000
  C   C40       1.0  0.53972  0.10434  0.43431  1.0000
  H   H25       1.0  0.55785  0.12141  0.49319  1.0000
  C   C41       1.0  0.41006  0.88439  0.34593  1.0000
  N   N15       1.0  0.43182  0.93710  0.35953  1.0000
  H   H26       1.0  0.37894  0.85915  0.38501  1.0000
  C   C42       1.0  0.52228  0.01643  0.49355  1.0000
  H   H27       1.0  0.54339  0.99694  0.46867  1.0000
  H   H28       1.0  0.48285  0.98635  0.51536  1.0000
  H   H29       1.0  0.54364  0.03988  0.55166  1.0000
  N   N16       1.0  0.56190  0.19067  0.37576  1.0000
  H   H30       1.0  0.54223  0.20738  0.35415  1.0000
  C   C43       1.0  0.86026  0.40066  0.36460  1.0000
  C   C44       1.0  0.96958  0.46596  0.33625  1.0000
  C   C45       1.0  0.94805  0.46838  0.41980  1.0000
  C   C46       1.0  0.89290  0.43516  0.43229  1.0000
  H   H31       1.0  0.87588  0.43640  0.49110  1.0000
  C   C47       1.0  0.11284  0.52543  0.34467  1.0000
  N   N17       1.0  0.06012  0.49443  0.35812  1.0000
  H   H32       1.0  0.13806  0.51982  0.38428  1.0000
  C   C48       1.0  0.98082  0.50585  0.49111  1.0000
  H   H33       1.0  0.00035  0.54636  0.46578  1.0000
  H   H34       1.0  0.01087  0.49655  0.51331  1.0000
  H   H35       1.0  0.95737  0.50401  0.54906  1.0000
  N   N18       1.0  0.80653  0.37083  0.37402  1.0000
  H   H36       1.0  0.78973  0.33434  0.35287  1.0000
