data_image0
_chemical_formula_structural       C6SiC8H12C4N2O4H2O2C10H4C2H2C6N2O2C6SiC8H12C4N2O4H2O2C10H4C2H2C6N2O2C6SiC8H12C4N2O4H2O2C10H4C2H2C6N2O2C6SiC8H12C4N2O4H2O2C10H4C2H2C6N2O2C6SiC8H12C4N2O4H2O2C10H4C2H2C6N2O2C6SiC8H12C4N2O4H2O2C10H4C2H2C6N2O2C6SiC8H12C4N2O4H2O2C10H4C2H2C6N2O2C6SiC8H12C4N2O4H2O2C10H4C2H2C6N2O2C6SiC8H12C4N2O4H2O2C10H4C2H2C6N2O2
_chemical_formula_sum              "C324 Si9 H180 N36 O72"
_cell_length_a       36.4404
_cell_length_b       36.441
_cell_length_c       15.0992
_cell_angle_alpha    90
_cell_angle_beta     90
_cell_angle_gamma    89.9302

_space_group_name_H-M_alt    "P 1"
_space_group_IT_number       1

loop_
  _space_group_symop_operation_xyz
  'x, y, z'

loop_
  _atom_site_type_symbol
  _atom_site_label
  _atom_site_symmetry_multiplicity
  _atom_site_fract_x
  _atom_site_fract_y
  _atom_site_fract_z
  _atom_site_occupancy
  C   C1        1.0  0.99756  0.24078  0.29857  1.0000
  C   C2        1.0  0.03087  0.25705  0.27145  1.0000
  C   C3        1.0  0.03052  0.28439  0.20600  1.0000
  C   C4        1.0  0.99700  0.29621  0.16804  1.0000
  C   C5        1.0  0.29712  0.28458  0.20774  1.0000
  C   C6        1.0  0.29734  0.25702  0.27258  1.0000
  Si  Si1       1.0  0.99666  0.99693  0.09592  1.0000
  C   C7        1.0  0.99633  0.03122  0.16740  1.0000
  C   C8        1.0  0.29616  0.04306  0.20541  1.0000
  C   C9        1.0  0.29588  0.07058  0.27036  1.0000
  C   C10       1.0  0.99592  0.08650  0.29818  1.0000
  C   C11       1.0  0.02946  0.07021  0.27247  1.0000
  C   C12       1.0  0.02956  0.04283  0.20713  1.0000
  C   C13       1.0  0.03114  0.99692  0.02478  1.0000
  C   C14       1.0  0.29551  0.32975  0.02477  1.0000
  H   H1        1.0  0.29212  0.05449  0.00811  1.0000
  H   H2        1.0  0.29339  0.27154  0.01020  1.0000
  H   H3        1.0  0.03301  0.27216  0.00726  1.0000
  H   H4        1.0  0.03492  0.05508  0.01125  1.0000
  H   H5        1.0  0.05446  0.03359  0.18486  1.0000
  H   H6        1.0  0.05392  0.08255  0.28760  1.0000
  H   H7        1.0  0.27139  0.08301  0.28501  1.0000
  H   H8        1.0  0.27142  0.03390  0.18214  1.0000
  H   H9        1.0  0.27221  0.29376  0.18545  1.0000
  H   H10       1.0  0.05523  0.29353  0.18254  1.0000
  H   H11       1.0  0.05540  0.24452  0.28519  1.0000
  H   H12       1.0  0.27287  0.24477  0.28820  1.0000
  C   C15       1.0  0.33062  0.20214  0.29968  1.0000
  C   C16       1.0  0.99623  0.12517  0.29944  1.0000
  C   C17       1.0  0.99661  0.14427  0.21716  1.0000
  C   C18       1.0  0.33048  0.18312  0.21728  1.0000
  N   N1        1.0  0.99645  0.12342  0.13748  1.0000
  N   N2        1.0  0.33080  0.20405  0.13772  1.0000
  O   O1        1.0  0.02497  0.12633  0.09152  1.0000
  O   O2        1.0  0.35926  0.20046  0.09177  1.0000
  O   O3        1.0  0.96808  0.12702  0.09122  1.0000
  O   O4        1.0  0.30238  0.20114  0.09142  1.0000
  H   H13       1.0  0.19565  0.32535  0.02247  1.0000
  H   H14       1.0  0.13130  0.32603  0.02268  1.0000
  O   O5        1.0  0.10545  0.30554  0.37042  1.0000
  O   O6        1.0  0.22060  0.30401  0.37018  1.0000
  C   C19       1.0  0.28311  0.02953  0.65259  1.0000
  C   C20       1.0  0.25551  0.02909  0.58778  1.0000
  C   C21       1.0  0.24053  0.32875  0.55890  1.0000
  C   C22       1.0  0.25662  0.29557  0.58803  1.0000
  C   C23       1.0  0.28385  0.29616  0.65374  1.0000
  C   C24       1.0  0.04263  0.29692  0.65202  1.0000
  C   C25       1.0  0.07003  0.29672  0.58674  1.0000
  C   C26       1.0  0.08641  0.99668  0.55946  1.0000
  C   C27       1.0  0.07143  0.03019  0.58968  1.0000
  C   C28       1.0  0.04382  0.03026  0.65449  1.0000
  H   H15       1.0  0.24315  0.05340  0.57113  1.0000
  H   H16       1.0  0.24487  0.27087  0.57247  1.0000
  H   H17       1.0  0.08168  0.27209  0.56992  1.0000
  H   H18       1.0  0.08409  0.05452  0.57491  1.0000
  C   C29       1.0  0.33026  0.18287  0.38055  1.0000
  C   C30       1.0  0.99643  0.14437  0.38042  1.0000
  H   H19       1.0  0.99621  0.13054  0.43943  1.0000
  H   H20       1.0  0.33033  0.19664  0.43963  1.0000
  C   C31       1.0  0.12479  0.32903  0.54897  1.0000
  C   C32       1.0  0.14444  0.32696  0.62929  1.0000
  C   C33       1.0  0.18246  0.32652  0.62915  1.0000
  C   C34       1.0  0.20208  0.32811  0.54870  1.0000
  C   C35       1.0  0.18293  0.33024  0.46663  1.0000
  C   C36       1.0  0.14386  0.33069  0.46676  1.0000
  N   N3        1.0  0.20116  0.33194  0.38376  1.0000
  N   N4        1.0  0.12557  0.33293  0.38405  1.0000
  O   O7        1.0  0.22086  0.36007  0.37711  1.0000
  O   O8        1.0  0.10653  0.36157  0.37782  1.0000
  C   C37       1.0  0.99756  0.57412  0.29857  1.0000
  C   C38       1.0  0.03087  0.59038  0.27145  1.0000
  C   C39       1.0  0.03052  0.61772  0.20600  1.0000
  C   C40       1.0  0.99700  0.62954  0.16804  1.0000
  C   C41       1.0  0.29712  0.61792  0.20774  1.0000
  C   C42       1.0  0.29734  0.59035  0.27258  1.0000
  Si  Si2       1.0  0.99665  0.33026  0.09592  1.0000
  C   C43       1.0  0.99633  0.36456  0.16740  1.0000
  C   C44       1.0  0.29615  0.37639  0.20542  1.0000
  C   C45       1.0  0.29588  0.40391  0.27037  1.0000
  C   C46       1.0  0.99592  0.41984  0.29818  1.0000
  C   C47       1.0  0.02946  0.40354  0.27245  1.0000
  C   C48       1.0  0.02956  0.37616  0.20712  1.0000
  C   C49       1.0  0.03113  0.33025  0.02476  1.0000
  C   C50       1.0  0.29551  0.66309  0.02477  1.0000
  H   H21       1.0  0.29210  0.38782  0.00813  1.0000
  H   H22       1.0  0.29339  0.60487  0.01020  1.0000
  H   H23       1.0  0.03301  0.60549  0.00726  1.0000
  H   H24       1.0  0.03490  0.38841  0.01123  1.0000
  H   H25       1.0  0.05445  0.36693  0.18484  1.0000
  H   H26       1.0  0.05392  0.41588  0.28758  1.0000
  H   H27       1.0  0.27138  0.41634  0.28503  1.0000
  H   H28       1.0  0.27141  0.36723  0.18215  1.0000
  H   H29       1.0  0.27221  0.62710  0.18545  1.0000
  H   H30       1.0  0.05523  0.62687  0.18254  1.0000
  H   H31       1.0  0.05540  0.57785  0.28519  1.0000
  H   H32       1.0  0.27287  0.57811  0.28820  1.0000
  C   C51       1.0  0.33062  0.53548  0.29969  1.0000
  C   C52       1.0  0.99624  0.45851  0.29944  1.0000
  C   C53       1.0  0.99661  0.47761  0.21716  1.0000
  C   C54       1.0  0.33048  0.51646  0.21728  1.0000
  N   N5        1.0  0.99645  0.45675  0.13748  1.0000
  N   N6        1.0  0.33080  0.53738  0.13772  1.0000
  O   O9        1.0  0.02497  0.45967  0.09152  1.0000
  O   O10       1.0  0.35926  0.53379  0.09177  1.0000
  O   O11       1.0  0.96808  0.46036  0.09122  1.0000
  O   O12       1.0  0.30238  0.53448  0.09142  1.0000
  H   H33       1.0  0.19565  0.65868  0.02247  1.0000
  H   H34       1.0  0.13130  0.65936  0.02268  1.0000
  O   O13       1.0  0.10545  0.63887  0.37042  1.0000
  O   O14       1.0  0.22060  0.63734  0.37018  1.0000
  C   C55       1.0  0.28309  0.36287  0.65261  1.0000
  C   C56       1.0  0.25549  0.36242  0.58781  1.0000
  C   C57       1.0  0.24053  0.66208  0.55890  1.0000
  C   C58       1.0  0.25662  0.62890  0.58803  1.0000
  C   C59       1.0  0.28385  0.62949  0.65374  1.0000
  C   C60       1.0  0.04263  0.63025  0.65202  1.0000
  C   C61       1.0  0.07003  0.63005  0.58674  1.0000
  C   C62       1.0  0.08638  0.33001  0.55942  1.0000
  C   C63       1.0  0.07141  0.36353  0.58965  1.0000
  C   C64       1.0  0.04379  0.36360  0.65447  1.0000
  H   H35       1.0  0.24313  0.38673  0.57116  1.0000
  H   H36       1.0  0.24487  0.60420  0.57247  1.0000
  H   H37       1.0  0.08168  0.60542  0.56992  1.0000
  H   H38       1.0  0.08406  0.38785  0.57487  1.0000
  C   C65       1.0  0.33026  0.51620  0.38055  1.0000
  C   C66       1.0  0.99643  0.47770  0.38042  1.0000
  H   H39       1.0  0.99621  0.46388  0.43943  1.0000
  H   H40       1.0  0.33033  0.52997  0.43963  1.0000
  C   C67       1.0  0.12479  0.66236  0.54897  1.0000
  C   C68       1.0  0.14444  0.66029  0.62929  1.0000
  C   C69       1.0  0.18246  0.65985  0.62916  1.0000
  C   C70       1.0  0.20208  0.66144  0.54870  1.0000
  C   C71       1.0  0.18293  0.66357  0.46663  1.0000
  C   C72       1.0  0.14386  0.66402  0.46676  1.0000
  N   N7        1.0  0.20116  0.66528  0.38376  1.0000
  N   N8        1.0  0.12557  0.66626  0.38405  1.0000
  O   O15       1.0  0.22086  0.69340  0.37711  1.0000
  O   O16       1.0  0.10653  0.69491  0.37782  1.0000
  C   C73       1.0  0.99756  0.90745  0.29857  1.0000
  C   C74       1.0  0.03087  0.92371  0.27146  1.0000
  C   C75       1.0  0.03053  0.95105  0.20600  1.0000
  C   C76       1.0  0.99701  0.96288  0.16804  1.0000
  C   C77       1.0  0.29713  0.95125  0.20773  1.0000
  C   C78       1.0  0.29734  0.92369  0.27258  1.0000
  Si  Si3       1.0  0.99665  0.66360  0.09592  1.0000
  C   C79       1.0  0.99633  0.69789  0.16740  1.0000
  C   C80       1.0  0.29615  0.70972  0.20542  1.0000
  C   C81       1.0  0.29588  0.73725  0.27037  1.0000
  C   C82       1.0  0.99592  0.75317  0.29818  1.0000
  C   C83       1.0  0.02946  0.73688  0.27245  1.0000
  C   C84       1.0  0.02956  0.70949  0.20712  1.0000
  C   C85       1.0  0.03113  0.66358  0.02476  1.0000
  C   C86       1.0  0.29553  0.99642  0.02476  1.0000
  H   H41       1.0  0.29210  0.72115  0.00813  1.0000
  H   H42       1.0  0.29341  0.93821  0.01019  1.0000
  H   H43       1.0  0.03303  0.93882  0.00728  1.0000
  H   H44       1.0  0.03490  0.72174  0.01123  1.0000
  H   H45       1.0  0.05445  0.70026  0.18484  1.0000
  H   H46       1.0  0.05392  0.74921  0.28758  1.0000
  H   H47       1.0  0.27138  0.74968  0.28503  1.0000
  H   H48       1.0  0.27141  0.70057  0.18215  1.0000
  H   H49       1.0  0.27222  0.96043  0.18544  1.0000
  H   H50       1.0  0.05524  0.96020  0.18255  1.0000
  H   H51       1.0  0.05540  0.91118  0.28521  1.0000
  H   H52       1.0  0.27288  0.91144  0.28818  1.0000
  C   C87       1.0  0.33062  0.86881  0.29968  1.0000
  C   C88       1.0  0.99624  0.79184  0.29944  1.0000
  C   C89       1.0  0.99661  0.81094  0.21716  1.0000
  C   C90       1.0  0.33048  0.84979  0.21728  1.0000
  N   N9        1.0  0.99645  0.79008  0.13748  1.0000
  N   N10       1.0  0.33080  0.87072  0.13772  1.0000
  O   O17       1.0  0.02497  0.79300  0.09152  1.0000
  O   O18       1.0  0.35926  0.86713  0.09177  1.0000
  O   O19       1.0  0.96808  0.79369  0.09122  1.0000
  O   O20       1.0  0.30238  0.86781  0.09142  1.0000
  H   H53       1.0  0.19569  0.99202  0.02245  1.0000
  H   H54       1.0  0.13133  0.99269  0.02270  1.0000
  O   O21       1.0  0.10546  0.97220  0.37044  1.0000
  O   O22       1.0  0.22061  0.97067  0.37015  1.0000
  C   C91       1.0  0.28309  0.69620  0.65261  1.0000
  C   C92       1.0  0.25549  0.69575  0.58781  1.0000
  C   C93       1.0  0.24055  0.99541  0.55887  1.0000
  C   C94       1.0  0.25665  0.96224  0.58800  1.0000
  C   C95       1.0  0.28387  0.96283  0.65372  1.0000
  C   C96       1.0  0.04265  0.96359  0.65204  1.0000
  C   C97       1.0  0.07006  0.96339  0.58677  1.0000
  C   C98       1.0  0.08638  0.66335  0.55942  1.0000
  C   C99       1.0  0.07141  0.69686  0.58965  1.0000
  C   C100      1.0  0.04379  0.69693  0.65447  1.0000
  H   H55       1.0  0.24313  0.72006  0.57116  1.0000
  H   H56       1.0  0.24490  0.93754  0.57244  1.0000
  H   H57       1.0  0.08170  0.93875  0.56995  1.0000
  H   H58       1.0  0.08406  0.72119  0.57487  1.0000
  C   C101      1.0  0.33026  0.84954  0.38055  1.0000
  C   C102      1.0  0.99643  0.81104  0.38042  1.0000
  H   H59       1.0  0.99621  0.79721  0.43943  1.0000
  H   H60       1.0  0.33033  0.86330  0.43963  1.0000
  C   C103      1.0  0.12481  0.99570  0.54898  1.0000
  C   C104      1.0  0.14447  0.99363  0.62931  1.0000
  C   C105      1.0  0.18249  0.99318  0.62915  1.0000
  C   C106      1.0  0.20210  0.99478  0.54869  1.0000
  C   C107      1.0  0.18295  0.99691  0.46662  1.0000
  C   C108      1.0  0.14388  0.99735  0.46677  1.0000
  N   N11       1.0  0.20117  0.99861  0.38375  1.0000
  N   N12       1.0  0.12558  0.99960  0.38407  1.0000
  O   O23       1.0  0.22087  0.02673  0.37709  1.0000
  O   O24       1.0  0.10654  0.02824  0.37784  1.0000
  C   C109      1.0  0.33089  0.24078  0.29857  1.0000
  C   C110      1.0  0.36421  0.25705  0.27145  1.0000
  C   C111      1.0  0.36385  0.28439  0.20600  1.0000
  C   C112      1.0  0.33033  0.29621  0.16804  1.0000
  C   C113      1.0  0.63046  0.28458  0.20774  1.0000
  C   C114      1.0  0.63067  0.25702  0.27258  1.0000
  Si  Si4       1.0  0.33000  0.99693  0.09592  1.0000
  C   C115      1.0  0.32967  0.03122  0.16740  1.0000
  C   C116      1.0  0.62949  0.04306  0.20541  1.0000
  C   C117      1.0  0.62922  0.07058  0.27036  1.0000
  C   C118      1.0  0.32925  0.08650  0.29818  1.0000
  C   C119      1.0  0.36280  0.07021  0.27247  1.0000
  C   C120      1.0  0.36290  0.04283  0.20713  1.0000
  C   C121      1.0  0.36448  0.99692  0.02478  1.0000
  C   C122      1.0  0.62885  0.32975  0.02477  1.0000
  H   H61       1.0  0.62545  0.05449  0.00811  1.0000
  H   H62       1.0  0.62672  0.27154  0.01020  1.0000
  H   H63       1.0  0.36634  0.27216  0.00726  1.0000
  H   H64       1.0  0.36825  0.05508  0.01125  1.0000
  H   H65       1.0  0.38779  0.03359  0.18486  1.0000
  H   H66       1.0  0.38725  0.08255  0.28760  1.0000
  H   H67       1.0  0.60472  0.08301  0.28501  1.0000
  H   H68       1.0  0.60476  0.03390  0.18214  1.0000
  H   H69       1.0  0.60555  0.29376  0.18545  1.0000
  H   H70       1.0  0.38857  0.29353  0.18254  1.0000
  H   H71       1.0  0.38873  0.24452  0.28519  1.0000
  H   H72       1.0  0.60621  0.24477  0.28820  1.0000
  C   C123      1.0  0.66396  0.20214  0.29968  1.0000
  C   C124      1.0  0.32957  0.12517  0.29944  1.0000
  C   C125      1.0  0.32994  0.14427  0.21716  1.0000
  C   C126      1.0  0.66382  0.18312  0.21728  1.0000
  N   N13       1.0  0.32978  0.12342  0.13748  1.0000
  N   N14       1.0  0.66414  0.20405  0.13772  1.0000
  O   O25       1.0  0.35830  0.12633  0.09152  1.0000
  O   O26       1.0  0.69259  0.20046  0.09177  1.0000
  O   O27       1.0  0.30141  0.12702  0.09122  1.0000
  O   O28       1.0  0.63571  0.20114  0.09142  1.0000
  H   H73       1.0  0.52899  0.32535  0.02247  1.0000
  H   H74       1.0  0.46463  0.32603  0.02268  1.0000
  O   O29       1.0  0.43878  0.30554  0.37042  1.0000
  O   O30       1.0  0.55393  0.30401  0.37018  1.0000
  C   C127      1.0  0.61645  0.02953  0.65259  1.0000
  C   C128      1.0  0.58884  0.02909  0.58778  1.0000
  C   C129      1.0  0.57386  0.32875  0.55890  1.0000
  C   C130      1.0  0.58996  0.29557  0.58803  1.0000
  C   C131      1.0  0.61719  0.29616  0.65374  1.0000
  C   C132      1.0  0.37596  0.29692  0.65202  1.0000
  C   C133      1.0  0.40336  0.29672  0.58674  1.0000
  C   C134      1.0  0.41974  0.99668  0.55946  1.0000
  C   C135      1.0  0.40476  0.03019  0.58968  1.0000
  C   C136      1.0  0.37715  0.03026  0.65449  1.0000
  H   H75       1.0  0.57649  0.05340  0.57113  1.0000
  H   H76       1.0  0.57821  0.27087  0.57247  1.0000
  H   H77       1.0  0.41501  0.27209  0.56992  1.0000
  H   H78       1.0  0.41742  0.05452  0.57491  1.0000
  C   C137      1.0  0.66359  0.18287  0.38055  1.0000
  C   C138      1.0  0.32977  0.14437  0.38042  1.0000
  H   H79       1.0  0.32954  0.13054  0.43943  1.0000
  H   H80       1.0  0.66367  0.19664  0.43963  1.0000
  C   C139      1.0  0.45812  0.32903  0.54897  1.0000
  C   C140      1.0  0.47777  0.32696  0.62929  1.0000
  C   C141      1.0  0.51580  0.32652  0.62915  1.0000
  C   C142      1.0  0.53541  0.32811  0.54870  1.0000
  C   C143      1.0  0.51627  0.33024  0.46663  1.0000
  C   C144      1.0  0.47720  0.33069  0.46676  1.0000
  N   N15       1.0  0.53449  0.33194  0.38376  1.0000
  N   N16       1.0  0.45890  0.33293  0.38405  1.0000
  O   O31       1.0  0.55419  0.36007  0.37711  1.0000
  O   O32       1.0  0.43986  0.36157  0.37782  1.0000
  C   C145      1.0  0.33089  0.57412  0.29857  1.0000
  C   C146      1.0  0.36421  0.59038  0.27145  1.0000
  C   C147      1.0  0.36385  0.61772  0.20600  1.0000
  C   C148      1.0  0.33033  0.62954  0.16804  1.0000
  C   C149      1.0  0.63046  0.61792  0.20774  1.0000
  C   C150      1.0  0.63067  0.59035  0.27258  1.0000
  Si  Si5       1.0  0.32999  0.33026  0.09592  1.0000
  C   C151      1.0  0.32966  0.36456  0.16740  1.0000
  C   C152      1.0  0.62949  0.37639  0.20542  1.0000
  C   C153      1.0  0.62921  0.40391  0.27037  1.0000
  C   C154      1.0  0.32925  0.41984  0.29818  1.0000
  C   C155      1.0  0.36280  0.40354  0.27245  1.0000
  C   C156      1.0  0.36289  0.37616  0.20712  1.0000
  C   C157      1.0  0.36446  0.33025  0.02476  1.0000
  C   C158      1.0  0.62885  0.66309  0.02477  1.0000
  H   H81       1.0  0.62543  0.38782  0.00813  1.0000
  H   H82       1.0  0.62672  0.60487  0.01020  1.0000
  H   H83       1.0  0.36634  0.60549  0.00726  1.0000
  H   H84       1.0  0.36823  0.38841  0.01123  1.0000
  H   H85       1.0  0.38778  0.36693  0.18484  1.0000
  H   H86       1.0  0.38725  0.41588  0.28758  1.0000
  H   H87       1.0  0.60472  0.41634  0.28503  1.0000
  H   H88       1.0  0.60475  0.36723  0.18215  1.0000
  H   H89       1.0  0.60555  0.62710  0.18545  1.0000
  H   H90       1.0  0.38857  0.62687  0.18254  1.0000
  H   H91       1.0  0.38873  0.57785  0.28519  1.0000
  H   H92       1.0  0.60621  0.57811  0.28820  1.0000
  C   C159      1.0  0.66396  0.53548  0.29969  1.0000
  C   C160      1.0  0.32957  0.45851  0.29944  1.0000
  C   C161      1.0  0.32994  0.47761  0.21716  1.0000
  C   C162      1.0  0.66382  0.51646  0.21728  1.0000
  N   N17       1.0  0.32978  0.45675  0.13748  1.0000
  N   N18       1.0  0.66414  0.53738  0.13772  1.0000
  O   O33       1.0  0.35830  0.45967  0.09152  1.0000
  O   O34       1.0  0.69259  0.53379  0.09177  1.0000
  O   O35       1.0  0.30141  0.46036  0.09122  1.0000
  O   O36       1.0  0.63571  0.53448  0.09142  1.0000
  H   H93       1.0  0.52899  0.65868  0.02247  1.0000
  H   H94       1.0  0.46463  0.65936  0.02268  1.0000
  O   O37       1.0  0.43878  0.63887  0.37042  1.0000
  O   O38       1.0  0.55393  0.63734  0.37018  1.0000
  C   C163      1.0  0.61642  0.36287  0.65261  1.0000
  C   C164      1.0  0.58882  0.36242  0.58781  1.0000
  C   C165      1.0  0.57386  0.66208  0.55890  1.0000
  C   C166      1.0  0.58996  0.62890  0.58803  1.0000
  C   C167      1.0  0.61719  0.62949  0.65374  1.0000
  C   C168      1.0  0.37596  0.63025  0.65202  1.0000
  C   C169      1.0  0.40336  0.63005  0.58674  1.0000
  C   C170      1.0  0.41971  0.33001  0.55942  1.0000
  C   C171      1.0  0.40474  0.36353  0.58965  1.0000
  C   C172      1.0  0.37713  0.36360  0.65447  1.0000
  H   H95       1.0  0.57646  0.38673  0.57116  1.0000
  H   H96       1.0  0.57821  0.60420  0.57247  1.0000
  H   H97       1.0  0.41501  0.60542  0.56992  1.0000
  H   H98       1.0  0.41740  0.38785  0.57487  1.0000
  C   C173      1.0  0.66359  0.51620  0.38055  1.0000
  C   C174      1.0  0.32977  0.47770  0.38042  1.0000
  H   H99       1.0  0.32954  0.46388  0.43943  1.0000
  H   H100      1.0  0.66367  0.52997  0.43963  1.0000
  C   C175      1.0  0.45812  0.66236  0.54897  1.0000
  C   C176      1.0  0.47777  0.66029  0.62929  1.0000
  C   C177      1.0  0.51580  0.65985  0.62916  1.0000
  C   C178      1.0  0.53541  0.66144  0.54870  1.0000
  C   C179      1.0  0.51627  0.66357  0.46663  1.0000
  C   C180      1.0  0.47720  0.66402  0.46676  1.0000
  N   N19       1.0  0.53449  0.66528  0.38376  1.0000
  N   N20       1.0  0.45890  0.66626  0.38405  1.0000
  O   O39       1.0  0.55419  0.69340  0.37711  1.0000
  O   O40       1.0  0.43986  0.69491  0.37782  1.0000
  C   C181      1.0  0.33089  0.90745  0.29857  1.0000
  C   C182      1.0  0.36421  0.92371  0.27146  1.0000
  C   C183      1.0  0.36386  0.95105  0.20600  1.0000
  C   C184      1.0  0.33034  0.96288  0.16804  1.0000
  C   C185      1.0  0.63046  0.95125  0.20773  1.0000
  C   C186      1.0  0.63067  0.92369  0.27258  1.0000
  Si  Si6       1.0  0.32999  0.66360  0.09592  1.0000
  C   C187      1.0  0.32966  0.69789  0.16740  1.0000
  C   C188      1.0  0.62949  0.70972  0.20542  1.0000
  C   C189      1.0  0.62921  0.73725  0.27037  1.0000
  C   C190      1.0  0.32925  0.75317  0.29818  1.0000
  C   C191      1.0  0.36279  0.73688  0.27245  1.0000
  C   C192      1.0  0.36289  0.70949  0.20712  1.0000
  C   C193      1.0  0.36446  0.66358  0.02476  1.0000
  C   C194      1.0  0.62887  0.99642  0.02476  1.0000
  H   H101      1.0  0.62543  0.72115  0.00813  1.0000
  H   H102      1.0  0.62674  0.93821  0.01019  1.0000
  H   H103      1.0  0.36636  0.93882  0.00728  1.0000
  H   H104      1.0  0.36823  0.72174  0.01123  1.0000
  H   H105      1.0  0.38778  0.70026  0.18484  1.0000
  H   H106      1.0  0.38725  0.74921  0.28758  1.0000
  H   H107      1.0  0.60472  0.74968  0.28503  1.0000
  H   H108      1.0  0.60475  0.70057  0.18215  1.0000
  H   H109      1.0  0.60555  0.96043  0.18544  1.0000
  H   H110      1.0  0.38858  0.96020  0.18255  1.0000
  H   H111      1.0  0.38873  0.91118  0.28521  1.0000
  H   H112      1.0  0.60621  0.91144  0.28818  1.0000
  C   C195      1.0  0.66396  0.86881  0.29968  1.0000
  C   C196      1.0  0.32957  0.79184  0.29944  1.0000
  C   C197      1.0  0.32994  0.81094  0.21716  1.0000
  C   C198      1.0  0.66382  0.84979  0.21728  1.0000
  N   N21       1.0  0.32978  0.79008  0.13748  1.0000
  N   N22       1.0  0.66414  0.87072  0.13772  1.0000
  O   O41       1.0  0.35830  0.79300  0.09152  1.0000
  O   O42       1.0  0.69259  0.86713  0.09177  1.0000
  O   O43       1.0  0.30141  0.79369  0.09122  1.0000
  O   O44       1.0  0.63571  0.86781  0.09142  1.0000
  H   H113      1.0  0.52902  0.99202  0.02245  1.0000
  H   H114      1.0  0.46466  0.99269  0.02270  1.0000
  O   O45       1.0  0.43879  0.97220  0.37044  1.0000
  O   O46       1.0  0.55394  0.97067  0.37015  1.0000
  C   C199      1.0  0.61642  0.69620  0.65261  1.0000
  C   C200      1.0  0.58882  0.69575  0.58781  1.0000
  C   C201      1.0  0.57389  0.99541  0.55887  1.0000
  C   C202      1.0  0.58998  0.96224  0.58800  1.0000
  C   C203      1.0  0.61721  0.96283  0.65372  1.0000
  C   C204      1.0  0.37598  0.96359  0.65204  1.0000
  C   C205      1.0  0.40339  0.96339  0.58677  1.0000
  C   C206      1.0  0.41971  0.66335  0.55942  1.0000
  C   C207      1.0  0.40474  0.69686  0.58965  1.0000
  C   C208      1.0  0.37713  0.69693  0.65447  1.0000
  H   H115      1.0  0.57646  0.72006  0.57116  1.0000
  H   H116      1.0  0.57823  0.93754  0.57244  1.0000
  H   H117      1.0  0.41504  0.93875  0.56995  1.0000
  H   H118      1.0  0.41740  0.72119  0.57487  1.0000
  C   C209      1.0  0.66359  0.84954  0.38055  1.0000
  C   C210      1.0  0.32977  0.81104  0.38042  1.0000
  H   H119      1.0  0.32954  0.79721  0.43943  1.0000
  H   H120      1.0  0.66367  0.86330  0.43963  1.0000
  C   C211      1.0  0.45815  0.99570  0.54898  1.0000
  C   C212      1.0  0.47780  0.99363  0.62931  1.0000
  C   C213      1.0  0.51583  0.99318  0.62915  1.0000
  C   C214      1.0  0.53543  0.99478  0.54869  1.0000
  C   C215      1.0  0.51628  0.99691  0.46662  1.0000
  C   C216      1.0  0.47722  0.99735  0.46677  1.0000
  N   N23       1.0  0.53450  0.99861  0.38375  1.0000
  N   N24       1.0  0.45891  0.99960  0.38407  1.0000
  O   O47       1.0  0.55420  0.02673  0.37709  1.0000
  O   O48       1.0  0.43988  0.02824  0.37784  1.0000
  C   C217      1.0  0.66422  0.24078  0.29857  1.0000
  C   C218      1.0  0.69754  0.25705  0.27145  1.0000
  C   C219      1.0  0.69718  0.28439  0.20600  1.0000
  C   C220      1.0  0.66367  0.29621  0.16804  1.0000
  C   C221      1.0  0.96379  0.28458  0.20774  1.0000
  C   C222      1.0  0.96400  0.25702  0.27258  1.0000
  Si  Si7       1.0  0.66333  0.99693  0.09592  1.0000
  C   C223      1.0  0.66300  0.03122  0.16740  1.0000
  C   C224      1.0  0.96282  0.04306  0.20541  1.0000
  C   C225      1.0  0.96255  0.07058  0.27036  1.0000
  C   C226      1.0  0.66258  0.08650  0.29818  1.0000
  C   C227      1.0  0.69613  0.07021  0.27247  1.0000
  C   C228      1.0  0.69623  0.04283  0.20713  1.0000
  C   C229      1.0  0.69781  0.99692  0.02478  1.0000
  C   C230      1.0  0.96218  0.32975  0.02477  1.0000
  H   H121      1.0  0.95878  0.05449  0.00811  1.0000
  H   H122      1.0  0.96005  0.27154  0.01020  1.0000
  H   H123      1.0  0.69968  0.27216  0.00726  1.0000
  H   H124      1.0  0.70158  0.05508  0.01125  1.0000
  H   H125      1.0  0.72112  0.03359  0.18486  1.0000
  H   H126      1.0  0.72059  0.08255  0.28760  1.0000
  H   H127      1.0  0.93805  0.08301  0.28501  1.0000
  H   H128      1.0  0.93808  0.03390  0.18214  1.0000
  H   H129      1.0  0.93888  0.29376  0.18545  1.0000
  H   H130      1.0  0.72190  0.29353  0.18254  1.0000
  H   H131      1.0  0.72206  0.24452  0.28519  1.0000
  H   H132      1.0  0.93954  0.24477  0.28820  1.0000
  C   C231      1.0  0.99729  0.20214  0.29968  1.0000
  C   C232      1.0  0.66290  0.12517  0.29944  1.0000
  C   C233      1.0  0.66327  0.14427  0.21716  1.0000
  C   C234      1.0  0.99715  0.18312  0.21728  1.0000
  N   N25       1.0  0.66311  0.12342  0.13748  1.0000
  N   N26       1.0  0.99747  0.20405  0.13772  1.0000
  O   O49       1.0  0.69163  0.12633  0.09152  1.0000
  O   O50       1.0  0.02593  0.20046  0.09177  1.0000
  O   O51       1.0  0.63475  0.12702  0.09122  1.0000
  O   O52       1.0  0.96904  0.20114  0.09142  1.0000
  H   H133      1.0  0.86232  0.32535  0.02247  1.0000
  H   H134      1.0  0.79796  0.32603  0.02268  1.0000
  O   O53       1.0  0.77211  0.30554  0.37042  1.0000
  O   O54       1.0  0.88726  0.30401  0.37018  1.0000
  C   C235      1.0  0.94978  0.02953  0.65259  1.0000
  C   C236      1.0  0.92217  0.02909  0.58778  1.0000
  C   C237      1.0  0.90720  0.32875  0.55890  1.0000
  C   C238      1.0  0.92329  0.29557  0.58803  1.0000
  C   C239      1.0  0.95052  0.29616  0.65374  1.0000
  C   C240      1.0  0.70929  0.29692  0.65202  1.0000
  C   C241      1.0  0.73670  0.29672  0.58674  1.0000
  C   C242      1.0  0.75307  0.99668  0.55946  1.0000
  C   C243      1.0  0.73810  0.03019  0.58968  1.0000
  C   C244      1.0  0.71048  0.03026  0.65449  1.0000
  H   H135      1.0  0.90982  0.05340  0.57113  1.0000
  H   H136      1.0  0.91154  0.27087  0.57247  1.0000
  H   H137      1.0  0.74835  0.27209  0.56992  1.0000
  H   H138      1.0  0.75076  0.05452  0.57491  1.0000
  C   C245      1.0  0.99692  0.18287  0.38055  1.0000
  C   C246      1.0  0.66310  0.14437  0.38042  1.0000
  H   H139      1.0  0.66287  0.13054  0.43943  1.0000
  H   H140      1.0  0.99700  0.19664  0.43963  1.0000
  C   C247      1.0  0.79145  0.32903  0.54897  1.0000
  C   C248      1.0  0.81111  0.32696  0.62929  1.0000
  C   C249      1.0  0.84913  0.32652  0.62915  1.0000
  C   C250      1.0  0.86874  0.32811  0.54870  1.0000
  C   C251      1.0  0.84960  0.33024  0.46663  1.0000
  C   C252      1.0  0.81053  0.33069  0.46676  1.0000
  N   N27       1.0  0.86782  0.33194  0.38376  1.0000
  N   N28       1.0  0.79224  0.33293  0.38405  1.0000
  O   O55       1.0  0.88753  0.36007  0.37711  1.0000
  O   O56       1.0  0.77320  0.36157  0.37782  1.0000
  C   C253      1.0  0.66422  0.57412  0.29857  1.0000
  C   C254      1.0  0.69754  0.59038  0.27145  1.0000
  C   C255      1.0  0.69719  0.61772  0.20600  1.0000
  C   C256      1.0  0.66367  0.62954  0.16804  1.0000
  C   C257      1.0  0.96379  0.61792  0.20774  1.0000
  C   C258      1.0  0.96400  0.59035  0.27258  1.0000
  Si  Si8       1.0  0.66332  0.33026  0.09592  1.0000
  C   C259      1.0  0.66299  0.36456  0.16740  1.0000
  C   C260      1.0  0.96282  0.37639  0.20542  1.0000
  C   C261      1.0  0.96255  0.40391  0.27037  1.0000
  C   C262      1.0  0.66258  0.41984  0.29818  1.0000
  C   C263      1.0  0.69612  0.40354  0.27245  1.0000
  C   C264      1.0  0.69622  0.37616  0.20712  1.0000
  C   C265      1.0  0.69779  0.33025  0.02476  1.0000
  C   C266      1.0  0.96218  0.66309  0.02477  1.0000
  H   H141      1.0  0.95877  0.38782  0.00813  1.0000
  H   H142      1.0  0.96005  0.60487  0.01020  1.0000
  H   H143      1.0  0.69968  0.60549  0.00726  1.0000
  H   H144      1.0  0.70156  0.38841  0.01123  1.0000
  H   H145      1.0  0.72111  0.36693  0.18484  1.0000
  H   H146      1.0  0.72059  0.41588  0.28758  1.0000
  H   H147      1.0  0.93805  0.41634  0.28503  1.0000
  H   H148      1.0  0.93808  0.36723  0.18215  1.0000
  H   H149      1.0  0.93888  0.62710  0.18545  1.0000
  H   H150      1.0  0.72190  0.62687  0.18254  1.0000
  H   H151      1.0  0.72206  0.57785  0.28519  1.0000
  H   H152      1.0  0.93954  0.57811  0.28820  1.0000
  C   C267      1.0  0.99729  0.53548  0.29969  1.0000
  C   C268      1.0  0.66290  0.45851  0.29944  1.0000
  C   C269      1.0  0.66327  0.47761  0.21716  1.0000
  C   C270      1.0  0.99715  0.51646  0.21728  1.0000
  N   N29       1.0  0.66311  0.45675  0.13748  1.0000
  N   N30       1.0  0.99747  0.53738  0.13772  1.0000
  O   O57       1.0  0.69163  0.45967  0.09152  1.0000
  O   O58       1.0  0.02593  0.53379  0.09177  1.0000
  O   O59       1.0  0.63475  0.46036  0.09122  1.0000
  O   O60       1.0  0.96904  0.53448  0.09142  1.0000
  H   H153      1.0  0.86232  0.65868  0.02247  1.0000
  H   H154      1.0  0.79796  0.65936  0.02268  1.0000
  O   O61       1.0  0.77211  0.63887  0.37042  1.0000
  O   O62       1.0  0.88726  0.63734  0.37018  1.0000
  C   C271      1.0  0.94976  0.36287  0.65261  1.0000
  C   C272      1.0  0.92215  0.36242  0.58781  1.0000
  C   C273      1.0  0.90720  0.66208  0.55890  1.0000
  C   C274      1.0  0.92329  0.62890  0.58803  1.0000
  C   C275      1.0  0.95052  0.62949  0.65374  1.0000
  C   C276      1.0  0.70929  0.63025  0.65202  1.0000
  C   C277      1.0  0.73670  0.63005  0.58674  1.0000
  C   C278      1.0  0.75305  0.33001  0.55942  1.0000
  C   C279      1.0  0.73807  0.36353  0.58965  1.0000
  C   C280      1.0  0.71046  0.36360  0.65447  1.0000
  H   H155      1.0  0.90979  0.38673  0.57116  1.0000
  H   H156      1.0  0.91154  0.60420  0.57247  1.0000
  H   H157      1.0  0.74835  0.60542  0.56992  1.0000
  H   H158      1.0  0.75073  0.38785  0.57487  1.0000
  C   C281      1.0  0.99692  0.51620  0.38055  1.0000
  C   C282      1.0  0.66310  0.47770  0.38042  1.0000
  H   H159      1.0  0.66287  0.46388  0.43943  1.0000
  H   H160      1.0  0.99700  0.52997  0.43963  1.0000
  C   C283      1.0  0.79145  0.66236  0.54897  1.0000
  C   C284      1.0  0.81111  0.66029  0.62929  1.0000
  C   C285      1.0  0.84913  0.65985  0.62916  1.0000
  C   C286      1.0  0.86874  0.66144  0.54870  1.0000
  C   C287      1.0  0.84960  0.66357  0.46663  1.0000
  C   C288      1.0  0.81053  0.66402  0.46676  1.0000
  N   N31       1.0  0.86782  0.66528  0.38376  1.0000
  N   N32       1.0  0.79224  0.66626  0.38405  1.0000
  O   O63       1.0  0.88753  0.69340  0.37711  1.0000
  O   O64       1.0  0.77320  0.69491  0.37782  1.0000
  C   C289      1.0  0.66422  0.90745  0.29857  1.0000
  C   C290      1.0  0.69754  0.92371  0.27146  1.0000
  C   C291      1.0  0.69719  0.95105  0.20600  1.0000
  C   C292      1.0  0.66367  0.96288  0.16804  1.0000
  C   C293      1.0  0.96380  0.95125  0.20773  1.0000
  C   C294      1.0  0.96400  0.92369  0.27258  1.0000
  Si  Si9       1.0  0.66332  0.66360  0.09592  1.0000
  C   C295      1.0  0.66299  0.69789  0.16740  1.0000
  C   C296      1.0  0.96282  0.70972  0.20542  1.0000
  C   C297      1.0  0.96255  0.73725  0.27037  1.0000
  C   C298      1.0  0.66258  0.75317  0.29818  1.0000
  C   C299      1.0  0.69613  0.73688  0.27245  1.0000
  C   C300      1.0  0.69622  0.70949  0.20712  1.0000
  C   C301      1.0  0.69779  0.66358  0.02476  1.0000
  C   C302      1.0  0.96220  0.99642  0.02476  1.0000
  H   H161      1.0  0.95877  0.72115  0.00813  1.0000
  H   H162      1.0  0.96007  0.93821  0.01019  1.0000
  H   H163      1.0  0.69969  0.93882  0.00728  1.0000
  H   H164      1.0  0.70156  0.72174  0.01123  1.0000
  H   H165      1.0  0.72111  0.70026  0.18484  1.0000
  H   H166      1.0  0.72059  0.74921  0.28758  1.0000
  H   H167      1.0  0.93805  0.74968  0.28503  1.0000
  H   H168      1.0  0.93808  0.70057  0.18215  1.0000
  H   H169      1.0  0.93889  0.96043  0.18544  1.0000
  H   H170      1.0  0.72191  0.96020  0.18255  1.0000
  H   H171      1.0  0.72206  0.91118  0.28521  1.0000
  H   H172      1.0  0.93954  0.91144  0.28818  1.0000
  C   C303      1.0  0.99729  0.86881  0.29968  1.0000
  C   C304      1.0  0.66290  0.79184  0.29944  1.0000
  C   C305      1.0  0.66327  0.81094  0.21716  1.0000
  C   C306      1.0  0.99715  0.84979  0.21728  1.0000
  N   N33       1.0  0.66311  0.79008  0.13748  1.0000
  N   N34       1.0  0.99747  0.87072  0.13772  1.0000
  O   O65       1.0  0.69163  0.79300  0.09152  1.0000
  O   O66       1.0  0.02593  0.86713  0.09177  1.0000
  O   O67       1.0  0.63475  0.79369  0.09122  1.0000
  O   O68       1.0  0.96904  0.86781  0.09142  1.0000
  H   H173      1.0  0.86235  0.99202  0.02245  1.0000
  H   H174      1.0  0.79800  0.99269  0.02270  1.0000
  O   O69       1.0  0.77212  0.97220  0.37044  1.0000
  O   O70       1.0  0.88727  0.97067  0.37015  1.0000
  C   C307      1.0  0.94976  0.69620  0.65261  1.0000
  C   C308      1.0  0.92215  0.69575  0.58781  1.0000
  C   C309      1.0  0.90722  0.99541  0.55887  1.0000
  C   C310      1.0  0.92332  0.96224  0.58800  1.0000
  C   C311      1.0  0.95054  0.96283  0.65372  1.0000
  C   C312      1.0  0.70932  0.96359  0.65204  1.0000
  C   C313      1.0  0.73672  0.96339  0.58677  1.0000
  C   C314      1.0  0.75305  0.66335  0.55942  1.0000
  C   C315      1.0  0.73807  0.69686  0.58965  1.0000
  C   C316      1.0  0.71046  0.69693  0.65447  1.0000
  H   H175      1.0  0.90979  0.72006  0.57116  1.0000
  H   H176      1.0  0.91157  0.93754  0.57244  1.0000
  H   H177      1.0  0.74837  0.93875  0.56995  1.0000
  H   H178      1.0  0.75073  0.72119  0.57487  1.0000
  C   C317      1.0  0.99692  0.84954  0.38055  1.0000
  C   C318      1.0  0.66310  0.81104  0.38042  1.0000
  H   H179      1.0  0.66287  0.79721  0.43943  1.0000
  H   H180      1.0  0.99700  0.86330  0.43963  1.0000
  C   C319      1.0  0.79148  0.99570  0.54898  1.0000
  C   C320      1.0  0.81114  0.99363  0.62931  1.0000
  C   C321      1.0  0.84916  0.99318  0.62915  1.0000
  C   C322      1.0  0.86877  0.99478  0.54869  1.0000
  C   C323      1.0  0.84962  0.99691  0.46662  1.0000
  C   C324      1.0  0.81055  0.99735  0.46677  1.0000
  N   N35       1.0  0.86784  0.99861  0.38375  1.0000
  N   N36       1.0  0.79225  0.99960  0.38407  1.0000
  O   O71       1.0  0.88754  0.02673  0.37709  1.0000
  O   O72       1.0  0.77321  0.02824  0.37784  1.0000
