data_image0
_chemical_formula_structural       C16N2O4NHC4N2O4NHC4N2O4NHC4N2O4NHC4N2O4NHC4N2O4NHC2H2NHC2H2NHC2H2NHC2H2NHC2H2NHC2H2NHC4N2O4NHC4N2O4NHC4N2O4NHC4N2O4NHC4N2O4NHC4N2O4NHC5H3C2O3C5H3C2O3C5H3C2O3C5H3C2O3C5H3C2O3C5H3C2O3C6H3C3O3C6H3C3O3C6H3C3O3C6H3C3O3C6H3C3O3C6H3C3O3C2H2NHC2H2NHC2H2NHC2H2NHC2H2NHC2H2NHC4N2O4NHC4N2O4NHC4N2O4NHC4N2O4NHC4N2O4NHC4N2O4NHC2H2NHC2H2NHC2H2NHC2H2NHC2H2NHC2H2NH
_chemical_formula_sum              "C216 N72 O108 H108"
_cell_length_a       59.2942
_cell_length_b       59.2942
_cell_length_c       15.0677
_cell_angle_alpha    90
_cell_angle_beta     90
_cell_angle_gamma    120

_space_group_name_H-M_alt    "P 1"
_space_group_IT_number       1

loop_
  _space_group_symop_operation_xyz
  'x, y, z'

loop_
  _atom_site_type_symbol
  _atom_site_label
  _atom_site_symmetry_multiplicity
  _atom_site_fract_x
  _atom_site_fract_y
  _atom_site_fract_z
  _atom_site_occupancy
  C   C1        1.0  0.09779  0.44611  0.32187  1.0000
  C   C2        1.0  0.07266  0.42422  0.30493  1.0000
  C   C3        1.0  0.56695  0.66901  0.32435  1.0000
  C   C4        1.0  0.58878  0.66561  0.30816  1.0000
  C   C5        1.0  0.34392  0.91535  0.32250  1.0000
  C   C6        1.0  0.34719  0.94049  0.30567  1.0000
  C   C7        1.0  0.90799  0.57432  0.32241  1.0000
  C   C8        1.0  0.93312  0.59621  0.30542  1.0000
  C   C9        1.0  0.43871  0.35120  0.32271  1.0000
  C   C10       1.0  0.41683  0.35448  0.30609  1.0000
  C   C11       1.0  0.66173  0.10497  0.32361  1.0000
  C   C12       1.0  0.65835  0.07974  0.30742  1.0000
  C   C13       1.0  0.18640  0.43369  0.33278  1.0000
  C   C14       1.0  0.23385  0.43461  0.30398  1.0000
  C   C15       1.0  0.21982  0.43634  0.23012  1.0000
  C   C16       1.0  0.19592  0.43589  0.24491  1.0000
  N   N1        1.0  0.22925  0.44016  0.14181  1.0000
  N   N2        1.0  0.18083  0.43774  0.17520  1.0000
  O   O1        1.0  0.25075  0.46076  0.13285  1.0000
  O   O2        1.0  0.19293  0.45876  0.13296  1.0000
  O   O3        1.0  0.23093  0.42114  0.11341  1.0000
  O   O4        1.0  0.17302  0.41899  0.12200  1.0000
  N   N3        1.0  0.25828  0.43812  0.29488  1.0000
  H   H1        1.0  0.26080  0.42826  0.24818  1.0000
  C   C17       1.0  0.57955  0.77027  0.32990  1.0000
  C   C18       1.0  0.57844  0.81674  0.30209  1.0000
  C   C19       1.0  0.57669  0.80106  0.22795  1.0000
  C   C20       1.0  0.57724  0.77764  0.24224  1.0000
  N   N4        1.0  0.57277  0.80673  0.13983  1.0000
  N   N5        1.0  0.57539  0.76079  0.17220  1.0000
  O   O5        1.0  0.55213  0.80759  0.13132  1.0000
  O   O6        1.0  0.55433  0.75185  0.13018  1.0000
  O   O7        1.0  0.59173  0.82746  0.11145  1.0000
  O   O8        1.0  0.59409  0.77183  0.11886  1.0000
  N   N6        1.0  0.57493  0.83768  0.29347  1.0000
  H   H2        1.0  0.58471  0.85007  0.24676  1.0000
  C   C21       1.0  0.24286  0.82666  0.33249  1.0000
  C   C22       1.0  0.19628  0.77923  0.30405  1.0000
  C   C23       1.0  0.21204  0.79318  0.23010  1.0000
  C   C24       1.0  0.23551  0.81707  0.24470  1.0000
  N   N7        1.0  0.20639  0.78371  0.14185  1.0000
  N   N8        1.0  0.25243  0.83211  0.17486  1.0000
  O   O9        1.0  0.20539  0.76215  0.13303  1.0000
  O   O10       1.0  0.26132  0.81997  0.13267  1.0000
  O   O11       1.0  0.18573  0.78211  0.11341  1.0000
  O   O12       1.0  0.24148  0.83991  0.12164  1.0000
  N   N9        1.0  0.17525  0.75485  0.29515  1.0000
  H   H3        1.0  0.16300  0.75229  0.24800  1.0000
  C   C25       1.0  0.81929  0.58663  0.33218  1.0000
  C   C26       1.0  0.77190  0.58582  0.30337  1.0000
  C   C27       1.0  0.78587  0.58399  0.22954  1.0000
  C   C28       1.0  0.80975  0.58440  0.24433  1.0000
  N   N10       1.0  0.77643  0.58015  0.14124  1.0000
  N   N11       1.0  0.82480  0.58249  0.17461  1.0000
  O   O13       1.0  0.75488  0.55959  0.13240  1.0000
  O   O14       1.0  0.81267  0.56146  0.13244  1.0000
  O   O15       1.0  0.77483  0.59920  0.11270  1.0000
  O   O16       1.0  0.83264  0.60122  0.12133  1.0000
  N   N12       1.0  0.74750  0.58241  0.29438  1.0000
  H   H4        1.0  0.74495  0.59212  0.24723  1.0000
  C   C29       1.0  0.42633  0.25011  0.33152  1.0000
  C   C30       1.0  0.42732  0.20359  0.30348  1.0000
  C   C31       1.0  0.42905  0.21928  0.22940  1.0000
  C   C32       1.0  0.42856  0.24272  0.24380  1.0000
  N   N13       1.0  0.43289  0.21360  0.14120  1.0000
  N   N14       1.0  0.43039  0.25957  0.17381  1.0000
  O   O17       1.0  0.45350  0.21269  0.13247  1.0000
  O   O18       1.0  0.45141  0.26848  0.13160  1.0000
  O   O19       1.0  0.41388  0.19288  0.11291  1.0000
  O   O20       1.0  0.41164  0.24856  0.12062  1.0000
  N   N15       1.0  0.43078  0.18263  0.29473  1.0000
  H   H5        1.0  0.42103  0.17027  0.24788  1.0000
  C   C33       1.0  0.76296  0.19364  0.32996  1.0000
  C   C34       1.0  0.80947  0.24121  0.30246  1.0000
  C   C35       1.0  0.79382  0.22732  0.22823  1.0000
  C   C36       1.0  0.77038  0.20335  0.24235  1.0000
  N   N16       1.0  0.79954  0.23694  0.14014  1.0000
  N   N17       1.0  0.75357  0.18839  0.17220  1.0000
  O   O21       1.0  0.80042  0.25845  0.13167  1.0000
  O   O22       1.0  0.74466  0.20053  0.13013  1.0000
  O   O23       1.0  0.82028  0.23870  0.11187  1.0000
  O   O24       1.0  0.76463  0.18073  0.11892  1.0000
  N   N18       1.0  0.83041  0.26566  0.29400  1.0000
  H   H6        1.0  0.84282  0.26829  0.24732  1.0000
  C   C37       1.0  0.15886  0.60157  0.28505  1.0000
  C   C38       1.0  0.15759  0.57742  0.29220  1.0000
  H   H7        1.0  0.15960  0.56887  0.23598  1.0000
  H   H8        1.0  0.16143  0.60996  0.22372  1.0000
  N   N19       1.0  0.15464  0.63612  0.34862  1.0000
  H   H9        1.0  0.16884  0.64971  0.31415  1.0000
  C   C39       1.0  0.41149  0.57520  0.28456  1.0000
  C   C40       1.0  0.43563  0.59811  0.29194  1.0000
  H   H10       1.0  0.44427  0.60862  0.23576  1.0000
  H   H11       1.0  0.40322  0.56933  0.22310  1.0000
  N   N20       1.0  0.37699  0.53636  0.34775  1.0000
  H   H12       1.0  0.36334  0.53691  0.31338  1.0000
  C   C41       1.0  0.43809  0.85404  0.28551  1.0000
  C   C42       1.0  0.41525  0.85540  0.29282  1.0000
  H   H13       1.0  0.40474  0.85353  0.23661  1.0000
  H   H14       1.0  0.44393  0.85159  0.22407  1.0000
  N   N21       1.0  0.47688  0.85827  0.34873  1.0000
  H   H15       1.0  0.47629  0.84406  0.31431  1.0000
  C   C43       1.0  0.84683  0.41884  0.28621  1.0000
  C   C44       1.0  0.84820  0.44304  0.29330  1.0000
  H   H16       1.0  0.84634  0.45165  0.23702  1.0000
  H   H17       1.0  0.84435  0.41049  0.22485  1.0000
  N   N22       1.0  0.85082  0.38418  0.35001  1.0000
  H   H18       1.0  0.83673  0.37067  0.31493  1.0000
  C   C45       1.0  0.59418  0.44525  0.28472  1.0000
  C   C46       1.0  0.57000  0.42240  0.29209  1.0000
  H   H19       1.0  0.56137  0.41186  0.23594  1.0000
  H   H20       1.0  0.60250  0.45105  0.22329  1.0000
  N   N23       1.0  0.62880  0.48401  0.34791  1.0000
  H   H21       1.0  0.64241  0.48349  0.31323  1.0000
  C   C47       1.0  0.56781  0.16651  0.28475  1.0000
  C   C48       1.0  0.59071  0.16527  0.29200  1.0000
  H   H22       1.0  0.60122  0.16716  0.23577  1.0000
  H   H23       1.0  0.56193  0.16894  0.22333  1.0000
  N   N24       1.0  0.52900  0.16221  0.34814  1.0000
  H   H24       1.0  0.52948  0.17632  0.31347  1.0000
  C   C49       1.0  0.02610  0.40551  0.29808  1.0000
  C   C50       1.0  0.97222  0.37401  0.26061  1.0000
  C   C51       1.0  0.99006  0.38727  0.19065  1.0000
  C   C52       1.0  0.01709  0.40327  0.20915  1.0000
  N   N25       1.0  0.97966  0.38430  0.10384  1.0000
  N   N26       1.0  0.03340  0.41799  0.13776  1.0000
  O   O25       1.0  0.98878  0.37437  0.05156  1.0000
  O   O26       1.0  0.04966  0.41125  0.11707  1.0000
  O   O27       1.0  0.98320  0.40543  0.07214  1.0000
  O   O28       1.0  0.04478  0.44215  0.15081  1.0000
  N   N27       1.0  0.94600  0.36385  0.24764  1.0000
  H   H25       1.0  0.94100  0.37441  0.21214  1.0000
  C   C53       1.0  0.60712  0.63747  0.30018  1.0000
  C   C54       1.0  0.63873  0.61537  0.26069  1.0000
  C   C55       1.0  0.62534  0.62003  0.19136  1.0000
  C   C56       1.0  0.60928  0.63093  0.21087  1.0000
  N   N28       1.0  0.62828  0.61285  0.10411  1.0000
  N   N29       1.0  0.59444  0.63259  0.14005  1.0000
  O   O29       1.0  0.63811  0.63204  0.05239  1.0000
  O   O30       1.0  0.60111  0.65561  0.11986  1.0000
  O   O31       1.0  0.60716  0.59528  0.07228  1.0000
  O   O32       1.0  0.57031  0.61976  0.15348  1.0000
  N   N30       1.0  0.64908  0.59953  0.24644  1.0000
  H   H26       1.0  0.63852  0.58400  0.21074  1.0000
  C   C57       1.0  0.37510  0.98703  0.29845  1.0000
  C   C58       1.0  0.39745  0.04087  0.26032  1.0000
  C   C59       1.0  0.39278  0.02295  0.19053  1.0000
  C   C60       1.0  0.38177  0.99594  0.20938  1.0000
  N   N31       1.0  0.40010  0.03325  0.10355  1.0000
  N   N32       1.0  0.38014  0.97957  0.13815  1.0000
  O   O33       1.0  0.38097  0.02406  0.05156  1.0000
  O   O34       1.0  0.35713  0.96329  0.11763  1.0000
  O   O35       1.0  0.41765  0.02968  0.07167  1.0000
  O   O36       1.0  0.39293  0.96820  0.15127  1.0000
  N   N33       1.0  0.41341  0.06708  0.24668  1.0000
  H   H27       1.0  0.42899  0.07206  0.21129  1.0000
  C   C61       1.0  0.97966  0.61492  0.29796  1.0000
  C   C62       1.0  0.03348  0.64650  0.25958  1.0000
  C   C63       1.0  0.01553  0.63318  0.18990  1.0000
  C   C64       1.0  0.98854  0.61715  0.20886  1.0000
  N   N34       1.0  0.02581  0.63614  0.10290  1.0000
  N   N35       1.0  0.97215  0.60235  0.13773  1.0000
  O   O37       1.0  0.01657  0.64601  0.05085  1.0000
  O   O38       1.0  0.95583  0.60902  0.11725  1.0000
  O   O39       1.0  0.02227  0.61501  0.07115  1.0000
  O   O40       1.0  0.96085  0.57820  0.15097  1.0000
  N   N36       1.0  0.05969  0.65674  0.24591  1.0000
  H   H28       1.0  0.06462  0.64609  0.21064  1.0000
  C   C65       1.0  0.39821  0.38239  0.29883  1.0000
  C   C66       1.0  0.36671  0.40472  0.26058  1.0000
  C   C67       1.0  0.38001  0.40009  0.19087  1.0000
  C   C68       1.0  0.39601  0.38909  0.20977  1.0000
  N   N37       1.0  0.37705  0.40743  0.10389  1.0000
  N   N38       1.0  0.41077  0.38746  0.13859  1.0000
  O   O41       1.0  0.36715  0.38832  0.05182  1.0000
  O   O42       1.0  0.40404  0.36445  0.11807  1.0000
  O   O43       1.0  0.39819  0.42500  0.07214  1.0000
  O   O44       1.0  0.43492  0.40025  0.15178  1.0000
  N   N39       1.0  0.35651  0.42073  0.24719  1.0000
  H   H29       1.0  0.36707  0.43626  0.21151  1.0000
  C   C69       1.0  0.63028  0.03325  0.29988  1.0000
  C   C70       1.0  0.60824  0.97950  0.26107  1.0000
  C   C71       1.0  0.61284  0.99747  0.19150  1.0000
  C   C72       1.0  0.62371  0.02444  0.21068  1.0000
  N   N40       1.0  0.60564  0.98725  0.10437  1.0000
  N   N41       1.0  0.62531  0.04087  0.13964  1.0000
  O   O45       1.0  0.62481  0.99660  0.05255  1.0000
  O   O46       1.0  0.64831  0.05723  0.11931  1.0000
  O   O47       1.0  0.58804  0.99074  0.07247  1.0000
  O   O48       1.0  0.61244  0.05213  0.15291  1.0000
  N   N42       1.0  0.59240  0.95330  0.24713  1.0000
  H   H30       1.0  0.57684  0.94831  0.21159  1.0000
  C   C73       1.0  0.14515  0.46422  0.34132  1.0000
  C   C74       1.0  0.14828  0.48948  0.34567  1.0000
  C   C75       1.0  0.12697  0.49373  0.33695  1.0000
  C   C76       1.0  0.10198  0.47178  0.32427  1.0000
  C   C77       1.0  0.11971  0.44285  0.32953  1.0000
  H   H31       1.0  0.08662  0.47475  0.31409  1.0000
  H   H32       1.0  0.11709  0.42455  0.32255  1.0000
  H   H33       1.0  0.16664  0.50524  0.35077  1.0000
  C   C78       1.0  0.16728  0.46081  0.33823  1.0000
  C   C79       1.0  0.13053  0.51937  0.33338  1.0000
  O   O49       1.0  0.07088  0.40229  0.27017  1.0000
  O   O50       1.0  0.19028  0.48145  0.31225  1.0000
  O   O51       1.0  0.11317  0.52284  0.28525  1.0000
  C   C80       1.0  0.54898  0.69849  0.34066  1.0000
  C   C81       1.0  0.52367  0.67644  0.34543  1.0000
  C   C82       1.0  0.51932  0.65081  0.33826  1.0000
  C   C83       1.0  0.54122  0.64761  0.32697  1.0000
  C   C84       1.0  0.57029  0.69425  0.33033  1.0000
  H   H34       1.0  0.53816  0.62921  0.31786  1.0000
  H   H35       1.0  0.58863  0.70986  0.32322  1.0000
  H   H36       1.0  0.50795  0.67913  0.34939  1.0000
  C   C85       1.0  0.55251  0.72406  0.33577  1.0000
  C   C86       1.0  0.49365  0.62881  0.33461  1.0000
  O   O52       1.0  0.61081  0.68567  0.27358  1.0000
  O   O53       1.0  0.53189  0.72638  0.30925  1.0000
  O   O54       1.0  0.49016  0.60784  0.28729  1.0000
  C   C87       1.0  0.31465  0.86796  0.34130  1.0000
  C   C88       1.0  0.33677  0.86482  0.34593  1.0000
  C   C89       1.0  0.36234  0.88614  0.33755  1.0000
  C   C90       1.0  0.36540  0.91114  0.32510  1.0000
  C   C91       1.0  0.31874  0.89341  0.32969  1.0000
  H   H37       1.0  0.38374  0.92651  0.31521  1.0000
  H   H38       1.0  0.30306  0.89604  0.32260  1.0000
  H   H39       1.0  0.33416  0.84646  0.35083  1.0000
  C   C92       1.0  0.28911  0.84583  0.33783  1.0000
  C   C93       1.0  0.38441  0.88258  0.33423  1.0000
  O   O55       1.0  0.32706  0.94230  0.27091  1.0000
  O   O56       1.0  0.28679  0.82285  0.31180  1.0000
  O   O57       1.0  0.40531  0.89999  0.28646  1.0000
  C   C94       1.0  0.86061  0.55618  0.34133  1.0000
  C   C95       1.0  0.85749  0.53093  0.34603  1.0000
  C   C96       1.0  0.87883  0.52670  0.33770  1.0000
  C   C97       1.0  0.90382  0.54865  0.32515  1.0000
  C   C98       1.0  0.88604  0.57754  0.32960  1.0000
  H   H40       1.0  0.91919  0.54569  0.31528  1.0000
  H   H41       1.0  0.88865  0.59584  0.32240  1.0000
  H   H42       1.0  0.83913  0.51517  0.35096  1.0000
  C   C99       1.0  0.83846  0.55956  0.33767  1.0000
  C   C100      1.0  0.87529  0.50107  0.33451  1.0000
  O   O58       1.0  0.93488  0.61813  0.27065  1.0000
  O   O59       1.0  0.81549  0.53889  0.31170  1.0000
  O   O60       1.0  0.89271  0.49758  0.28679  1.0000
  C   C101      1.0  0.45679  0.32188  0.34084  1.0000
  C   C102      1.0  0.48207  0.34399  0.34550  1.0000
  C   C103      1.0  0.48634  0.36957  0.33748  1.0000
  C   C104      1.0  0.46440  0.37266  0.32540  1.0000
  C   C105      1.0  0.43545  0.32600  0.32960  1.0000
  H   H43       1.0  0.46739  0.39102  0.31568  1.0000
  H   H44       1.0  0.41714  0.31034  0.32249  1.0000
  H   H45       1.0  0.49782  0.34136  0.35008  1.0000
  C   C106      1.0  0.45337  0.29634  0.33683  1.0000
  C   C107      1.0  0.51198  0.39162  0.33403  1.0000
  O   O61       1.0  0.39487  0.33435  0.27141  1.0000
  O   O62       1.0  0.47401  0.29402  0.31053  1.0000
  O   O63       1.0  0.51546  0.41253  0.28634  1.0000
  C   C108      1.0  0.69118  0.15240  0.34022  1.0000
  C   C109      1.0  0.66912  0.15565  0.34506  1.0000
  C   C110      1.0  0.64350  0.13436  0.33775  1.0000
  C   C111      1.0  0.64032  0.10927  0.32634  1.0000
  C   C112      1.0  0.68696  0.12687  0.32975  1.0000
  H   H46       1.0  0.62192  0.09392  0.31710  1.0000
  H   H47       1.0  0.70258  0.12416  0.32254  1.0000
  H   H48       1.0  0.67180  0.17405  0.34905  1.0000
  C   C113      1.0  0.71674  0.17446  0.33544  1.0000
  C   C114      1.0  0.62148  0.13801  0.33419  1.0000
  O   O64       1.0  0.67842  0.07779  0.27283  1.0000
  O   O65       1.0  0.71906  0.19741  0.30902  1.0000
  O   O66       1.0  0.60053  0.12055  0.28674  1.0000
  C   C115      1.0  0.45312  0.15835  0.32936  1.0000
  C   C116      1.0  0.47763  0.16034  0.34449  1.0000
  C   C117      1.0  0.48106  0.13841  0.34018  1.0000
  C   C118      1.0  0.45902  0.11404  0.31983  1.0000
  C   C119      1.0  0.43422  0.11126  0.30450  1.0000
  C   C120      1.0  0.43157  0.13351  0.31108  1.0000
  H   H49       1.0  0.46087  0.09779  0.31892  1.0000
  H   H50       1.0  0.41341  0.13132  0.30417  1.0000
  H   H51       1.0  0.49312  0.17804  0.36134  1.0000
  C   C121      1.0  0.44991  0.18049  0.33758  1.0000
  C   C122      1.0  0.41199  0.08632  0.29094  1.0000
  C   C123      1.0  0.50547  0.14018  0.36002  1.0000
  O   O67       1.0  0.38924  0.08120  0.32934  1.0000
  O   O68       1.0  0.46713  0.20048  0.38914  1.0000
  O   O69       1.0  0.50507  0.11832  0.38899  1.0000
  C   C124      1.0  0.70082  0.55991  0.32823  1.0000
  C   C125      1.0  0.67832  0.53541  0.34354  1.0000
  C   C126      1.0  0.65294  0.53195  0.33934  1.0000
  C   C127      1.0  0.65059  0.55397  0.31887  1.0000
  C   C128      1.0  0.67258  0.57877  0.30335  1.0000
  C   C129      1.0  0.69750  0.58144  0.30984  1.0000
  H   H52       1.0  0.63248  0.55210  0.31810  1.0000
  H   H53       1.0  0.71345  0.59961  0.30288  1.0000
  H   H54       1.0  0.68053  0.51992  0.36044  1.0000
  C   C130      1.0  0.72619  0.56317  0.33667  1.0000
  C   C131      1.0  0.66985  0.60099  0.29004  1.0000
  C   C132      1.0  0.63032  0.50756  0.35949  1.0000
  O   O70       1.0  0.68744  0.62372  0.32867  1.0000
  O   O71       1.0  0.72894  0.54595  0.38829  1.0000
  O   O72       1.0  0.60888  0.50800  0.38855  1.0000
  C   C133      1.0  0.85470  0.31222  0.32957  1.0000
  C   C134      1.0  0.85272  0.33472  0.34514  1.0000
  C   C135      1.0  0.87466  0.36009  0.34126  1.0000
  C   C136      1.0  0.89903  0.36242  0.32100  1.0000
  C   C137      1.0  0.90181  0.34043  0.30524  1.0000
  C   C138      1.0  0.87955  0.31552  0.31138  1.0000
  H   H55       1.0  0.91529  0.38054  0.32028  1.0000
  H   H56       1.0  0.88173  0.29955  0.30414  1.0000
  H   H57       1.0  0.83500  0.33250  0.36185  1.0000
  C   C139      1.0  0.83254  0.28686  0.33729  1.0000
  C   C140      1.0  0.92675  0.34314  0.29167  1.0000
  C   C141      1.0  0.87288  0.38271  0.36150  1.0000
  O   O73       1.0  0.93187  0.32553  0.33017  1.0000
  O   O74       1.0  0.81251  0.28403  0.38873  1.0000
  O   O75       1.0  0.89475  0.40413  0.39063  1.0000
  C   C142      1.0  0.55268  0.86199  0.32895  1.0000
  C   C143      1.0  0.52821  0.86003  0.34446  1.0000
  C   C144      1.0  0.52481  0.88199  0.34060  1.0000
  C   C145      1.0  0.54686  0.90635  0.32036  1.0000
  C   C146      1.0  0.57163  0.90911  0.30459  1.0000
  C   C147      1.0  0.57426  0.88684  0.31080  1.0000
  H   H58       1.0  0.54503  0.92262  0.31964  1.0000
  H   H59       1.0  0.59240  0.88901  0.30355  1.0000
  H   H60       1.0  0.51270  0.84232  0.36118  1.0000
  C   C148      1.0  0.55586  0.83982  0.33671  1.0000
  C   C149      1.0  0.59386  0.93405  0.29110  1.0000
  C   C150      1.0  0.50043  0.88025  0.36074  1.0000
  O   O76       1.0  0.61660  0.93918  0.32966  1.0000
  O   O77       1.0  0.53867  0.81981  0.38824  1.0000
  O   O78       1.0  0.50087  0.90213  0.38968  1.0000
  C   C151      1.0  0.30493  0.46049  0.32914  1.0000
  C   C152      1.0  0.32745  0.48499  0.34420  1.0000
  C   C153      1.0  0.35281  0.48842  0.33999  1.0000
  C   C154      1.0  0.35513  0.46636  0.31983  1.0000
  C   C155      1.0  0.33311  0.44157  0.30448  1.0000
  C   C156      1.0  0.30821  0.43892  0.31101  1.0000
  H   H61       1.0  0.37324  0.46821  0.31890  1.0000
  H   H62       1.0  0.29224  0.42077  0.30412  1.0000
  H   H63       1.0  0.32526  0.50051  0.36093  1.0000
  C   C157      1.0  0.27958  0.45728  0.33745  1.0000
  C   C158      1.0  0.33581  0.41932  0.29114  1.0000
  C   C159      1.0  0.37546  0.51282  0.35982  1.0000
  O   O79       1.0  0.31818  0.39659  0.32967  1.0000
  O   O80       1.0  0.27684  0.47455  0.38885  1.0000
  O   O81       1.0  0.39693  0.51243  0.38869  1.0000
  C   C160      1.0  0.15093  0.70819  0.32926  1.0000
  C   C161      1.0  0.15285  0.68565  0.34453  1.0000
  C   C162      1.0  0.13090  0.66030  0.34010  1.0000
  C   C163      1.0  0.10657  0.65803  0.31947  1.0000
  C   C164      1.0  0.10385  0.68006  0.30390  1.0000
  C   C165      1.0  0.12611  0.70495  0.31067  1.0000
  H   H64       1.0  0.09030  0.63992  0.31837  1.0000
  H   H65       1.0  0.12396  0.72093  0.30359  1.0000
  H   H66       1.0  0.17053  0.68782  0.36156  1.0000
  C   C166      1.0  0.17309  0.73353  0.33770  1.0000
  C   C167      1.0  0.07894  0.67741  0.29005  1.0000
  C   C168      1.0  0.13261  0.63764  0.36010  1.0000
  O   O82       1.0  0.07383  0.69505  0.32846  1.0000
  O   O83       1.0  0.19301  0.73624  0.38946  1.0000
  O   O84       1.0  0.11069  0.61618  0.38875  1.0000
  C   C169      1.0  0.19928  0.42967  0.40416  1.0000
  C   C170      1.0  0.22281  0.43011  0.38971  1.0000
  H   H67       1.0  0.23256  0.42847  0.44315  1.0000
  H   H68       1.0  0.19260  0.42827  0.46773  1.0000
  N   N43       1.0  0.16603  0.43744  0.35092  1.0000
  H   H69       1.0  0.15145  0.42371  0.38362  1.0000
  C   C171      1.0  0.58356  0.78708  0.40154  1.0000
  C   C172      1.0  0.58305  0.81014  0.38759  1.0000
  H   H70       1.0  0.58478  0.82152  0.44119  1.0000
  H   H71       1.0  0.58513  0.78180  0.46494  1.0000
  N   N44       1.0  0.57596  0.74617  0.34751  1.0000
  H   H72       1.0  0.58948  0.74536  0.38175  1.0000
  C   C173      1.0  0.22599  0.81382  0.40397  1.0000
  C   C174      1.0  0.20286  0.79033  0.38970  1.0000
  H   H73       1.0  0.19143  0.78067  0.44316  1.0000
  H   H74       1.0  0.23124  0.82061  0.46745  1.0000
  N   N45       1.0  0.26698  0.84707  0.35047  1.0000
  H   H75       1.0  0.26782  0.86163  0.38328  1.0000
  C   C175      1.0  0.80647  0.59075  0.40350  1.0000
  C   C176      1.0  0.78298  0.59038  0.38906  1.0000
  H   H76       1.0  0.77326  0.59209  0.44247  1.0000
  H   H77       1.0  0.81317  0.59220  0.46707  1.0000
  N   N46       1.0  0.83969  0.58293  0.35033  1.0000
  H   H78       1.0  0.85421  0.59659  0.38345  1.0000
  C   C177      1.0  0.42232  0.23329  0.40312  1.0000
  C   C178      1.0  0.42279  0.21021  0.38906  1.0000
  H   H79       1.0  0.42112  0.19886  0.44265  1.0000
  H   H80       1.0  0.42086  0.23860  0.46659  1.0000
  N   N47       1.0  0.42996  0.27422  0.34921  1.0000
  H   H81       1.0  0.41643  0.27509  0.38311  1.0000
  C   C179      1.0  0.77974  0.20641  0.40170  1.0000
  C   C180      1.0  0.80282  0.22998  0.38791  1.0000
  H   H82       1.0  0.81417  0.23960  0.44158  1.0000
  H   H83       1.0  0.77442  0.19953  0.46507  1.0000
  N   N48       1.0  0.73885  0.17313  0.34741  1.0000
  H   H84       1.0  0.73802  0.15879  0.38162  1.0000
  C   C181      1.0  0.15523  0.61350  0.36032  1.0000
  C   C182      1.0  0.15281  0.56459  0.37481  1.0000
  C   C183      1.0  0.15064  0.57711  0.45238  1.0000
  C   C184      1.0  0.15176  0.60160  0.44485  1.0000
  N   N49       1.0  0.14623  0.56571  0.53787  1.0000
  N   N50       1.0  0.14995  0.61528  0.51921  1.0000
  O   O85       1.0  0.12557  0.54406  0.54175  1.0000
  O   O86       1.0  0.12863  0.60259  0.55940  1.0000
  O   O87       1.0  0.16502  0.56331  0.56416  1.0000
  O   O88       1.0  0.16830  0.62136  0.57298  1.0000
  N   N51       1.0  0.14989  0.54018  0.37728  1.0000
  H   H85       1.0  0.16007  0.53703  0.42104  1.0000
  C   C185      1.0  0.39952  0.55961  0.35975  1.0000
  C   C186      1.0  0.44835  0.60615  0.37472  1.0000
  C   C187      1.0  0.43577  0.59146  0.45220  1.0000
  C   C188      1.0  0.41131  0.56806  0.44442  1.0000
  N   N52       1.0  0.44709  0.59846  0.53781  1.0000
  N   N53       1.0  0.39757  0.55255  0.51866  1.0000
  O   O89       1.0  0.46873  0.59943  0.54202  1.0000
  O   O90       1.0  0.41025  0.54396  0.55913  1.0000
  O   O91       1.0  0.44948  0.61966  0.56387  1.0000
  O   O92       1.0  0.39140  0.56478  0.57226  1.0000
  N   N54       1.0  0.47279  0.62760  0.37733  1.0000
  H   H86       1.0  0.47587  0.64102  0.42066  1.0000
  C   C189      1.0  0.45366  0.85761  0.36071  1.0000
  C   C190      1.0  0.40724  0.86015  0.37555  1.0000
  C   C191      1.0  0.42190  0.86220  0.45306  1.0000
  C   C192      1.0  0.44524  0.86102  0.44535  1.0000
  N   N55       1.0  0.41494  0.86658  0.53864  1.0000
  N   N56       1.0  0.46072  0.86274  0.51963  1.0000
  O   O93       1.0  0.41407  0.88730  0.54277  1.0000
  O   O94       1.0  0.46938  0.88402  0.56006  1.0000
  O   O95       1.0  0.39370  0.84783  0.56475  1.0000
  O   O96       1.0  0.44842  0.84435  0.57324  1.0000
  N   N57       1.0  0.38585  0.86323  0.37824  1.0000
  H   H87       1.0  0.37240  0.85289  0.42143  1.0000
  C   C193      1.0  0.85030  0.40683  0.36158  1.0000
  C   C194      1.0  0.85289  0.45582  0.37598  1.0000
  C   C195      1.0  0.85487  0.44322  0.45363  1.0000
  C   C196      1.0  0.85366  0.41868  0.44615  1.0000
  N   N58       1.0  0.85921  0.45459  0.53917  1.0000
  N   N59       1.0  0.85530  0.40493  0.52057  1.0000
  O   O97       1.0  0.87993  0.47617  0.54336  1.0000
  O   O98       1.0  0.87656  0.41753  0.56113  1.0000
  O   O99       1.0  0.84044  0.45709  0.56506  1.0000
  O   O100      1.0  0.83688  0.39888  0.57403  1.0000
  N   N60       1.0  0.85594  0.48029  0.37850  1.0000
  H   H88       1.0  0.84558  0.48338  0.42166  1.0000
  C   C197      1.0  0.60621  0.46082  0.35990  1.0000
  C   C198      1.0  0.55726  0.41441  0.37485  1.0000
  C   C199      1.0  0.56987  0.42908  0.45233  1.0000
  C   C200      1.0  0.59440  0.45242  0.44456  1.0000
  N   N61       1.0  0.55854  0.42213  0.53793  1.0000
  N   N62       1.0  0.60817  0.46791  0.51879  1.0000
  O   O101      1.0  0.53695  0.42124  0.54208  1.0000
  O   O102      1.0  0.59556  0.47659  0.55920  1.0000
  O   O103      1.0  0.55608  0.40090  0.56409  1.0000
  O   O104      1.0  0.61425  0.45562  0.57244  1.0000
  N   N63       1.0  0.53280  0.39298  0.37754  1.0000
  H   H89       1.0  0.52971  0.37958  0.42090  1.0000
  C   C201      1.0  0.55223  0.16288  0.35998  1.0000
  C   C202      1.0  0.59877  0.16057  0.37470  1.0000
  C   C203      1.0  0.58409  0.15844  0.45225  1.0000
  C   C204      1.0  0.56070  0.15951  0.44460  1.0000
  N   N64       1.0  0.59112  0.15411  0.53780  1.0000
  N   N65       1.0  0.54521  0.15773  0.51891  1.0000
  O   O105      1.0  0.59209  0.13345  0.54191  1.0000
  O   O106      1.0  0.53663  0.13646  0.55933  1.0000
  O   O107      1.0  0.61232  0.17292  0.56385  1.0000
  O   O108      1.0  0.55746  0.17614  0.57253  1.0000
  N   N66       1.0  0.62023  0.15760  0.37722  1.0000
  H   H90       1.0  0.63365  0.16789  0.42056  1.0000
  C   C205      1.0  0.00833  0.39177  0.36653  1.0000
  C   C206      1.0  0.98177  0.37629  0.34807  1.0000
  H   H91       1.0  0.96927  0.36862  0.40064  1.0000
  H   H92       1.0  0.01438  0.39446  0.43132  1.0000
  N   N67       1.0  0.05030  0.42440  0.32278  1.0000
  H   H93       1.0  0.05102  0.43808  0.36058  1.0000
  C   C207      1.0  0.62095  0.63333  0.36803  1.0000
  C   C208      1.0  0.63647  0.62238  0.34856  1.0000
  H   H94       1.0  0.64434  0.61757  0.40059  1.0000
  H   H95       1.0  0.61839  0.63665  0.43299  1.0000
  N   N68       1.0  0.58837  0.64294  0.32545  1.0000
  H   H96       1.0  0.57469  0.63002  0.36339  1.0000
  C   C209      1.0  0.37928  0.00489  0.36674  1.0000
  C   C210      1.0  0.39032  0.03142  0.34795  1.0000
  H   H97       1.0  0.39514  0.04399  0.40031  1.0000
  H   H98       1.0  0.37589  0.99889  0.43158  1.0000
  N   N69       1.0  0.36976  0.96283  0.32336  1.0000
  H   H99       1.0  0.38269  0.96212  0.36136  1.0000
  C   C211      1.0  0.99753  0.62870  0.36614  1.0000
  C   C212      1.0  0.02404  0.64422  0.34722  1.0000
  H   H100      1.0  0.03663  0.65192  0.39955  1.0000
  H   H101      1.0  0.99157  0.62602  0.43102  1.0000
  N   N70       1.0  0.95549  0.59604  0.32302  1.0000
  H   H102      1.0  0.95482  0.58239  0.36087  1.0000
  C   C213      1.0  0.38446  0.38649  0.36705  1.0000
  C   C214      1.0  0.36897  0.39754  0.34820  1.0000
  H   H103      1.0  0.36128  0.40241  0.40059  1.0000
  H   H104      1.0  0.38712  0.38318  0.43192  1.0000
  N   N71       1.0  0.41706  0.37704  0.32383  1.0000
  H   H105      1.0  0.43075  0.39002  0.36156  1.0000
  C   C215      1.0  0.62621  0.01537  0.36795  1.0000
  C   C216      1.0  0.61529  0.98887  0.34882  1.0000
  H   H106      1.0  0.61052  0.97625  0.40101  1.0000
  H   H107      1.0  0.62955  0.02132  0.43285  1.0000
  N   N72       1.0  0.63569  0.05747  0.32485  1.0000
  H   H108      1.0  0.62278  0.05823  0.36282  1.0000
