data_image0
_chemical_formula_structural       C3NC3NC5NC5NC36H26N4C3NC3NC5NC5NC36H26N4C3NC3NC5NC5NC36H26N4C3H3CHC3H3CHC3H3CHC3H3CHC3H3CHC3H3CHC16H16C16H16C16H16C3NC2NHCH2CHC3NC2NHCH2CHC3NC2NHCH2CHC3NC2NHCH2CHC3NC2NHCH2CHC3NC2NHCH2CH
_chemical_formula_sum              "C270 N36 H174"
_cell_length_a       67.7561
_cell_length_b       67.7562
_cell_length_c       14.9151
_cell_angle_alpha    89.8356
_cell_angle_beta     90.1644
_cell_angle_gamma    120

_space_group_name_H-M_alt    "P 1"
_space_group_IT_number       1

loop_
  _space_group_symop_operation_xyz
  'x, y, z'

loop_
  _atom_site_type_symbol
  _atom_site_label
  _atom_site_symmetry_multiplicity
  _atom_site_fract_x
  _atom_site_fract_y
  _atom_site_fract_z
  _atom_site_occupancy
  C   C1        1.0  0.04599  0.50614  0.31657  1.0000
  C   C2        1.0  0.02243  0.49428  0.31725  1.0000
  C   C3        1.0  0.01486  0.51004  0.31957  1.0000
  N   N1        1.0  0.03408  0.53080  0.32030  1.0000
  C   C4        1.0  0.05339  0.52944  0.31864  1.0000
  C   C5        1.0  0.07659  0.54721  0.31908  1.0000
  C   C6        1.0  0.08391  0.57087  0.32045  1.0000
  N   N2        1.0  0.07097  0.58092  0.31970  1.0000
  C   C7        1.0  0.08377  0.60392  0.32143  1.0000
  C   C8        1.0  0.10644  0.60894  0.32351  1.0000
  C   C9        1.0  0.10652  0.58863  0.32277  1.0000
  C   C10       1.0  0.07628  0.62013  0.32099  1.0000
  C   C11       1.0  0.05303  0.61451  0.31966  1.0000
  N   N3        1.0  0.03381  0.59376  0.32033  1.0000
  C   C12       1.0  0.01450  0.59512  0.31860  1.0000
  C   C13       1.0  0.02190  0.61841  0.31656  1.0000
  C   C14       1.0  0.04546  0.63027  0.31732  1.0000
  C   C15       1.0  0.99131  0.57735  0.31900  1.0000
  C   C16       1.0  0.98398  0.55369  0.32036  1.0000
  N   N4        1.0  0.99692  0.54364  0.31953  1.0000
  C   C17       1.0  0.98412  0.52064  0.32132  1.0000
  C   C18       1.0  0.96146  0.51562  0.32355  1.0000
  C   C19       1.0  0.96137  0.53594  0.32282  1.0000
  C   C20       1.0  0.99161  0.50442  0.32084  1.0000
  C   C21       1.0  0.97437  0.48091  0.32186  1.0000
  C   C22       1.0  0.93577  0.43569  0.32613  1.0000
  C   C23       1.0  0.94441  0.44746  0.24399  1.0000
  C   C24       1.0  0.96332  0.46972  0.24177  1.0000
  C   C25       1.0  0.91566  0.41355  0.32855  1.0000
  C   C26       1.0  0.91177  0.39666  0.26403  1.0000
  C   C27       1.0  0.89183  0.37509  0.26554  1.0000
  C   C28       1.0  0.87490  0.36964  0.33153  1.0000
  C   C29       1.0  0.97395  0.58345  0.31768  1.0000
  C   C30       1.0  0.93552  0.59030  0.31638  1.0000
  C   C31       1.0  0.94464  0.58724  0.23563  1.0000
  C   C32       1.0  0.96351  0.58382  0.23612  1.0000
  C   C33       1.0  0.91560  0.59265  0.31612  1.0000
  C   C34       1.0  0.87534  0.59669  0.31782  1.0000
  C   C35       1.0  0.87693  0.58088  0.26131  1.0000
  C   C36       1.0  0.89665  0.57888  0.26047  1.0000
  C   C37       1.0  0.09351  0.64364  0.32209  1.0000
  C   C38       1.0  0.10430  0.65501  0.24192  1.0000
  C   C39       1.0  0.12308  0.67734  0.24411  1.0000
  C   C40       1.0  0.13185  0.68901  0.32629  1.0000
  C   C41       1.0  0.15178  0.71127  0.32861  1.0000
  C   C42       1.0  0.19214  0.75549  0.33164  1.0000
  C   C43       1.0  0.17500  0.74993  0.26617  1.0000
  C   C44       1.0  0.15526  0.72822  0.26463  1.0000
  C   C45       1.0  0.09396  0.54113  0.31778  1.0000
  C   C46       1.0  0.10426  0.54072  0.23615  1.0000
  C   C47       1.0  0.13265  0.53468  0.31642  1.0000
  C   C48       1.0  0.12324  0.53750  0.23563  1.0000
  C   C49       1.0  0.15273  0.53264  0.31612  1.0000
  C   C50       1.0  0.17150  0.54651  0.25992  1.0000
  C   C51       1.0  0.19141  0.54483  0.26078  1.0000
  C   C52       1.0  0.19338  0.52927  0.31787  1.0000
  H   H1        1.0  0.20464  0.55531  0.21963  1.0000
  H   H2        1.0  0.17110  0.55844  0.21896  1.0000
  H   H3        1.0  0.13027  0.53741  0.17512  1.0000
  H   H4        1.0  0.09837  0.54338  0.17665  1.0000
  H   H5        1.0  0.05591  0.49871  0.31496  1.0000
  H   H6        1.0  0.01262  0.47692  0.31601  1.0000
  H   H7        1.0  0.03402  0.54492  0.32287  1.0000
  H   H8        1.0  0.03387  0.57963  0.32291  1.0000
  H   H9        1.0  0.12092  0.58734  0.32414  1.0000
  H   H10       1.0  0.12076  0.62467  0.32535  1.0000
  H   H11       1.0  0.09902  0.64682  0.18160  1.0000
  H   H12       1.0  0.13096  0.68462  0.18485  1.0000
  H   H13       1.0  0.05527  0.64764  0.31612  1.0000
  H   H14       1.0  0.01199  0.62585  0.31490  1.0000
  H   H15       1.0  0.94714  0.49989  0.32556  1.0000
  H   H16       1.0  0.94698  0.53723  0.32437  1.0000
  H   H17       1.0  0.96922  0.58105  0.17665  1.0000
  H   H18       1.0  0.93752  0.58733  0.17516  1.0000
  H   H19       1.0  0.89677  0.56678  0.21996  1.0000
  H   H20       1.0  0.86355  0.57047  0.22055  1.0000
  H   H21       1.0  0.96847  0.47802  0.18152  1.0000
  H   H22       1.0  0.93633  0.44036  0.18483  1.0000
  H   H23       1.0  0.88994  0.36335  0.21842  1.0000
  H   H24       1.0  0.92370  0.39975  0.21583  1.0000
  H   H25       1.0  0.14316  0.72506  0.21689  1.0000
  H   H26       1.0  0.17659  0.76171  0.21950  1.0000
  N   N5        1.0  0.85573  0.34953  0.33844  1.0000
  N   N6        1.0  0.21290  0.52885  0.31470  1.0000
  N   N7        1.0  0.21114  0.77575  0.33856  1.0000
  N   N8        1.0  0.85600  0.59745  0.31460  1.0000
  C   C53       1.0  0.59148  0.63326  0.31879  1.0000
  C   C54       1.0  0.60334  0.62156  0.31942  1.0000
  C   C55       1.0  0.58758  0.59823  0.32159  1.0000
  N   N9        1.0  0.56683  0.59669  0.32234  1.0000
  C   C56       1.0  0.56818  0.61736  0.32072  1.0000
  C   C57       1.0  0.55042  0.62279  0.32110  1.0000
  C   C58       1.0  0.52675  0.60645  0.32240  1.0000
  N   N10       1.0  0.51670  0.58346  0.32169  1.0000
  C   C59       1.0  0.49370  0.57327  0.32332  1.0000
  C   C60       1.0  0.48868  0.59091  0.32529  1.0000
  C   C61       1.0  0.50900  0.61131  0.32460  1.0000
  C   C62       1.0  0.47749  0.54957  0.32287  1.0000
  C   C63       1.0  0.48311  0.53193  0.32163  1.0000
  N   N11       1.0  0.50386  0.53347  0.32232  1.0000
  C   C64       1.0  0.50250  0.51280  0.32064  1.0000
  C   C65       1.0  0.47920  0.49690  0.31864  1.0000
  C   C66       1.0  0.46734  0.50860  0.31937  1.0000
  C   C67       1.0  0.52026  0.50736  0.32104  1.0000
  C   C68       1.0  0.54393  0.52370  0.32234  1.0000
  N   N12       1.0  0.55398  0.54669  0.32153  1.0000
  C   C69       1.0  0.57698  0.55688  0.32319  1.0000
  C   C70       1.0  0.58199  0.53923  0.32533  1.0000
  C   C71       1.0  0.56168  0.51884  0.32468  1.0000
  C   C72       1.0  0.59319  0.58059  0.32271  1.0000
  C   C73       1.0  0.61670  0.58685  0.32359  1.0000
  C   C74       1.0  0.66192  0.59347  0.32751  1.0000
  C   C75       1.0  0.65012  0.59047  0.24546  1.0000
  C   C76       1.0  0.62788  0.58715  0.24338  1.0000
  C   C77       1.0  0.68406  0.59550  0.32973  1.0000
  C   C78       1.0  0.70094  0.60862  0.26519  1.0000
  C   C79       1.0  0.72251  0.61024  0.26649  1.0000
  C   C80       1.0  0.72798  0.59865  0.33229  1.0000
  C   C81       1.0  0.51416  0.48391  0.31976  1.0000
  C   C82       1.0  0.50730  0.43862  0.31852  1.0000
  C   C83       1.0  0.51035  0.45090  0.23774  1.0000
  C   C84       1.0  0.51376  0.47318  0.23821  1.0000
  C   C85       1.0  0.50496  0.41637  0.31829  1.0000
  C   C86       1.0  0.50092  0.37206  0.31998  1.0000
  C   C87       1.0  0.51672  0.38952  0.26342  1.0000
  C   C88       1.0  0.51873  0.41125  0.26263  1.0000
  C   C89       1.0  0.45398  0.54329  0.32384  1.0000
  C   C90       1.0  0.44262  0.54275  0.24356  1.0000
  C   C91       1.0  0.42030  0.53923  0.24560  1.0000
  C   C92       1.0  0.40861  0.53624  0.32768  1.0000
  C   C93       1.0  0.38634  0.53390  0.32981  1.0000
  C   C94       1.0  0.34212  0.53005  0.33231  1.0000
  C   C95       1.0  0.34770  0.51850  0.26711  1.0000
  C   C96       1.0  0.36941  0.52047  0.26585  1.0000
  C   C97       1.0  0.55650  0.64625  0.31984  1.0000
  C   C98       1.0  0.55693  0.65707  0.23821  1.0000
  C   C99       1.0  0.56294  0.69138  0.31854  1.0000
  C   C100      1.0  0.56014  0.67928  0.23773  1.0000
  C   C101      1.0  0.56498  0.71351  0.31826  1.0000
  C   C102      1.0  0.55112  0.71848  0.26203  1.0000
  C   C103      1.0  0.55279  0.74006  0.26289  1.0000
  C   C104      1.0  0.56834  0.75752  0.32004  1.0000
  H   H27       1.0  0.54232  0.74287  0.22171  1.0000
  H   H28       1.0  0.53920  0.70620  0.22102  1.0000
  H   H29       1.0  0.56024  0.68648  0.17722  1.0000
  H   H30       1.0  0.55428  0.64861  0.17870  1.0000
  H   H31       1.0  0.59892  0.65061  0.31721  1.0000
  H   H32       1.0  0.62071  0.62912  0.31816  1.0000
  H   H33       1.0  0.55269  0.58250  0.32458  1.0000
  H   H34       1.0  0.51799  0.54766  0.32483  1.0000
  H   H35       1.0  0.51029  0.62699  0.32592  1.0000
  H   H36       1.0  0.47295  0.58950  0.32704  1.0000
  H   H37       1.0  0.45083  0.54570  0.18328  1.0000
  H   H38       1.0  0.41302  0.53983  0.18623  1.0000
  H   H39       1.0  0.44997  0.50105  0.31814  1.0000
  H   H40       1.0  0.47176  0.47955  0.31702  1.0000
  H   H41       1.0  0.59772  0.54064  0.32720  1.0000
  H   H42       1.0  0.56038  0.50315  0.32613  1.0000
  H   H43       1.0  0.51653  0.48174  0.17872  1.0000
  H   H44       1.0  0.51025  0.44376  0.17728  1.0000
  H   H45       1.0  0.53082  0.42351  0.22203  1.0000
  H   H46       1.0  0.52712  0.38661  0.22263  1.0000
  H   H47       1.0  0.61956  0.58411  0.18319  1.0000
  H   H48       1.0  0.65724  0.58964  0.18619  1.0000
  H   H49       1.0  0.73423  0.62017  0.21937  1.0000
  H   H50       1.0  0.69784  0.61755  0.21716  1.0000
  H   H51       1.0  0.37258  0.51157  0.21825  1.0000
  H   H52       1.0  0.33593  0.50835  0.22046  1.0000
  N   N13       1.0  0.74808  0.59956  0.33894  1.0000
  N   N14       1.0  0.56877  0.77746  0.31686  1.0000
  N   N15       1.0  0.32186  0.52878  0.33901  1.0000
  N   N16       1.0  0.50016  0.35196  0.31675  1.0000
  C   C105      1.0  0.46436  0.05162  0.31977  1.0000
  C   C106      1.0  0.47606  0.07518  0.32051  1.0000
  C   C107      1.0  0.49939  0.08275  0.32282  1.0000
  N   N17       1.0  0.50093  0.06354  0.32352  1.0000
  C   C108      1.0  0.48026  0.04423  0.32178  1.0000
  C   C109      1.0  0.47483  0.02103  0.32213  1.0000
  C   C110      1.0  0.49118  0.01371  0.32355  1.0000
  N   N18       1.0  0.51417  0.02665  0.32291  1.0000
  C   C111      1.0  0.52436  0.01385  0.32466  1.0000
  C   C112      1.0  0.50672  0.99118  0.32666  1.0000
  C   C113      1.0  0.48632  0.99109  0.32581  1.0000
  C   C114      1.0  0.54807  0.02135  0.32427  1.0000
  C   C115      1.0  0.56570  0.04460  0.32289  1.0000
  N   N19       1.0  0.56416  0.06381  0.32352  1.0000
  C   C116      1.0  0.58482  0.08312  0.32172  1.0000
  C   C117      1.0  0.60072  0.07573  0.31968  1.0000
  C   C118      1.0  0.58903  0.05216  0.32053  1.0000
  C   C119      1.0  0.59025  0.10632  0.32204  1.0000
  C   C120      1.0  0.57392  0.11364  0.32345  1.0000
  N   N20       1.0  0.55092  0.10070  0.32273  1.0000
  C   C121      1.0  0.54073  0.11350  0.32450  1.0000
  C   C122      1.0  0.55838  0.13616  0.32663  1.0000
  C   C123      1.0  0.57878  0.13625  0.32583  1.0000
  C   C124      1.0  0.51702  0.10601  0.32407  1.0000
  C   C125      1.0  0.51076  0.12325  0.32503  1.0000
  C   C126      1.0  0.50413  0.16184  0.32918  1.0000
  C   C127      1.0  0.50711  0.15316  0.24706  1.0000
  C   C128      1.0  0.51044  0.13423  0.24489  1.0000
  C   C129      1.0  0.50211  0.18195  0.33150  1.0000
  C   C130      1.0  0.48896  0.18579  0.26707  1.0000
  C   C131      1.0  0.48735  0.20574  0.26846  1.0000
  C   C132      1.0  0.49897  0.22272  0.33420  1.0000
  C   C133      1.0  0.61371  0.12368  0.32051  1.0000
  C   C134      1.0  0.65899  0.16210  0.31866  1.0000
  C   C135      1.0  0.64665  0.15293  0.23804  1.0000
  C   C136      1.0  0.62437  0.13406  0.23880  1.0000
  C   C137      1.0  0.68125  0.18201  0.31812  1.0000
  C   C138      1.0  0.72556  0.22227  0.31918  1.0000
  C   C139      1.0  0.70805  0.22065  0.26283  1.0000
  C   C140      1.0  0.68633  0.20093  0.26232  1.0000
  C   C141      1.0  0.55435  0.00411  0.32536  1.0000
  C   C142      1.0  0.55491  0.99339  0.24513  1.0000
  C   C143      1.0  0.55843  0.97459  0.24725  1.0000
  C   C144      1.0  0.56139  0.96578  0.32938  1.0000
  C   C145      1.0  0.56372  0.94584  0.33160  1.0000
  C   C146      1.0  0.56758  0.90548  0.33429  1.0000
  C   C147      1.0  0.57913  0.92266  0.26905  1.0000
  C   C148      1.0  0.57716  0.94241  0.26767  1.0000
  C   C149      1.0  0.45138  0.00366  0.32061  1.0000
  C   C150      1.0  0.44063  0.99340  0.23885  1.0000
  C   C151      1.0  0.40625  0.96496  0.31871  1.0000
  C   C152      1.0  0.41843  0.97440  0.23806  1.0000
  C   C153      1.0  0.38412  0.94487  0.31813  1.0000
  C   C154      1.0  0.37920  0.92613  0.26184  1.0000
  C   C155      1.0  0.35762  0.90622  0.26242  1.0000
  C   C156      1.0  0.34011  0.90422  0.31929  1.0000
  H   H53       1.0  0.35485  0.89302  0.22118  1.0000
  H   H54       1.0  0.39152  0.92655  0.22103  1.0000
  H   H55       1.0  0.41128  0.96740  0.17747  1.0000
  H   H56       1.0  0.44914  0.99931  0.17945  1.0000
  H   H57       1.0  0.44701  0.04171  0.31811  1.0000
  H   H58       1.0  0.46850  0.08499  0.31928  1.0000
  H   H59       1.0  0.51512  0.06360  0.32597  1.0000
  H   H60       1.0  0.54997  0.06375  0.32611  1.0000
  H   H61       1.0  0.47064  0.97670  0.32717  1.0000
  H   H62       1.0  0.50814  0.97686  0.32850  1.0000
  H   H63       1.0  0.55193  0.99869  0.18483  1.0000
  H   H64       1.0  0.55779  0.96675  0.18792  1.0000
  H   H65       1.0  0.59659  0.04236  0.31937  1.0000
  H   H66       1.0  0.61808  0.08564  0.31800  1.0000
  H   H67       1.0  0.55697  0.15048  0.32856  1.0000
  H   H68       1.0  0.59446  0.15064  0.32727  1.0000
  H   H69       1.0  0.61577  0.12831  0.17942  1.0000
  H   H70       1.0  0.65375  0.16001  0.17748  1.0000
  H   H71       1.0  0.67403  0.20079  0.22191  1.0000
  H   H72       1.0  0.71094  0.23400  0.22198  1.0000
  H   H73       1.0  0.51346  0.12904  0.18464  1.0000
  H   H74       1.0  0.50793  0.16118  0.18782  1.0000
  H   H75       1.0  0.47740  0.20759  0.22141  1.0000
  H   H76       1.0  0.48002  0.17383  0.21907  1.0000
  H   H77       1.0  0.58607  0.95454  0.22009  1.0000
  H   H78       1.0  0.58928  0.92111  0.22243  1.0000
  N   N21       1.0  0.49807  0.24191  0.34093  1.0000
  N   N22       1.0  0.32017  0.88471  0.31583  1.0000
  N   N23       1.0  0.56884  0.88647  0.34104  1.0000
  N   N24       1.0  0.74566  0.24160  0.31565  1.0000
  C   C157      1.0  0.28492  0.52226  0.30843  1.0000
  C   C158      1.0  0.27288  0.52648  0.24040  1.0000
  C   C159      1.0  0.25209  0.52569  0.25805  1.0000
  H   H79       1.0  0.24389  0.52840  0.20582  1.0000
  H   H80       1.0  0.27904  0.52996  0.17618  1.0000
  H   H81       1.0  0.29371  0.51477  0.00818  1.0000
  C   C160      1.0  0.30474  0.52197  0.28545  1.0000
  H   H82       1.0  0.30576  0.51670  0.22438  1.0000
  C   C161      1.0  0.57535  0.85608  0.31052  1.0000
  C   C162      1.0  0.57111  0.83989  0.24254  1.0000
  C   C163      1.0  0.57191  0.81988  0.26022  1.0000
  H   H83       1.0  0.56919  0.80903  0.20801  1.0000
  H   H84       1.0  0.56764  0.84265  0.17831  1.0000
  H   H85       1.0  0.58288  0.87237  0.01024  1.0000
  C   C164      1.0  0.57564  0.87622  0.28751  1.0000
  H   H86       1.0  0.58091  0.88258  0.22643  1.0000
  C   C165      1.0  0.24154  0.81270  0.30839  1.0000
  C   C166      1.0  0.25778  0.82477  0.24060  1.0000
  C   C167      1.0  0.27778  0.84555  0.25854  1.0000
  H   H87       1.0  0.28867  0.85378  0.20645  1.0000
  H   H88       1.0  0.25507  0.81865  0.17632  1.0000
  H   H89       1.0  0.22498  0.80373  0.00794  1.0000
  C   C168      1.0  0.22142  0.79289  0.28514  1.0000
  H   H90       1.0  0.21509  0.79190  0.22401  1.0000
  C   C169      1.0  0.78475  0.60542  0.30824  1.0000
  C   C170      1.0  0.79654  0.60098  0.24023  1.0000
  C   C171      1.0  0.81717  0.60140  0.25785  1.0000
  H   H91       1.0  0.82520  0.59856  0.20562  1.0000
  H   H92       1.0  0.79032  0.59764  0.17600  1.0000
  H   H93       1.0  0.77624  0.61314  0.00801  1.0000
  C   C172      1.0  0.76509  0.60608  0.28525  1.0000
  H   H94       1.0  0.76408  0.61139  0.22408  1.0000
  C   C173      1.0  0.49220  0.27276  0.31032  1.0000
  C   C174      1.0  0.49663  0.28907  0.24232  1.0000
  C   C175      1.0  0.49622  0.30926  0.25998  1.0000
  H   H95       1.0  0.49904  0.32019  0.20775  1.0000
  H   H96       1.0  0.49996  0.28627  0.17808  1.0000
  H   H97       1.0  0.48454  0.25649  0.01010  1.0000
  C   C176      1.0  0.49154  0.25246  0.28730  1.0000
  H   H98       1.0  0.48622  0.24623  0.22613  1.0000
  C   C177      1.0  0.82487  0.31283  0.30816  1.0000
  C   C178      1.0  0.80850  0.30101  0.24037  1.0000
  C   C179      1.0  0.78833  0.28039  0.25829  1.0000
  H   H99       1.0  0.77735  0.27232  0.20623  1.0000
  H   H100      1.0  0.81125  0.30718  0.17609  1.0000
  H   H101      1.0  0.84139  0.32163  0.00777  1.0000
  C   C180      1.0  0.84514  0.33250  0.28491  1.0000
  H   H102      1.0  0.85132  0.33349  0.22363  1.0000
  C   C181      1.0  0.96622  0.46922  0.40397  1.0000
  C   C182      1.0  0.94729  0.44697  0.40588  1.0000
  C   C183      1.0  0.87876  0.38627  0.39656  1.0000
  C   C184      1.0  0.89869  0.40783  0.39490  1.0000
  C   C185      1.0  0.96525  0.58683  0.39852  1.0000
  C   C186      1.0  0.94640  0.59028  0.39770  1.0000
  C   C187      1.0  0.91397  0.60858  0.37239  1.0000
  C   C188      1.0  0.89427  0.61062  0.37315  1.0000
  C   C189      1.0  0.12059  0.67753  0.40614  1.0000
  C   C190      1.0  0.10179  0.65521  0.40427  1.0000
  C   C191      1.0  0.16896  0.71708  0.39439  1.0000
  C   C192      1.0  0.18869  0.73880  0.39609  1.0000
  C   C193      1.0  0.10292  0.53797  0.39866  1.0000
  C   C194      1.0  0.12188  0.53470  0.39781  1.0000
  C   C195      1.0  0.17465  0.51524  0.37377  1.0000
  C   C196      1.0  0.15476  0.51696  0.37300  1.0000
  H   H103      1.0  0.17520  0.50356  0.41555  1.0000
  H   H104      1.0  0.14155  0.50629  0.41376  1.0000
  H   H105      1.0  0.12839  0.53335  0.45801  1.0000
  H   H106      1.0  0.09618  0.53881  0.45890  1.0000
  H   H107      1.0  0.09456  0.64723  0.46352  1.0000
  H   H108      1.0  0.12610  0.68528  0.46708  1.0000
  H   H109      1.0  0.97210  0.58603  0.45875  1.0000
  H   H110      1.0  0.94009  0.59181  0.45789  1.0000
  H   H111      1.0  0.89400  0.62248  0.41445  1.0000
  H   H112      1.0  0.92733  0.61918  0.41274  1.0000
  H   H113      1.0  0.90041  0.41954  0.44201  1.0000
  H   H114      1.0  0.86690  0.38288  0.44548  1.0000
  H   H115      1.0  0.94188  0.43914  0.46680  1.0000
  H   H116      1.0  0.97362  0.47707  0.46319  1.0000
  H   H117      1.0  0.16753  0.70535  0.44111  1.0000
  H   H118      1.0  0.20071  0.74226  0.44461  1.0000
  C   C197      1.0  0.62841  0.59026  0.40564  1.0000
  C   C198      1.0  0.65066  0.59358  0.40737  1.0000
  C   C199      1.0  0.71136  0.58577  0.39733  1.0000
  C   C200      1.0  0.68979  0.58412  0.39584  1.0000
  C   C201      1.0  0.51082  0.47175  0.40062  1.0000
  C   C202      1.0  0.50735  0.44944  0.39983  1.0000
  C   C203      1.0  0.48904  0.39873  0.37459  1.0000
  C   C204      1.0  0.48700  0.37699  0.37534  1.0000
  C   C205      1.0  0.42007  0.53642  0.40765  1.0000
  C   C206      1.0  0.44240  0.53994  0.40595  1.0000
  C   C207      1.0  0.38050  0.54523  0.39536  1.0000
  C   C208      1.0  0.35879  0.54324  0.39680  1.0000
  C   C209      1.0  0.55964  0.65825  0.40073  1.0000
  C   C210      1.0  0.56291  0.68049  0.39991  1.0000
  C   C211      1.0  0.58236  0.75274  0.37597  1.0000
  C   C212      1.0  0.58065  0.73114  0.37520  1.0000
  H   H119      1.0  0.59403  0.76492  0.41779  1.0000
  H   H120      1.0  0.59131  0.72854  0.41598  1.0000
  H   H121      1.0  0.56423  0.68826  0.46012  1.0000
  H   H122      1.0  0.55878  0.65059  0.46098  1.0000
  H   H123      1.0  0.45036  0.54065  0.46527  1.0000
  H   H124      1.0  0.41231  0.53413  0.46855  1.0000
  H   H125      1.0  0.51161  0.47932  0.46084  1.0000
  H   H126      1.0  0.50582  0.44153  0.46002  1.0000
  H   H127      1.0  0.47515  0.36481  0.41667  1.0000
  H   H128      1.0  0.47844  0.40144  0.41495  1.0000
  H   H129      1.0  0.67811  0.57407  0.44298  1.0000
  H   H130      1.0  0.71476  0.57721  0.44609  1.0000
  H   H131      1.0  0.65851  0.59590  0.46824  1.0000
  H   H132      1.0  0.62057  0.58969  0.46493  1.0000
  H   H133      1.0  0.39222  0.55550  0.44204  1.0000
  H   H134      1.0  0.35532  0.55177  0.44514  1.0000
  C   C213      1.0  0.50737  0.13144  0.40714  1.0000
  C   C214      1.0  0.50406  0.15037  0.40899  1.0000
  C   C215      1.0  0.51187  0.21890  0.39915  1.0000
  C   C216      1.0  0.51350  0.19898  0.39761  1.0000
  C   C217      1.0  0.62593  0.13242  0.40121  1.0000
  C   C218      1.0  0.64824  0.15126  0.40013  1.0000
  C   C219      1.0  0.69893  0.18368  0.37423  1.0000
  C   C220      1.0  0.72068  0.20337  0.37466  1.0000
  C   C221      1.0  0.56120  0.97698  0.40930  1.0000
  C   C222      1.0  0.55768  0.99578  0.40752  1.0000
  C   C223      1.0  0.55240  0.92862  0.39718  1.0000
  C   C224      1.0  0.55438  0.90888  0.39872  1.0000
  C   C225      1.0  0.43931  0.99464  0.40135  1.0000
  C   C226      1.0  0.41707  0.97569  0.40023  1.0000
  C   C227      1.0  0.34484  0.92293  0.37528  1.0000
  C   C228      1.0  0.36644  0.94281  0.37479  1.0000
  H   H135      1.0  0.33262  0.92235  0.41691  1.0000
  H   H136      1.0  0.36901  0.95600  0.41563  1.0000
  H   H137      1.0  0.40925  0.96914  0.46033  1.0000
  H   H138      1.0  0.44691  0.00136  0.46169  1.0000
  H   H139      1.0  0.55697  0.00297  0.46680  1.0000
  H   H140      1.0  0.56349  0.97144  0.47024  1.0000
  H   H141      1.0  0.61840  0.12560  0.46153  1.0000
  H   H142      1.0  0.65620  0.15761  0.46022  1.0000
  H   H143      1.0  0.73289  0.20366  0.41583  1.0000
  H   H144      1.0  0.69625  0.17034  0.41465  1.0000
  H   H145      1.0  0.52358  0.19729  0.44464  1.0000
  H   H146      1.0  0.52045  0.23081  0.44788  1.0000
  H   H147      1.0  0.50177  0.15583  0.46990  1.0000
  H   H148      1.0  0.50798  0.12410  0.46640  1.0000
  H   H149      1.0  0.54212  0.93001  0.44383  1.0000
  H   H150      1.0  0.54585  0.89683  0.44706  1.0000
  C   C229      1.0  0.24225  0.52050  0.34464  1.0000
  C   C230      1.0  0.25424  0.51634  0.41359  1.0000
  C   C231      1.0  0.27531  0.51717  0.39575  1.0000
  N   N25       1.0  0.28550  0.51244  0.46483  1.0000
  C   C232      1.0  0.27710  0.50729  0.54954  1.0000
  C   C233      1.0  0.25642  0.50674  0.56682  1.0000
  N   N26       1.0  0.24593  0.51118  0.49875  1.0000
  H   H151      1.0  0.24919  0.50295  0.62908  1.0000
  C   C234      1.0  0.28939  0.50245  0.62012  1.0000
  H   H152      1.0  0.30503  0.50375  0.59398  1.0000
  H   H153      1.0  0.27860  0.48525  0.64613  1.0000
  C   C235      1.0  0.22087  0.51822  0.36041  1.0000
  H   H154      1.0  0.21146  0.50798  0.40969  1.0000
  C   C236      1.0  0.57711  0.81513  0.34680  1.0000
  C   C237      1.0  0.58128  0.83120  0.41573  1.0000
  C   C238      1.0  0.58044  0.85146  0.39786  1.0000
  N   N27       1.0  0.58518  0.86630  0.46691  1.0000
  C   C239      1.0  0.59034  0.86296  0.55162  1.0000
  C   C240      1.0  0.59089  0.84281  0.56893  1.0000
  N   N28       1.0  0.58645  0.82796  0.50089  1.0000
  H   H155      1.0  0.59469  0.83929  0.63119  1.0000
  C   C241      1.0  0.59519  0.88000  0.62216  1.0000
  H   H156      1.0  0.59390  0.89438  0.59599  1.0000
  H   H157      1.0  0.61240  0.88639  0.64815  1.0000
  C   C242      1.0  0.57938  0.79600  0.36261  1.0000
  H   H158      1.0  0.58961  0.79677  0.41194  1.0000
  C   C243      1.0  0.28247  0.85535  0.34519  1.0000
  C   C244      1.0  0.26634  0.84332  0.41392  1.0000
  C   C245      1.0  0.24610  0.82226  0.39579  1.0000
  N   N29       1.0  0.23121  0.81204  0.46467  1.0000
  C   C246      1.0  0.23449  0.82040  0.54944  1.0000
  C   C247      1.0  0.25462  0.84107  0.56700  1.0000
  N   N30       1.0  0.26953  0.85160  0.49913  1.0000
  H   H159      1.0  0.25810  0.84828  0.62931  1.0000
  C   C248      1.0  0.21740  0.80809  0.61978  1.0000
  H   H160      1.0  0.20304  0.79246  0.59343  1.0000
  H   H161      1.0  0.21098  0.81886  0.64571  1.0000
  C   C249      1.0  0.30158  0.87672  0.36122  1.0000
  H   H162      1.0  0.30075  0.88612  0.41045  1.0000
  C   C250      1.0  0.82709  0.60639  0.34442  1.0000
  C   C251      1.0  0.81535  0.61075  0.41337  1.0000
  C   C252      1.0  0.79444  0.61031  0.39556  1.0000
  N   N31       1.0  0.78449  0.61521  0.46465  1.0000
  C   C253      1.0  0.79299  0.62019  0.54935  1.0000
  C   C254      1.0  0.81351  0.62037  0.56659  1.0000
  N   N32       1.0  0.82376  0.61575  0.49852  1.0000
  H   H163      1.0  0.82080  0.62401  0.62885  1.0000
  C   C255      1.0  0.78098  0.62524  0.61994  1.0000
  H   H164      1.0  0.76543  0.62424  0.59381  1.0000
  H   H165      1.0  0.79200  0.64239  0.64592  1.0000
  C   C256      1.0  0.84834  0.60831  0.36014  1.0000
  H   H166      1.0  0.85791  0.61849  0.40927  1.0000
  C   C257      1.0  0.49123  0.31408  0.34657  1.0000
  C   C258      1.0  0.48688  0.29789  0.41551  1.0000
  C   C259      1.0  0.48732  0.27745  0.39766  1.0000
  N   N33       1.0  0.48243  0.26251  0.46675  1.0000
  C   C260      1.0  0.47746  0.26592  0.55147  1.0000
  C   C261      1.0  0.47729  0.28624  0.56875  1.0000
  N   N34       1.0  0.48190  0.30120  0.50067  1.0000
  H   H167      1.0  0.47366  0.28982  0.63101  1.0000
  C   C262      1.0  0.47243  0.24877  0.62205  1.0000
  H   H168      1.0  0.47342  0.23426  0.59590  1.0000
  H   H169      1.0  0.45528  0.24261  0.64808  1.0000
  C   C263      1.0  0.48931  0.33339  0.36232  1.0000
  H   H170      1.0  0.47916  0.33273  0.41152  1.0000
  C   C264      1.0  0.78358  0.27053  0.34497  1.0000
  C   C265      1.0  0.79981  0.28232  0.41372  1.0000
  C   C266      1.0  0.82024  0.30321  0.39560  1.0000
  N   N35       1.0  0.83522  0.31321  0.46452  1.0000
  C   C267      1.0  0.83187  0.30478  0.54931  1.0000
  C   C268      1.0  0.81156  0.28428  0.56686  1.0000
  N   N36       1.0  0.79656  0.27397  0.49897  1.0000
  H   H171      1.0  0.80802  0.27703  0.62920  1.0000
  C   C269      1.0  0.84907  0.31685  0.61969  1.0000
  H   H172      1.0  0.86356  0.33238  0.59334  1.0000
  H   H173      1.0  0.85525  0.30585  0.64574  1.0000
  C   C270      1.0  0.76427  0.24929  0.36102  1.0000
  H   H174      1.0  0.76497  0.23977  0.41026  1.0000
