data_image0
_chemical_formula_structural       C3NCH3C3NCH3C3NCH3C3NCH3CNHCNHCNHCNHCNHCNHCNHCNHC3NCH3C3NCH3C3NCH3C3NCH3C3NCH3C3NCH3C3NCH3C3NCH3CNHCNHCNHCNHCNHCNHCNHCNHCNHCNHCNCNCNCNCNCNCNCNCNCNCNCNCNCNCNCNCNCNCNCNCNCNCNCNCNCNCNCNCNCNCNCNCNCNCNCNCNCNCNCNCNCNCNCNCNCNCNCNCNCNCNCNCNCNCNCNCNCNCNCNCNHCNHCNHCNHC3NCH3C3NCH3C3NCH3C3NCH3C3NCH3C3NCH3C3NCH3C3NCH3CNHCNHCNHCNHCNHCNHCNHCNHC3NCH3C3NCH3C3NCH3C3NCH3C3NCH3C3NCH3C3NCH3C3NCH3C3NCH3C3NCH3
_chemical_formula_sum              "C210 N120 H120"
_cell_length_a       43.524
_cell_length_b       43.524
_cell_length_c       14.8952
_cell_angle_alpha    90
_cell_angle_beta     90
_cell_angle_gamma    90

_space_group_name_H-M_alt    "P 1"
_space_group_IT_number       1

loop_
  _space_group_symop_operation_xyz
  'x, y, z'

loop_
  _atom_site_type_symbol
  _atom_site_label
  _atom_site_symmetry_multiplicity
  _atom_site_fract_x
  _atom_site_fract_y
  _atom_site_fract_z
  _atom_site_occupancy
  C   C1        1.0  0.36225  0.02628  0.29679  1.0000
  C   C2        1.0  0.37353  0.05465  0.33173  1.0000
  C   C3        1.0  0.31130  0.03973  0.34074  1.0000
  N   N1        1.0  0.33175  0.02005  0.30355  1.0000
  C   C4        1.0  0.37988  0.00303  0.24552  1.0000
  H   H1        1.0  0.40276  0.01075  0.22664  1.0000
  H   H2        1.0  0.36778  0.99762  0.18327  1.0000
  H   H3        1.0  0.38182  0.98204  0.28511  1.0000
  C   C5        1.0  0.64382  0.98491  0.32143  1.0000
  C   C6        1.0  0.63307  0.95434  0.33734  1.0000
  C   C7        1.0  0.69587  0.96806  0.33202  1.0000
  N   N2        1.0  0.67456  0.99030  0.31992  1.0000
  C   C8        1.0  0.62435  0.01223  0.30435  1.0000
  H   H4        1.0  0.60912  0.00788  0.24754  1.0000
  H   H5        1.0  0.63810  0.03251  0.28832  1.0000
  H   H6        1.0  0.61074  0.01761  0.36380  1.0000
  C   C9        1.0  0.98126  0.36263  0.29687  1.0000
  C   C10       1.0  0.95289  0.37390  0.33185  1.0000
  C   C11       1.0  0.96784  0.31167  0.34073  1.0000
  N   N3        1.0  0.98750  0.33214  0.30357  1.0000
  C   C12       1.0  0.00449  0.38028  0.24560  1.0000
  H   H7        1.0  0.99676  0.40315  0.22672  1.0000
  H   H8        1.0  0.00992  0.36819  0.18334  1.0000
  H   H9        1.0  0.02548  0.38224  0.28519  1.0000
  C   C13       1.0  0.02262  0.64420  0.32129  1.0000
  C   C14       1.0  0.05319  0.63344  0.33720  1.0000
  C   C15       1.0  0.03950  0.69624  0.33182  1.0000
  N   N4        1.0  0.01724  0.67494  0.31974  1.0000
  C   C16       1.0  0.99529  0.62473  0.30420  1.0000
  H   H10       1.0  0.99964  0.60950  0.24740  1.0000
  H   H11       1.0  0.97502  0.63850  0.28813  1.0000
  H   H12       1.0  0.98990  0.61114  0.36364  1.0000
  C   C17       1.0  0.15533  0.57778  0.34735  1.0000
  N   N5        1.0  0.18554  0.57075  0.34571  1.0000
  H   H13       1.0  0.14965  0.60041  0.33969  1.0000
  C   C18       1.0  0.85181  0.43034  0.33237  1.0000
  N   N6        1.0  0.82161  0.43746  0.33150  1.0000
  H   H14       1.0  0.85740  0.40777  0.32294  1.0000
  C   C19       1.0  0.57747  0.85217  0.34772  1.0000
  N   N7        1.0  0.57045  0.82195  0.34635  1.0000
  H   H15       1.0  0.60009  0.85786  0.33995  1.0000
  C   C20       1.0  0.42998  0.15570  0.33281  1.0000
  N   N8        1.0  0.43709  0.18590  0.33199  1.0000
  H   H16       1.0  0.40739  0.15012  0.32361  1.0000
  C   C21       1.0  0.21319  0.13163  0.29960  1.0000
  N   N9        1.0  0.22450  0.10283  0.29522  1.0000
  H   H17       1.0  0.22507  0.14846  0.26672  1.0000
  C   C22       1.0  0.79439  0.87611  0.29085  1.0000
  N   N10       1.0  0.78313  0.90490  0.28489  1.0000
  H   H18       1.0  0.78268  0.85913  0.25802  1.0000
  C   C23       1.0  0.87588  0.21363  0.29906  1.0000
  N   N11       1.0  0.90466  0.22498  0.29493  1.0000
  H   H19       1.0  0.85905  0.22556  0.26629  1.0000
  C   C24       1.0  0.13144  0.79481  0.29141  1.0000
  N   N12       1.0  0.10265  0.78356  0.28525  1.0000
  H   H20       1.0  0.14844  0.78313  0.25855  1.0000
  C   C25       1.0  0.33634  0.61386  0.31347  1.0000
  C   C26       1.0  0.32134  0.64006  0.35153  1.0000
  C   C27       1.0  0.29591  0.58032  0.36267  1.0000
  N   N13       1.0  0.32290  0.58541  0.31922  1.0000
  C   C28       1.0  0.36508  0.61593  0.26076  1.0000
  H   H21       1.0  0.36223  0.63221  0.20565  1.0000
  H   H22       1.0  0.37141  0.59371  0.23210  1.0000
  H   H23       1.0  0.38389  0.62348  0.30380  1.0000
  C   C29       1.0  0.67054  0.39412  0.31256  1.0000
  C   C30       1.0  0.68594  0.36786  0.34893  1.0000
  C   C31       1.0  0.71150  0.42761  0.35815  1.0000
  N   N14       1.0  0.68404  0.42257  0.31729  1.0000
  C   C32       1.0  0.64122  0.39219  0.26256  1.0000
  H   H24       1.0  0.64345  0.37602  0.20693  1.0000
  H   H25       1.0  0.63460  0.41447  0.23488  1.0000
  H   H26       1.0  0.62289  0.38457  0.30725  1.0000
  C   C33       1.0  0.61358  0.67159  0.31068  1.0000
  C   C34       1.0  0.63967  0.68623  0.35042  1.0000
  C   C35       1.0  0.57989  0.71148  0.36268  1.0000
  N   N15       1.0  0.58511  0.68496  0.31700  1.0000
  C   C36       1.0  0.61580  0.64331  0.25592  1.0000
  H   H27       1.0  0.63279  0.64634  0.20274  1.0000
  H   H28       1.0  0.59384  0.63765  0.22450  1.0000
  H   H29       1.0  0.62252  0.62401  0.29830  1.0000
  C   C37       1.0  0.39374  0.33707  0.31395  1.0000
  C   C38       1.0  0.36748  0.32160  0.35002  1.0000
  C   C39       1.0  0.42723  0.29598  0.35864  1.0000
  N   N16       1.0  0.42219  0.32355  0.31841  1.0000
  C   C40       1.0  0.39183  0.36655  0.26474  1.0000
  H   H30       1.0  0.37566  0.36451  0.20905  1.0000
  H   H31       1.0  0.41411  0.37325  0.23725  1.0000
  H   H32       1.0  0.38423  0.38474  0.30993  1.0000
  C   C41       1.0  0.25265  0.93986  0.31399  1.0000
  C   C42       1.0  0.23145  0.96410  0.33500  1.0000
  C   C43       1.0  0.21483  0.90121  0.34409  1.0000
  N   N17       1.0  0.24343  0.91008  0.32007  1.0000
  C   C44       1.0  0.28478  0.94357  0.28231  1.0000
  H   H33       1.0  0.28543  0.95888  0.22430  1.0000
  H   H34       1.0  0.29494  0.92171  0.26178  1.0000
  H   H35       1.0  0.29908  0.95287  0.33595  1.0000
  C   C45       1.0  0.75456  0.06809  0.31019  1.0000
  C   C46       1.0  0.77574  0.04375  0.33036  1.0000
  C   C47       1.0  0.79231  0.10662  0.34238  1.0000
  N   N18       1.0  0.76375  0.09784  0.31767  1.0000
  C   C48       1.0  0.72246  0.06454  0.27810  1.0000
  H   H36       1.0  0.72187  0.04957  0.21933  1.0000
  H   H37       1.0  0.71230  0.08651  0.25859  1.0000
  H   H38       1.0  0.70813  0.05492  0.33118  1.0000
  C   C49       1.0  0.06764  0.25287  0.31344  1.0000
  C   C50       1.0  0.04340  0.23175  0.33508  1.0000
  C   C51       1.0  0.10628  0.21519  0.34499  1.0000
  N   N19       1.0  0.09742  0.24369  0.31997  1.0000
  C   C52       1.0  0.06391  0.28488  0.28067  1.0000
  H   H39       1.0  0.04854  0.28529  0.22278  1.0000
  H   H40       1.0  0.08576  0.29493  0.25961  1.0000
  H   H41       1.0  0.05467  0.29940  0.33389  1.0000
  C   C53       1.0  0.93942  0.75480  0.31095  1.0000
  C   C54       1.0  0.96376  0.77607  0.33042  1.0000
  C   C55       1.0  0.90088  0.79269  0.34163  1.0000
  N   N20       1.0  0.90967  0.76404  0.31796  1.0000
  C   C56       1.0  0.94295  0.72258  0.27992  1.0000
  H   H42       1.0  0.95783  0.72177  0.22098  1.0000
  H   H43       1.0  0.92095  0.71232  0.26102  1.0000
  H   H44       1.0  0.95265  0.70847  0.33338  1.0000
  C   C57       1.0  0.30538  0.45601  0.33336  1.0000
  N   N21       1.0  0.31242  0.42553  0.32918  1.0000
  H   H45       1.0  0.32213  0.47143  0.31663  1.0000
  C   C58       1.0  0.70169  0.55196  0.33085  1.0000
  N   N22       1.0  0.69465  0.58245  0.32737  1.0000
  H   H46       1.0  0.68493  0.53658  0.31378  1.0000
  C   C59       1.0  0.45565  0.70211  0.33467  1.0000
  N   N23       1.0  0.42518  0.69507  0.33038  1.0000
  H   H47       1.0  0.47108  0.68531  0.31847  1.0000
  C   C60       1.0  0.55160  0.30577  0.32964  1.0000
  N   N24       1.0  0.58209  0.31279  0.32610  1.0000
  H   H48       1.0  0.53622  0.32249  0.31223  1.0000
  C   C61       1.0  0.20686  0.27857  0.34533  1.0000
  N   N25       1.0  0.22852  0.30126  0.34414  1.0000
  H   H49       1.0  0.18440  0.28517  0.34022  1.0000
  C   C62       1.0  0.80023  0.72938  0.34233  1.0000
  N   N26       1.0  0.77855  0.70670  0.34155  1.0000
  H   H50       1.0  0.82267  0.72277  0.33671  1.0000
  C   C63       1.0  0.72896  0.20722  0.34363  1.0000
  N   N27       1.0  0.70627  0.22890  0.34241  1.0000
  H   H51       1.0  0.72235  0.18478  0.33818  1.0000
  C   C64       1.0  0.27816  0.80061  0.34406  1.0000
  N   N28       1.0  0.30085  0.77894  0.34329  1.0000
  H   H52       1.0  0.28476  0.82306  0.33875  1.0000
  C   C65       1.0  0.50999  0.03201  0.33844  1.0000
  N   N29       1.0  0.53214  0.01034  0.33894  1.0000
  H   H53       1.0  0.51569  0.05300  0.31277  1.0000
  C   C66       1.0  0.97548  0.51036  0.33846  1.0000
  N   N30       1.0  0.99715  0.53252  0.33897  1.0000
  H   H54       1.0  0.95449  0.51606  0.31277  1.0000
  C   C67       1.0  0.22852  0.05059  0.33859  1.0000
  N   N31       1.0  0.21865  0.02057  0.33777  1.0000
  C   C68       1.0  0.23913  0.99636  0.33674  1.0000
  N   N32       1.0  0.26943  0.00373  0.33891  1.0000
  C   C69       1.0  0.28000  0.03279  0.34188  1.0000
  N   N33       1.0  0.25922  0.05560  0.34113  1.0000
  C   C70       1.0  0.77882  0.95725  0.32714  1.0000
  N   N34       1.0  0.78863  0.98728  0.32940  1.0000
  C   C71       1.0  0.76812  0.01147  0.32979  1.0000
  N   N35       1.0  0.73784  0.00402  0.33127  1.0000
  C   C72       1.0  0.72725  0.97493  0.33062  1.0000
  N   N36       1.0  0.74811  0.95220  0.32827  1.0000
  C   C73       1.0  0.95691  0.22890  0.33820  1.0000
  N   N37       1.0  0.98692  0.21901  0.33754  1.0000
  C   C74       1.0  0.01116  0.23947  0.33662  1.0000
  N   N38       1.0  0.00382  0.26977  0.33886  1.0000
  C   C75       1.0  0.97476  0.28037  0.34174  1.0000
  N   N39       1.0  0.95194  0.25961  0.34085  1.0000
  C   C76       1.0  0.05028  0.77919  0.32738  1.0000
  N   N40       1.0  0.02024  0.78899  0.32963  1.0000
  C   C77       1.0  0.99605  0.76847  0.32990  1.0000
  N   N41       1.0  0.00354  0.73821  0.33119  1.0000
  C   C78       1.0  0.03263  0.72762  0.33050  1.0000
  N   N42       1.0  0.05535  0.74849  0.32833  1.0000
  C   C79       1.0  0.27852  0.55271  0.35854  1.0000
  N   N43       1.0  0.28847  0.52271  0.35726  1.0000
  C   C80       1.0  0.26803  0.49845  0.35652  1.0000
  N   N44       1.0  0.23775  0.50581  0.35407  1.0000
  C   C81       1.0  0.22702  0.53484  0.35390  1.0000
  N   N45       1.0  0.24779  0.55764  0.35674  1.0000
  C   C82       1.0  0.72881  0.45525  0.35286  1.0000
  N   N46       1.0  0.71878  0.48523  0.35350  1.0000
  C   C83       1.0  0.73916  0.50952  0.35183  1.0000
  N   N47       1.0  0.76943  0.50227  0.34655  1.0000
  C   C84       1.0  0.78020  0.47326  0.34431  1.0000
  N   N48       1.0  0.75952  0.45040  0.34824  1.0000
  C   C85       1.0  0.55234  0.72896  0.35887  1.0000
  N   N49       1.0  0.52233  0.71905  0.35763  1.0000
  C   C86       1.0  0.49810  0.73951  0.35722  1.0000
  N   N50       1.0  0.50550  0.76977  0.35503  1.0000
  C   C87       1.0  0.53455  0.78047  0.35485  1.0000
  N   N51       1.0  0.55734  0.75968  0.35735  1.0000
  C   C88       1.0  0.45487  0.27870  0.35320  1.0000
  N   N52       1.0  0.48485  0.28873  0.35340  1.0000
  C   C89       1.0  0.50914  0.26836  0.35145  1.0000
  N   N53       1.0  0.50191  0.23809  0.34629  1.0000
  C   C90       1.0  0.47290  0.22731  0.34447  1.0000
  N   N54       1.0  0.45004  0.24798  0.34866  1.0000
  C   C91       1.0  0.17688  0.16961  0.35473  1.0000
  N   N55       1.0  0.14685  0.17792  0.35158  1.0000
  C   C92       1.0  0.13796  0.20785  0.34962  1.0000
  N   N56       1.0  0.16033  0.22998  0.34968  1.0000
  C   C93       1.0  0.19106  0.22339  0.35285  1.0000
  N   N57       1.0  0.19798  0.19284  0.35445  1.0000
  C   C94       1.0  0.83029  0.83833  0.34935  1.0000
  N   N58       1.0  0.86033  0.83000  0.34684  1.0000
  C   C95       1.0  0.86920  0.80007  0.34618  1.0000
  N   N59       1.0  0.84681  0.77795  0.34683  1.0000
  C   C96       1.0  0.81608  0.78457  0.34943  1.0000
  N   N60       1.0  0.80916  0.81512  0.34972  1.0000
  C   C97       1.0  0.83789  0.17720  0.35350  1.0000
  N   N61       1.0  0.82958  0.14717  0.34989  1.0000
  C   C98       1.0  0.79966  0.13828  0.34771  1.0000
  N   N62       1.0  0.77753  0.16066  0.34793  1.0000
  C   C99       1.0  0.78412  0.19139  0.35152  1.0000
  N   N63       1.0  0.81466  0.19830  0.35338  1.0000
  C   C100      1.0  0.16920  0.83061  0.35052  1.0000
  N   N64       1.0  0.17753  0.86065  0.34841  1.0000
  C   C101      1.0  0.20746  0.86953  0.34800  1.0000
  N   N65       1.0  0.22958  0.84715  0.34854  1.0000
  C   C102      1.0  0.22296  0.81641  0.35076  1.0000
  N   N66       1.0  0.19241  0.80948  0.35078  1.0000
  C   C103      1.0  0.33128  0.67142  0.34594  1.0000
  N   N67       1.0  0.36149  0.67930  0.34468  1.0000
  C   C104      1.0  0.37094  0.70908  0.34504  1.0000
  N   N68       1.0  0.34905  0.73168  0.34697  1.0000
  C   C105      1.0  0.31838  0.72520  0.34763  1.0000
  N   N69       1.0  0.31044  0.69491  0.34789  1.0000
  C   C106      1.0  0.67595  0.33647  0.34402  1.0000
  N   N70       1.0  0.64573  0.32858  0.34233  1.0000
  C   C107      1.0  0.63625  0.29881  0.34286  1.0000
  N   N71       1.0  0.65811  0.27620  0.34535  1.0000
  C   C108      1.0  0.68878  0.28266  0.34641  1.0000
  N   N72       1.0  0.69673  0.31294  0.34644  1.0000
  C   C109      1.0  0.67102  0.67632  0.34462  1.0000
  N   N73       1.0  0.67886  0.64609  0.34315  1.0000
  C   C110      1.0  0.70864  0.63663  0.34345  1.0000
  N   N74       1.0  0.73124  0.65851  0.34543  1.0000
  C   C111      1.0  0.72478  0.68919  0.34627  1.0000
  N   N75       1.0  0.69450  0.69715  0.34668  1.0000
  C   C112      1.0  0.33609  0.33161  0.34538  1.0000
  N   N76       1.0  0.32821  0.36183  0.34403  1.0000
  C   C113      1.0  0.29843  0.37132  0.34473  1.0000
  N   N77       1.0  0.27582  0.34945  0.34709  1.0000
  C   C114      1.0  0.28228  0.31878  0.34780  1.0000
  N   N78       1.0  0.31256  0.31083  0.34764  1.0000
  C   C115      1.0  0.44396  0.10136  0.34743  1.0000
  N   N79       1.0  0.46466  0.07844  0.35835  1.0000
  C   C116      1.0  0.45690  0.04826  0.36080  1.0000
  N   N80       1.0  0.42684  0.04114  0.35044  1.0000
  C   C117      1.0  0.40498  0.06281  0.33744  1.0000
  N   N81       1.0  0.41412  0.09267  0.33736  1.0000
  C   C118      1.0  0.56301  0.90646  0.35868  1.0000
  N   N82       1.0  0.54180  0.92902  0.36635  1.0000
  C   C119      1.0  0.54927  0.95912  0.36374  1.0000
  N   N83       1.0  0.57909  0.96691  0.35271  1.0000
  C   C120      1.0  0.60160  0.94561  0.34498  1.0000
  N   N84       1.0  0.59275  0.91559  0.34825  1.0000
  C   C121      1.0  0.90614  0.44431  0.34744  1.0000
  N   N85       1.0  0.92906  0.46502  0.35837  1.0000
  C   C122      1.0  0.95924  0.45727  0.36090  1.0000
  N   N86       1.0  0.96637  0.42721  0.35056  1.0000
  C   C123      1.0  0.94471  0.40534  0.33756  1.0000
  N   N87       1.0  0.91484  0.41447  0.33741  1.0000
  C   C124      1.0  0.10104  0.56336  0.35857  1.0000
  N   N88       1.0  0.07847  0.54216  0.36635  1.0000
  C   C125      1.0  0.04837  0.54965  0.36379  1.0000
  N   N89       1.0  0.04059  0.57947  0.35270  1.0000
  C   C126      1.0  0.06190  0.60196  0.34487  1.0000
  N   N90       1.0  0.09191  0.59310  0.34810  1.0000
  C   C127      1.0  0.35144  0.07502  0.36817  1.0000
  N   N91       1.0  0.32142  0.06724  0.37120  1.0000
  H   H55       1.0  0.35757  0.09574  0.39507  1.0000
  C   C128      1.0  0.65606  0.93157  0.34829  1.0000
  N   N92       1.0  0.68620  0.93887  0.34558  1.0000
  H   H56       1.0  0.65068  0.90909  0.36033  1.0000
  C   C129      1.0  0.93253  0.35179  0.36823  1.0000
  N   N93       1.0  0.94033  0.32177  0.37121  1.0000
  H   H57       1.0  0.91181  0.35791  0.39515  1.0000
  C   C130      1.0  0.07598  0.65641  0.34807  1.0000
  N   N94       1.0  0.06868  0.68656  0.34537  1.0000
  H   H58       1.0  0.09845  0.65102  0.36011  1.0000
  C   C131      1.0  0.14388  0.52400  0.36917  1.0000
  C   C132      1.0  0.13267  0.55471  0.35900  1.0000
  C   C133      1.0  0.19560  0.54148  0.35451  1.0000
  N   N95       1.0  0.17464  0.51891  0.36627  1.0000
  C   C134      1.0  0.12500  0.49608  0.38382  1.0000
  H   H59       1.0  0.11143  0.49857  0.44500  1.0000
  H   H60       1.0  0.13918  0.47552  0.39133  1.0000
  H   H61       1.0  0.10978  0.49237  0.32665  1.0000
  C   C135      1.0  0.86340  0.48380  0.35919  1.0000
  C   C136      1.0  0.87456  0.45319  0.34640  1.0000
  C   C137      1.0  0.81162  0.46664  0.34298  1.0000
  N   N96       1.0  0.83265  0.48901  0.35675  1.0000
  C   C138      1.0  0.88234  0.51146  0.37635  1.0000
  H   H62       1.0  0.89606  0.50827  0.43696  1.0000
  H   H63       1.0  0.86823  0.53196  0.38610  1.0000
  H   H64       1.0  0.89735  0.51572  0.31913  1.0000
  C   C139      1.0  0.52368  0.86362  0.36956  1.0000
  C   C140      1.0  0.55438  0.87483  0.35924  1.0000
  C   C141      1.0  0.54119  0.81188  0.35535  1.0000
  N   N97       1.0  0.51861  0.83285  0.36694  1.0000
  C   C142      1.0  0.49574  0.88248  0.38407  1.0000
  H   H65       1.0  0.49822  0.89611  0.44515  1.0000
  H   H66       1.0  0.47519  0.86830  0.39168  1.0000
  H   H67       1.0  0.49203  0.89765  0.32680  1.0000
  C   C143      1.0  0.48347  0.14410  0.35896  1.0000
  C   C144      1.0  0.45285  0.13295  0.34646  1.0000
  C   C145      1.0  0.46628  0.19588  0.34316  1.0000
  N   N98       1.0  0.48868  0.17485  0.35658  1.0000
  C   C146      1.0  0.51116  0.12515  0.37565  1.0000
  H   H68       1.0  0.50806  0.11141  0.43625  1.0000
  H   H69       1.0  0.53168  0.13925  0.38514  1.0000
  H   H70       1.0  0.51531  0.11016  0.31831  1.0000
  C   C147      1.0  0.17177  0.11208  0.38987  1.0000
  C   C148      1.0  0.18646  0.13816  0.34993  1.0000
  C   C149      1.0  0.21107  0.07815  0.33494  1.0000
  N   N99       1.0  0.18484  0.08352  0.38188  1.0000
  C   C150      1.0  0.14429  0.11320  0.44837  1.0000
  H   H71       1.0  0.13742  0.13643  0.46630  1.0000
  H   H72       1.0  0.14893  0.10098  0.51095  1.0000
  H   H73       1.0  0.12513  0.10198  0.41440  1.0000
  C   C151      1.0  0.83519  0.89596  0.38295  1.0000
  C   C152      1.0  0.82076  0.86976  0.34294  1.0000
  C   C153      1.0  0.79635  0.92972  0.32455  1.0000
  N   N100      1.0  0.82221  0.92450  0.37331  1.0000
  C   C154      1.0  0.86229  0.89502  0.44296  1.0000
  H   H74       1.0  0.86918  0.87183  0.46132  1.0000
  H   H75       1.0  0.85717  0.90723  0.50522  1.0000
  H   H76       1.0  0.88161  0.90633  0.41002  1.0000
  C   C155      1.0  0.89543  0.17205  0.38866  1.0000
  C   C156      1.0  0.86935  0.18680  0.34893  1.0000
  C   C157      1.0  0.92933  0.21148  0.33456  1.0000
  N   N101      1.0  0.92399  0.18515  0.38097  1.0000
  C   C158      1.0  0.89431  0.14445  0.44670  1.0000
  H   H77       1.0  0.87108  0.13754  0.46445  1.0000
  H   H78       1.0  0.90650  0.14898  0.50939  1.0000
  H   H79       1.0  0.90555  0.12536  0.41244  1.0000
  C   C159      1.0  0.11156  0.83551  0.38382  1.0000
  C   C160      1.0  0.13778  0.82110  0.34384  1.0000
  C   C161      1.0  0.07781  0.79671  0.32494  1.0000
  N   N102      1.0  0.08303  0.82252  0.37398  1.0000
  C   C162      1.0  0.11247  0.86250  0.44428  1.0000
  H   H80       1.0  0.13565  0.86934  0.46285  1.0000
  H   H81       1.0  0.10023  0.85726  0.50641  1.0000
  H   H82       1.0  0.10119  0.88188  0.41160  1.0000
  C   C163      1.0  0.29375  0.63383  0.39800  1.0000
  N   N103      1.0  0.28215  0.60512  0.40083  1.0000
  H   H83       1.0  0.28142  0.65082  0.42882  1.0000
  C   C164      1.0  0.71404  0.37408  0.39281  1.0000
  N   N104      1.0  0.72567  0.40278  0.39479  1.0000
  H   H84       1.0  0.72671  0.35708  0.42234  1.0000
  C   C165      1.0  0.63336  0.71344  0.39868  1.0000
  N   N105      1.0  0.60463  0.72499  0.40198  1.0000
  H   H85       1.0  0.65032  0.72553  0.43044  1.0000
  C   C166      1.0  0.37369  0.29339  0.39332  1.0000
  N   N106      1.0  0.40238  0.28174  0.39502  1.0000
  H   H86       1.0  0.35669  0.28065  0.42261  1.0000
  C   C167      1.0  0.20140  0.95421  0.35760  1.0000
  N   N107      1.0  0.19408  0.92381  0.36150  1.0000
  H   H87       1.0  0.18466  0.96975  0.37345  1.0000
  C   C168      1.0  0.80575  0.05355  0.35378  1.0000
  N   N108      1.0  0.81304  0.08393  0.35913  1.0000
  H   H88       1.0  0.82248  0.03793  0.36913  1.0000
  C   C169      1.0  0.05328  0.20179  0.35861  1.0000
  N   N109      1.0  0.08367  0.19450  0.36294  1.0000
  H   H89       1.0  0.03773  0.18511  0.37497  1.0000
  C   C170      1.0  0.95395  0.80617  0.35281  1.0000
  N   N110      1.0  0.92356  0.81349  0.35773  1.0000
  H   H90       1.0  0.96956  0.82296  0.36754  1.0000
  C   C171      1.0  0.25430  0.44213  0.37994  1.0000
  C   C172      1.0  0.27556  0.46617  0.35752  1.0000
  C   C173      1.0  0.29155  0.40312  0.34770  1.0000
  N   N111      1.0  0.26323  0.41229  0.37344  1.0000
  C   C174      1.0  0.22245  0.44606  0.41377  1.0000
  H   H91       1.0  0.22233  0.46156  0.47139  1.0000
  H   H92       1.0  0.21238  0.42430  0.43560  1.0000
  H   H93       1.0  0.20776  0.45523  0.36088  1.0000
  C   C175      1.0  0.75281  0.56572  0.37736  1.0000
  C   C176      1.0  0.73155  0.54176  0.35440  1.0000
  C   C177      1.0  0.71553  0.60482  0.34619  1.0000
  N   N112      1.0  0.74387  0.59559  0.37162  1.0000
  C   C178      1.0  0.78464  0.56161  0.41109  1.0000
  H   H94       1.0  0.78476  0.54573  0.46781  1.0000
  H   H95       1.0  0.79466  0.58324  0.43417  1.0000
  H   H96       1.0  0.79937  0.55281  0.35775  1.0000
  C   C179      1.0  0.44173  0.75332  0.37985  1.0000
  C   C180      1.0  0.46579  0.73200  0.35812  1.0000
  C   C181      1.0  0.40275  0.71598  0.34817  1.0000
  N   N113      1.0  0.41190  0.74437  0.37331  1.0000
  C   C182      1.0  0.44562  0.78528  0.41286  1.0000
  H   H97       1.0  0.46099  0.78558  0.47074  1.0000
  H   H98       1.0  0.42382  0.79543  0.43404  1.0000
  H   H99       1.0  0.45490  0.79979  0.35971  1.0000
  C   C183      1.0  0.56533  0.25474  0.37710  1.0000
  C   C184      1.0  0.54138  0.27597  0.35373  1.0000
  C   C185      1.0  0.60444  0.29193  0.34535  1.0000
  N   N114      1.0  0.59519  0.26365  0.37125  1.0000
  C   C186      1.0  0.56119  0.22297  0.41136  1.0000
  H   H100      1.0  0.54530  0.22297  0.46804  1.0000
  H   H101      1.0  0.58282  0.21300  0.43466  1.0000
  H   H102      1.0  0.55241  0.20814  0.35825  1.0000
  C   C187      1.0  0.24712  0.24138  0.35947  1.0000
  C   C188      1.0  0.21477  0.24695  0.35263  1.0000
  C   C189      1.0  0.25915  0.29544  0.34994  1.0000
  N   N115      1.0  0.26723  0.26543  0.35754  1.0000
  C   C190      1.0  0.26168  0.21080  0.36929  1.0000
  H   H103      1.0  0.25305  0.19939  0.42945  1.0000
  H   H104      1.0  0.28664  0.21249  0.37563  1.0000
  H   H105      1.0  0.25678  0.19677  0.31036  1.0000
  C   C191      1.0  0.76002  0.76659  0.35727  1.0000
  C   C192      1.0  0.79236  0.76101  0.34976  1.0000
  C   C193      1.0  0.74793  0.71253  0.34798  1.0000
  N   N116      1.0  0.73989  0.74255  0.35576  1.0000
  C   C194      1.0  0.74553  0.79718  0.36760  1.0000
  H   H106      1.0  0.75439  0.80856  0.42751  1.0000
  H   H107      1.0  0.72059  0.79551  0.37471  1.0000
  H   H108      1.0  0.75022  0.81123  0.30857  1.0000
  C   C195      1.0  0.76614  0.24745  0.35867  1.0000
  C   C196      1.0  0.76057  0.21511  0.35138  1.0000
  C   C197      1.0  0.71210  0.25952  0.34863  1.0000
  N   N117      1.0  0.74210  0.26758  0.35667  1.0000
  C   C198      1.0  0.79671  0.26199  0.36901  1.0000
  H   H109      1.0  0.80805  0.25325  0.42917  1.0000
  H   H110      1.0  0.79502  0.28693  0.37569  1.0000
  H   H111      1.0  0.81081  0.25718  0.31016  1.0000
  C   C199      1.0  0.24095  0.76036  0.35820  1.0000
  C   C200      1.0  0.24653  0.79271  0.35107  1.0000
  C   C201      1.0  0.29503  0.74832  0.34934  1.0000
  N   N118      1.0  0.26500  0.74025  0.35674  1.0000
  C   C202      1.0  0.21035  0.74584  0.36803  1.0000
  H   H112      1.0  0.19889  0.75461  0.42792  1.0000
  H   H113      1.0  0.21203  0.72089  0.37486  1.0000
  H   H114      1.0  0.19638  0.75060  0.30890  1.0000
  C   C203      1.0  0.47450  0.99488  0.40030  1.0000
  C   C204      1.0  0.47978  0.02524  0.36787  1.0000
  C   C205      1.0  0.52647  0.98150  0.36833  1.0000
  N   N119      1.0  0.49798  0.97439  0.39840  1.0000
  C   C206      1.0  0.44532  0.98355  0.43928  1.0000
  H   H115      1.0  0.43768  0.99895  0.49260  1.0000
  H   H116      1.0  0.44792  0.96061  0.46803  1.0000
  H   H117      1.0  0.42774  0.98224  0.38739  1.0000
  C   C207      1.0  0.01261  0.47489  0.40042  1.0000
  C   C208      1.0  0.98226  0.48016  0.36792  1.0000
  C   C209      1.0  0.02598  0.52685  0.36841  1.0000
  N   N120      1.0  0.03309  0.49837  0.39853  1.0000
  C   C210      1.0  0.02393  0.44572  0.43950  1.0000
  H   H118      1.0  0.00852  0.43810  0.49282  1.0000
  H   H119      1.0  0.04686  0.44833  0.46829  1.0000
  H   H120      1.0  0.02526  0.42812  0.38768  1.0000
