data_image0
_chemical_formula_structural       C2OH2C3H2C5HCHOHCHC4HC4HO2H2C2H2C4HC4HO2H2C2H2C4H2CH3NC4H3CH3NC4H3CH3NC4H3CH3NC4H3CH3NC4H3CH3NC2HC2H2C2HC2HC2H2C2HC2HC2H2C4H3CH3NC4H3CH3NC4H3CH3NC4H3CH3NC4H3CH3NC4H3CH3N
_chemical_formula_sum              "C108 O6 H102 N12"
_cell_length_a       31.7138
_cell_length_b       31.7138
_cell_length_c       14.8877
_cell_angle_alpha    90
_cell_angle_beta     90
_cell_angle_gamma    120

_space_group_name_H-M_alt    "P 1"
_space_group_IT_number       1

loop_
  _space_group_symop_operation_xyz
  'x, y, z'

loop_
  _atom_site_type_symbol
  _atom_site_label
  _atom_site_symmetry_multiplicity
  _atom_site_fract_x
  _atom_site_fract_y
  _atom_site_fract_z
  _atom_site_occupancy
  C   C1        1.0  0.03136  0.52184  0.29871  1.0000
  C   C2        1.0  0.05079  0.57307  0.28348  1.0000
  O   O1        1.0  0.02286  0.58993  0.24572  1.0000
  H   H1        1.0  0.01994  0.58144  0.18159  1.0000
  H   H2        1.0  0.05551  0.47235  0.33624  1.0000
  C   C3        1.0  0.06649  0.50764  0.32055  1.0000
  C   C4        1.0  0.10007  0.60846  0.30296  1.0000
  C   C5        1.0  0.11968  0.65945  0.29197  1.0000
  H   H3        1.0  0.09992  0.67225  0.25982  1.0000
  H   H4        1.0  0.11317  0.41286  0.24184  1.0000
  C   C6        1.0  0.11642  0.54132  0.33458  1.0000
  C   C7        1.0  0.97976  0.48672  0.29869  1.0000
  C   C8        1.0  0.87977  0.41723  0.33014  1.0000
  C   C9        1.0  0.91108  0.40008  0.30263  1.0000
  C   C10       1.0  0.96035  0.43552  0.28321  1.0000
  H   H5        1.0  0.84355  0.39259  0.33843  1.0000
  C   C11       1.0  0.13134  0.59123  0.33026  1.0000
  H   H6        1.0  0.16756  0.61582  0.33882  1.0000
  O   O2        1.0  0.98830  0.41874  0.24523  1.0000
  H   H7        1.0  0.99116  0.42727  0.18113  1.0000
  C   C12       1.0  0.89158  0.34911  0.29158  1.0000
  H   H8        1.0  0.91143  0.33639  0.25951  1.0000
  C   C13       1.0  0.52301  0.49507  0.29963  1.0000
  C   C14       1.0  0.59306  0.46513  0.32962  1.0000
  C   C15       1.0  0.60983  0.51350  0.30202  1.0000
  C   C16       1.0  0.57409  0.52701  0.28317  1.0000
  H   H9        1.0  0.61785  0.45370  0.33750  1.0000
  C   C17       1.0  0.48765  0.51127  0.30033  1.0000
  C   C18       1.0  0.43640  0.47937  0.28568  1.0000
  C   C19       1.0  0.40115  0.49386  0.30297  1.0000
  C   C20       1.0  0.41845  0.54226  0.33102  1.0000
  H   H10       1.0  0.39398  0.55412  0.33851  1.0000
  O   O3        1.0  0.59046  0.57165  0.24504  1.0000
  O   O4        1.0  0.42085  0.43557  0.24423  1.0000
  H   H11       1.0  0.58156  0.56583  0.18111  1.0000
  H   H12       1.0  0.39980  0.40975  0.28674  1.0000
  C   C21       1.0  0.66072  0.54516  0.29042  1.0000
  C   C22       1.0  0.35021  0.46316  0.28966  1.0000
  H   H13       1.0  0.67321  0.57760  0.25798  1.0000
  H   H14       1.0  0.33739  0.43097  0.25626  1.0000
  C   C23       1.0  0.51431  0.02941  0.30038  1.0000
  C   C24       1.0  0.54494  0.12945  0.33137  1.0000
  C   C25       1.0  0.49645  0.09816  0.30404  1.0000
  C   C26       1.0  0.48256  0.04886  0.28483  1.0000
  H   H15       1.0  0.55658  0.16570  0.33942  1.0000
  C   C27       1.0  0.49777  0.97779  0.30041  1.0000
  C   C28       1.0  0.52950  0.95829  0.28511  1.0000
  C   C29       1.0  0.51551  0.90895  0.30433  1.0000
  C   C30       1.0  0.46697  0.87770  0.33133  1.0000
  H   H16       1.0  0.45527  0.84145  0.33967  1.0000
  O   O5        1.0  0.43782  0.02092  0.24691  1.0000
  O   O6        1.0  0.57434  0.98621  0.24752  1.0000
  H   H17       1.0  0.44345  0.01801  0.18282  1.0000
  H   H18       1.0  0.56884  0.98918  0.18338  1.0000
  C   C31       1.0  0.46506  0.11774  0.29291  1.0000
  C   C32       1.0  0.54686  0.88930  0.29337  1.0000
  H   H19       1.0  0.43245  0.09790  0.26095  1.0000
  H   H20       1.0  0.57949  0.90911  0.26146  1.0000
  C   C33       1.0  0.18502  0.47267  0.35121  1.0000
  C   C34       1.0  0.18734  0.43934  0.28986  1.0000
  C   C35       1.0  0.23140  0.43730  0.28250  1.0000
  C   C36       1.0  0.14524  0.40962  0.22860  1.0000
  H   H21       1.0  0.13364  0.37111  0.23634  1.0000
  H   H22       1.0  0.15599  0.42054  0.15900  1.0000
  C   C37       1.0  0.23816  0.40666  0.21398  1.0000
  H   H23       1.0  0.26731  0.43001  0.16778  1.0000
  H   H24       1.0  0.20632  0.38398  0.17310  1.0000
  H   H25       1.0  0.24784  0.38214  0.24778  1.0000
  N   N1        1.0  0.15045  0.48586  0.33608  1.0000
  C   C38       1.0  0.53707  0.71439  0.35465  1.0000
  C   C39       1.0  0.57095  0.75036  0.29440  1.0000
  C   C40       1.0  0.57309  0.79652  0.28723  1.0000
  C   C41       1.0  0.60122  0.73829  0.23398  1.0000
  H   H26       1.0  0.59781  0.70288  0.24693  1.0000
  H   H27       1.0  0.63965  0.76511  0.24301  1.0000
  H   H28       1.0  0.59097  0.73855  0.16407  1.0000
  C   C42       1.0  0.60438  0.83428  0.21978  1.0000
  H   H29       1.0  0.58147  0.84027  0.17277  1.0000
  H   H30       1.0  0.62752  0.82538  0.17973  1.0000
  H   H31       1.0  0.62849  0.86833  0.25442  1.0000
  N   N2        1.0  0.52404  0.66667  0.33915  1.0000
  C   C43       1.0  0.29473  0.82430  0.35355  1.0000
  C   C44       1.0  0.25888  0.82234  0.29312  1.0000
  C   C45       1.0  0.21265  0.77842  0.28590  1.0000
  C   C46       1.0  0.27117  0.86467  0.23255  1.0000
  H   H32       1.0  0.30662  0.89659  0.24553  1.0000
  H   H33       1.0  0.24444  0.87642  0.24135  1.0000
  H   H34       1.0  0.27093  0.85409  0.16268  1.0000
  C   C47       1.0  0.17500  0.77201  0.21824  1.0000
  H   H35       1.0  0.16901  0.74309  0.17130  1.0000
  H   H36       1.0  0.18404  0.80407  0.17813  1.0000
  H   H37       1.0  0.14094  0.76217  0.25270  1.0000
  N   N3        1.0  0.34250  0.85884  0.33813  1.0000
  C   C48       1.0  0.82605  0.53581  0.35205  1.0000
  C   C49       1.0  0.82394  0.56953  0.29139  1.0000
  C   C50       1.0  0.77995  0.57169  0.28414  1.0000
  C   C51       1.0  0.86618  0.59952  0.23060  1.0000
  H   H38       1.0  0.89817  0.59610  0.24361  1.0000
  H   H39       1.0  0.87786  0.63800  0.23913  1.0000
  H   H40       1.0  0.85554  0.58902  0.16081  1.0000
  C   C52       1.0  0.77335  0.60272  0.21626  1.0000
  H   H41       1.0  0.74444  0.57963  0.16943  1.0000
  H   H42       1.0  0.80536  0.62577  0.17606  1.0000
  H   H43       1.0  0.76339  0.62690  0.25054  1.0000
  N   N4        1.0  0.86062  0.52263  0.33666  1.0000
  C   C53       1.0  0.47501  0.29272  0.35396  1.0000
  C   C54       1.0  0.44101  0.25671  0.29391  1.0000
  C   C55       1.0  0.43881  0.21053  0.28679  1.0000
  C   C56       1.0  0.41070  0.26878  0.23358  1.0000
  H   H44       1.0  0.41415  0.30420  0.24650  1.0000
  H   H45       1.0  0.37227  0.24197  0.24274  1.0000
  H   H46       1.0  0.42087  0.26847  0.16363  1.0000
  C   C57       1.0  0.40746  0.17274  0.21944  1.0000
  H   H47       1.0  0.43032  0.16672  0.17237  1.0000
  H   H48       1.0  0.38429  0.18163  0.17945  1.0000
  H   H49       1.0  0.38336  0.13871  0.25415  1.0000
  N   N5        1.0  0.48804  0.34041  0.33833  1.0000
  C   C58       1.0  0.71725  0.18355  0.35359  1.0000
  C   C59       1.0  0.75319  0.18581  0.29308  1.0000
  C   C60       1.0  0.79923  0.22996  0.28575  1.0000
  C   C61       1.0  0.74120  0.14353  0.23256  1.0000
  H   H50       1.0  0.70589  0.11144  0.24566  1.0000
  H   H51       1.0  0.76817  0.13209  0.24131  1.0000
  H   H52       1.0  0.74128  0.15402  0.16269  1.0000
  C   C62       1.0  0.83694  0.23663  0.21802  1.0000
  H   H53       1.0  0.84270  0.26548  0.17109  1.0000
  H   H54       1.0  0.82811  0.20463  0.17791  1.0000
  H   H55       1.0  0.87108  0.24671  0.25243  1.0000
  N   N6        1.0  0.66955  0.14876  0.33820  1.0000
  C   C63       1.0  0.94460  0.50085  0.32073  1.0000
  C   C64       1.0  0.89466  0.46714  0.33450  1.0000
  H   H56       1.0  0.95553  0.53614  0.33628  1.0000
  C   C65       1.0  0.15258  0.52888  0.35394  1.0000
  C   C66       1.0  0.85845  0.47953  0.35384  1.0000
  H   H57       1.0  0.18649  0.55696  0.37000  1.0000
  H   H58       1.0  0.82449  0.45142  0.36952  1.0000
  C   C67       1.0  0.50931  0.44594  0.32200  1.0000
  C   C68       1.0  0.54326  0.42995  0.33507  1.0000
  H   H59       1.0  0.47431  0.42163  0.33906  1.0000
  C   C69       1.0  0.46838  0.57703  0.33640  1.0000
  C   C70       1.0  0.50191  0.56057  0.32274  1.0000
  H   H60       1.0  0.53724  0.58481  0.33829  1.0000
  C   C71       1.0  0.48092  0.62567  0.35586  1.0000
  C   C72       1.0  0.53116  0.38146  0.35475  1.0000
  H   H61       1.0  0.45279  0.63156  0.37125  1.0000
  H   H62       1.0  0.55945  0.37582  0.37000  1.0000
  C   C73       1.0  0.56363  0.06456  0.32235  1.0000
  C   C74       1.0  0.57993  0.11454  0.33590  1.0000
  H   H63       1.0  0.58798  0.05361  0.33794  1.0000
  C   C75       1.0  0.43204  0.89270  0.33585  1.0000
  C   C76       1.0  0.44841  0.94269  0.32219  1.0000
  H   H64       1.0  0.42414  0.95371  0.33795  1.0000
  C   C77       1.0  0.38338  0.85655  0.35506  1.0000
  C   C78       1.0  0.62853  0.15080  0.35516  1.0000
  H   H65       1.0  0.37749  0.82256  0.37061  1.0000
  H   H66       1.0  0.63432  0.18476  0.37066  1.0000
  C   C79       1.0  0.27203  0.46791  0.33790  1.0000
  C   C80       1.0  0.26665  0.49498  0.40888  1.0000
  C   C81       1.0  0.22207  0.49544  0.41772  1.0000
  C   C82       1.0  0.21185  0.51447  0.50231  1.0000
  H   H67       1.0  0.21826  0.49782  0.56092  1.0000
  H   H68       1.0  0.17411  0.50578  0.50841  1.0000
  H   H69       1.0  0.23530  0.55391  0.50630  1.0000
  C   C83       1.0  0.30688  0.52274  0.47539  1.0000
  H   H70       1.0  0.33958  0.52052  0.46409  1.0000
  H   H71       1.0  0.29486  0.50881  0.54307  1.0000
  H   H72       1.0  0.31753  0.56121  0.47357  1.0000
  N   N7        1.0  0.31728  0.47385  0.32557  1.0000
  C   C84       1.0  0.54192  0.80624  0.34161  1.0000
  C   C85       1.0  0.51419  0.77342  0.41167  1.0000
  C   C86       1.0  0.51371  0.72837  0.42049  1.0000
  C   C87       1.0  0.49400  0.69878  0.50455  1.0000
  H   H73       1.0  0.51016  0.72160  0.56360  1.0000
  H   H74       1.0  0.50267  0.66972  0.51091  1.0000
  H   H75       1.0  0.45453  0.68275  0.50744  1.0000
  C   C88       1.0  0.48580  0.78556  0.47727  1.0000
  H   H76       1.0  0.48813  0.82054  0.46608  1.0000
  H   H77       1.0  0.49906  0.78712  0.54540  1.0000
  H   H78       1.0  0.44735  0.75775  0.47417  1.0000
  N   N8        1.0  0.53596  0.84553  0.32887  1.0000
  C   C89       1.0  0.20274  0.73753  0.34045  1.0000
  C   C90       1.0  0.23542  0.74254  0.41070  1.0000
  C   C91       1.0  0.28057  0.78700  0.41952  1.0000
  C   C92       1.0  0.31009  0.79682  0.50366  1.0000
  H   H79       1.0  0.28725  0.79029  0.56265  1.0000
  H   H80       1.0  0.33925  0.83451  0.50998  1.0000
  H   H81       1.0  0.32596  0.77325  0.50673  1.0000
  C   C93       1.0  0.22304  0.70203  0.47650  1.0000
  H   H82       1.0  0.18797  0.66949  0.46532  1.0000
  H   H83       1.0  0.22150  0.71384  0.54455  1.0000
  H   H84       1.0  0.25070  0.69119  0.47361  1.0000
  N   N9        1.0  0.16341  0.69233  0.32758  1.0000
  C   C94       1.0  0.73916  0.54075  0.33890  1.0000
  C   C95       1.0  0.74432  0.51331  0.40939  1.0000
  C   C96       1.0  0.78884  0.51274  0.41820  1.0000
  C   C97       1.0  0.79881  0.49324  0.50244  1.0000
  H   H85       1.0  0.79231  0.50963  0.56134  1.0000
  H   H86       1.0  0.83651  0.50183  0.50867  1.0000
  H   H87       1.0  0.77528  0.45379  0.50577  1.0000
  C   C98       1.0  0.70390  0.48529  0.47543  1.0000
  H   H88       1.0  0.67133  0.48778  0.46428  1.0000
  H   H89       1.0  0.71580  0.49880  0.54337  1.0000
  H   H90       1.0  0.69309  0.44679  0.47281  1.0000
  N   N10       1.0  0.69391  0.53473  0.32595  1.0000
  C   C99       1.0  0.46997  0.20080  0.34117  1.0000
  C   C100      1.0  0.49777  0.23364  0.41114  1.0000
  C   C101      1.0  0.49842  0.27878  0.41977  1.0000
  C   C102      1.0  0.51837  0.30853  0.50360  1.0000
  H   H91       1.0  0.50230  0.28584  0.56284  1.0000
  H   H92       1.0  0.50980  0.33766  0.50991  1.0000
  H   H93       1.0  0.55783  0.32447  0.50620  1.0000
  C   C103      1.0  0.52608  0.22143  0.47683  1.0000
  H   H94       1.0  0.52354  0.18635  0.46584  1.0000
  H   H95       1.0  0.51288  0.22004  0.54496  1.0000
  H   H96       1.0  0.56457  0.24911  0.47359  1.0000
  N   N11       1.0  0.47590  0.16150  0.32837  1.0000
  C   C104      1.0  0.80884  0.27078  0.34025  1.0000
  C   C105      1.0  0.77608  0.26551  0.41055  1.0000
  C   C106      1.0  0.73117  0.22083  0.41951  1.0000
  C   C107      1.0  0.70168  0.21079  0.50376  1.0000
  H   H97       1.0  0.72462  0.21752  0.56266  1.0000
  H   H98       1.0  0.67274  0.17301  0.51012  1.0000
  H   H99       1.0  0.68551  0.23409  0.50691  1.0000
  C   C108      1.0  0.78814  0.30599  0.47626  1.0000
  H   H100      1.0  0.82301  0.33875  0.46491  1.0000
  H   H101      1.0  0.78990  0.29432  0.54431  1.0000
  H   H102      1.0  0.76018  0.31643  0.47344  1.0000
  N   N12       1.0  0.84794  0.31613  0.32738  1.0000
