data_image0
_chemical_formula_structural       CNCOCH3CNCOCH3CNCOCH3CNCOCH3CNCOCH3CNCOCH3NC2OCH3NC2OCH3NC2OCH3NC2OCH3NC2OCH3NC2OCH3CNCOCH3CNCOCH3CNCOCH3CNCOCH3CNCOCH3CNCOCH3CNCNCNCNCNCNCNCNCNCNCNCNCNCNCNCNCNCNCNCNCNCNCNCNCNCNCNCNCNCNCNCNCNCNCNCN2C2OCH3NC2OCH3NC2OCH3NC2OCH3NC2OCH3NC2OCH3CNCOCH3CNCOCH3CNCOCH3CNCOCH3CNCOCH3CNCOCH3NC2OCH3NC2OCH3NC2OCH3NC2OCH3NC2OCH3NC2OCH3
_chemical_formula_sum              "C144 N72 O36 H108"
_cell_length_a       38.9615
_cell_length_b       38.9616
_cell_length_c       14.7665
_cell_angle_alpha    90
_cell_angle_beta     90
_cell_angle_gamma    120

_space_group_name_H-M_alt    "P 1"
_space_group_IT_number       1

loop_
  _space_group_symop_operation_xyz
  'x, y, z'

loop_
  _atom_site_type_symbol
  _atom_site_label
  _atom_site_symmetry_multiplicity
  _atom_site_fract_x
  _atom_site_fract_y
  _atom_site_fract_z
  _atom_site_occupancy
  C   C1        1.0  0.27474  0.46139  0.34758  1.0000
  N   N1        1.0  0.22050  0.46076  0.26994  1.0000
  C   C2        1.0  0.25498  0.45975  0.26591  1.0000
  O   O1        1.0  0.27197  0.46222  0.18338  1.0000
  C   C3        1.0  0.25692  0.42434  0.14014  1.0000
  H   H1        1.0  0.27237  0.42893  0.07582  1.0000
  H   H2        1.0  0.22521  0.41075  0.12605  1.0000
  H   H3        1.0  0.26232  0.40418  0.18113  1.0000
  C   C4        1.0  0.57695  0.83582  0.34763  1.0000
  N   N2        1.0  0.57755  0.78217  0.27001  1.0000
  C   C5        1.0  0.57855  0.81766  0.26598  1.0000
  O   O2        1.0  0.57606  0.83216  0.18344  1.0000
  C   C6        1.0  0.61391  0.85498  0.14013  1.0000
  H   H4        1.0  0.60930  0.86582  0.07581  1.0000
  H   H5        1.0  0.62750  0.83686  0.12603  1.0000
  H   H6        1.0  0.63409  0.88055  0.18107  1.0000
  C   C7        1.0  0.20241  0.76348  0.34775  1.0000
  N   N3        1.0  0.25610  0.81767  0.27011  1.0000
  C   C8        1.0  0.22060  0.78320  0.26609  1.0000
  O   O3        1.0  0.20611  0.76618  0.18355  1.0000
  C   C9        1.0  0.18329  0.78121  0.14020  1.0000
  H   H7        1.0  0.17245  0.76575  0.07588  1.0000
  H   H8        1.0  0.20140  0.81292  0.12609  1.0000
  H   H9        1.0  0.15770  0.77580  0.18111  1.0000
  C   C10       1.0  0.76125  0.57900  0.34772  1.0000
  N   N4        1.0  0.81546  0.57953  0.27010  1.0000
  C   C11       1.0  0.78097  0.58052  0.26606  1.0000
  O   O4        1.0  0.76394  0.57797  0.18352  1.0000
  C   C12       1.0  0.77896  0.61580  0.14010  1.0000
  H   H10       1.0  0.76349  0.61116  0.07579  1.0000
  H   H11       1.0  0.81067  0.62940  0.12597  1.0000
  H   H12       1.0  0.77356  0.63599  0.18098  1.0000
  C   C13       1.0  0.45914  0.20460  0.34768  1.0000
  N   N5        1.0  0.45840  0.25816  0.27004  1.0000
  C   C14       1.0  0.45741  0.22268  0.26602  1.0000
  O   O5        1.0  0.45982  0.20812  0.18348  1.0000
  C   C15       1.0  0.42193  0.18529  0.14036  1.0000
  H   H13       1.0  0.42647  0.17440  0.07602  1.0000
  H   H14       1.0  0.40833  0.20340  0.12630  1.0000
  H   H15       1.0  0.40179  0.15974  0.18141  1.0000
  C   C16       1.0  0.83357  0.27691  0.34765  1.0000
  N   N6        1.0  0.77999  0.22262  0.27000  1.0000
  C   C17       1.0  0.81547  0.25711  0.26599  1.0000
  O   O6        1.0  0.83001  0.27409  0.18345  1.0000
  C   C18       1.0  0.85284  0.25903  0.14027  1.0000
  H   H16       1.0  0.86371  0.27447  0.07594  1.0000
  H   H17       1.0  0.83472  0.22732  0.12620  1.0000
  H   H18       1.0  0.87840  0.26444  0.18129  1.0000
  N   N7        1.0  0.15228  0.56974  0.26975  1.0000
  C   C19       1.0  0.15342  0.60520  0.26646  1.0000
  C   C20       1.0  0.15239  0.62313  0.34886  1.0000
  O   O7        1.0  0.15034  0.61967  0.18434  1.0000
  C   C21       1.0  0.18805  0.64365  0.14121  1.0000
  H   H19       1.0  0.18291  0.65398  0.07674  1.0000
  H   H20       1.0  0.20280  0.62660  0.12737  1.0000
  H   H21       1.0  0.20745  0.66959  0.18210  1.0000
  N   N8        1.0  0.46853  0.60496  0.26983  1.0000
  C   C22       1.0  0.43306  0.57065  0.26654  1.0000
  C   C23       1.0  0.41507  0.55173  0.34895  1.0000
  O   O8        1.0  0.41862  0.55307  0.18444  1.0000
  C   C24       1.0  0.39466  0.56679  0.14115  1.0000
  H   H22       1.0  0.38436  0.55129  0.07670  1.0000
  H   H23       1.0  0.41172  0.59859  0.12726  1.0000
  H   H24       1.0  0.36870  0.56026  0.18196  1.0000
  N   N9        1.0  0.43328  0.88592  0.26996  1.0000
  C   C25       1.0  0.46759  0.88477  0.26667  1.0000
  C   C26       1.0  0.48653  0.88574  0.34908  1.0000
  O   O9        1.0  0.48516  0.88790  0.18456  1.0000
  C   C27       1.0  0.47144  0.85022  0.14129  1.0000
  H   H25       1.0  0.48693  0.85540  0.07684  1.0000
  H   H26       1.0  0.43964  0.83548  0.12741  1.0000
  H   H27       1.0  0.47797  0.83079  0.18211  1.0000
  N   N10       1.0  0.88379  0.47071  0.26991  1.0000
  C   C28       1.0  0.88263  0.43525  0.26658  1.0000
  C   C29       1.0  0.88357  0.41725  0.34896  1.0000
  O   O10       1.0  0.88575  0.42081  0.18446  1.0000
  C   C30       1.0  0.84806  0.39685  0.14121  1.0000
  H   H28       1.0  0.85324  0.38654  0.07674  1.0000
  H   H29       1.0  0.83332  0.41391  0.12736  1.0000
  H   H30       1.0  0.82864  0.37089  0.18203  1.0000
  N   N11       1.0  0.56749  0.43540  0.26983  1.0000
  C   C31       1.0  0.60296  0.46971  0.26652  1.0000
  C   C32       1.0  0.62089  0.48867  0.34893  1.0000
  O   O11       1.0  0.61742  0.48725  0.18440  1.0000
  C   C33       1.0  0.64139  0.47352  0.14125  1.0000
  H   H31       1.0  0.65173  0.48900  0.07678  1.0000
  H   H32       1.0  0.62434  0.44172  0.12742  1.0000
  H   H33       1.0  0.66734  0.48007  0.18214  1.0000
  N   N12       1.0  0.60273  0.15440  0.26982  1.0000
  C   C34       1.0  0.56842  0.15556  0.26654  1.0000
  C   C35       1.0  0.54951  0.15463  0.34895  1.0000
  O   O12       1.0  0.55084  0.15241  0.18445  1.0000
  C   C36       1.0  0.56455  0.19008  0.14114  1.0000
  H   H34       1.0  0.54905  0.18488  0.07669  1.0000
  H   H35       1.0  0.59635  0.20482  0.12724  1.0000
  H   H36       1.0  0.55802  0.20951  0.18195  1.0000
  C   C37       1.0  0.97626  0.37256  0.34723  1.0000
  N   N13       1.0  0.03847  0.40478  0.26952  1.0000
  C   C38       1.0  0.99813  0.38337  0.26543  1.0000
  O   O13       1.0  0.98006  0.37881  0.18339  1.0000
  C   C39       1.0  0.97547  0.34495  0.13424  1.0000
  H   H37       1.0  0.96042  0.34312  0.07067  1.0000
  H   H38       1.0  0.95739  0.31749  0.17184  1.0000
  H   H39       1.0  0.00417  0.34780  0.11830  1.0000
  C   C40       1.0  0.66559  0.62605  0.34735  1.0000
  N   N14       1.0  0.63338  0.65602  0.26950  1.0000
  C   C41       1.0  0.65478  0.63707  0.26548  1.0000
  O   O14       1.0  0.65936  0.62355  0.18347  1.0000
  C   C42       1.0  0.69324  0.65281  0.13435  1.0000
  H   H40       1.0  0.69507  0.63957  0.07080  1.0000
  H   H41       1.0  0.72068  0.66218  0.17198  1.0000
  H   H42       1.0  0.69041  0.67867  0.11836  1.0000
  C   C43       1.0  0.41214  0.06188  0.34737  1.0000
  N   N15       1.0  0.38225  0.99968  0.26972  1.0000
  C   C44       1.0  0.40120  0.04002  0.26557  1.0000
  O   O15       1.0  0.41479  0.05807  0.18354  1.0000
  C   C45       1.0  0.38558  0.06269  0.13420  1.0000
  H   H43       1.0  0.39887  0.07773  0.07063  1.0000
  H   H44       1.0  0.37621  0.08081  0.17166  1.0000
  H   H45       1.0  0.35971  0.03401  0.11822  1.0000
  C   C46       1.0  0.05969  0.66781  0.34741  1.0000
  N   N16       1.0  0.99749  0.63548  0.26975  1.0000
  C   C47       1.0  0.03783  0.65687  0.26560  1.0000
  O   O16       1.0  0.05587  0.66132  0.18358  1.0000
  C   C48       1.0  0.06052  0.69516  0.13424  1.0000
  H   H46       1.0  0.07555  0.69689  0.07067  1.0000
  H   H47       1.0  0.07866  0.72265  0.17169  1.0000
  H   H48       1.0  0.03185  0.69237  0.11827  1.0000
  C   C49       1.0  0.37042  0.41435  0.34734  1.0000
  N   N17       1.0  0.40258  0.38434  0.26957  1.0000
  C   C50       1.0  0.38120  0.40330  0.26549  1.0000
  O   O17       1.0  0.37664  0.41682  0.18347  1.0000
  C   C51       1.0  0.34278  0.38756  0.13431  1.0000
  H   H49       1.0  0.34096  0.40081  0.07075  1.0000
  H   H50       1.0  0.31532  0.37818  0.17190  1.0000
  H   H51       1.0  0.34562  0.36171  0.11834  1.0000
  C   C52       1.0  0.62388  0.97850  0.34727  1.0000
  N   N18       1.0  0.65391  0.04065  0.26942  1.0000
  C   C53       1.0  0.63498  0.00030  0.26539  1.0000
  O   O18       1.0  0.62153  0.98220  0.18338  1.0000
  C   C54       1.0  0.65085  0.97762  0.13441  1.0000
  H   H52       1.0  0.63766  0.96252  0.07084  1.0000
  H   H53       1.0  0.66024  0.95958  0.17214  1.0000
  H   H54       1.0  0.67670  0.00633  0.11844  1.0000
  C   C55       1.0  0.10022  0.44391  0.34500  1.0000
  N   N19       1.0  0.13114  0.43669  0.34596  1.0000
  C   C56       1.0  0.16951  0.46726  0.34561  1.0000
  N   N20       1.0  0.17647  0.50516  0.34586  1.0000
  C   C57       1.0  0.14607  0.51282  0.34494  1.0000
  N   N21       1.0  0.10832  0.48208  0.34509  1.0000
  C   C58       1.0  0.59433  0.67869  0.34505  1.0000
  N   N22       1.0  0.60158  0.71683  0.34603  1.0000
  C   C59       1.0  0.57104  0.72467  0.34571  1.0000
  N   N23       1.0  0.53312  0.69375  0.34595  1.0000
  C   C60       1.0  0.52543  0.65569  0.34501  1.0000
  N   N24       1.0  0.55615  0.64864  0.34513  1.0000
  C   C61       1.0  0.35951  0.93797  0.34532  1.0000
  N   N25       1.0  0.32137  0.90706  0.34626  1.0000
  C   C62       1.0  0.31355  0.86869  0.34588  1.0000
  N   N26       1.0  0.34449  0.86171  0.34604  1.0000
  C   C63       1.0  0.38254  0.89209  0.34509  1.0000
  N   N27       1.0  0.38957  0.92985  0.34530  1.0000
  C   C64       1.0  0.93579  0.59650  0.34536  1.0000
  N   N28       1.0  0.90487  0.60371  0.34626  1.0000
  C   C65       1.0  0.86650  0.57314  0.34584  1.0000
  N   N29       1.0  0.85954  0.53524  0.34605  1.0000
  C   C66       1.0  0.88994  0.52759  0.34517  1.0000
  N   N30       1.0  0.92770  0.55834  0.34536  1.0000
  C   C67       1.0  0.44166  0.36166  0.34504  1.0000
  N   N31       1.0  0.43443  0.32352  0.34601  1.0000
  C   C68       1.0  0.46498  0.31570  0.34569  1.0000
  N   N32       1.0  0.50290  0.34663  0.34595  1.0000
  C   C69       1.0  0.51057  0.38469  0.34502  1.0000
  N   N33       1.0  0.47984  0.39172  0.34514  1.0000
  C   C70       1.0  0.67649  0.10237  0.34497  1.0000
  N   N34       1.0  0.71464  0.13327  0.34595  1.0000
  C   C71       1.0  0.72246  0.17164  0.34565  1.0000
  N   N35       1.0  0.69154  0.17863  0.34593  1.0000
  C   C72       1.0  0.65348  0.14826  0.34499  1.0000
  N   N36       1.0  0.64644  0.11049  0.34509  1.0000
  C   C73       1.0  0.44182  0.10234  0.34977  1.0000
  N   N37       1.0  0.43459  0.13325  0.34855  1.0000
  C   C74       1.0  0.46514  0.17163  0.34966  1.0000
  N   N38       1.0  0.50305  0.17861  0.35066  1.0000
  C   C75       1.0  0.51072  0.14822  0.35177  1.0000
  N   N39       1.0  0.47999  0.11046  0.35088  1.0000
  C   C76       1.0  0.67635  0.59636  0.34977  1.0000
  N   N40       1.0  0.71447  0.60357  0.34858  1.0000
  C   C77       1.0  0.72228  0.57300  0.34969  1.0000
  N   N41       1.0  0.69134  0.53510  0.35062  1.0000
  C   C78       1.0  0.65329  0.52745  0.35170  1.0000
  N   N42       1.0  0.64628  0.55819  0.35085  1.0000
  C   C79       1.0  0.93582  0.36181  0.34972  1.0000
  N   N43       1.0  0.90490  0.32369  0.34846  1.0000
  C   C80       1.0  0.86654  0.31588  0.34962  1.0000
  N   N44       1.0  0.85957  0.34681  0.35065  1.0000
  C   C81       1.0  0.88997  0.38486  0.35176  1.0000
  N   N45       1.0  0.92772  0.39188  0.35085  1.0000
  C   C82       1.0  0.59421  0.93804  0.34978  1.0000
  N   N46       1.0  0.60145  0.90714  0.34847  1.0000
  C   C83       1.0  0.57091  0.86876  0.34962  1.0000
  N   N47       1.0  0.53300  0.86177  0.35067  1.0000
  C   C84       1.0  0.52532  0.89214  0.35182  1.0000
  N   N48       1.0  0.55604  0.92991  0.35093  1.0000
  C   C85       1.0  0.35966  0.44404  0.34975  1.0000
  N   N49       1.0  0.32152  0.43682  0.34848  1.0000
  C   C86       1.0  0.31371  0.46738  0.34958  1.0000
  N   N50       1.0  0.34464  0.50529  0.35059  1.0000
  C   C87       1.0  0.38269  0.51294  0.35176  1.0000
  N   N51       1.0  0.38972  0.48221  0.35089  1.0000
  C   C88       1.0  0.10015  0.67857  0.34980  1.0000
  N   N52       1.0  0.13106  0.71670  0.34865  1.0000
  C   C89       1.0  0.16944  0.72451  0.34972  1.0000
  N   N53       1.0  0.17640  0.69357  0.35060  1.0000
  C   C90       1.0  0.14600  0.65552  0.35165  1.0000
  N   N54       1.0  0.10824  0.64850  0.35082  1.0000
  N   N55       1.0  0.25767  0.46381  0.42593  1.0000
  C   C91       1.0  0.22223  0.46286  0.43016  1.0000
  C   C92       1.0  0.20246  0.46125  0.34851  1.0000
  O   O19       1.0  0.20903  0.46791  0.51212  1.0000
  C   C93       1.0  0.18628  0.43134  0.56057  1.0000
  H   H55       1.0  0.17659  0.43792  0.62426  1.0000
  H   H56       1.0  0.20409  0.41757  0.57635  1.0000
  H   H57       1.0  0.15996  0.41049  0.52260  1.0000
  N   N56       1.0  0.57448  0.81629  0.42594  1.0000
  C   C94       1.0  0.57541  0.78179  0.43019  1.0000
  C   C95       1.0  0.57708  0.76365  0.34857  1.0000
  O   O20       1.0  0.57031  0.76352  0.51215  1.0000
  C   C96       1.0  0.60685  0.77732  0.56072  1.0000
  H   H58       1.0  0.60023  0.76104  0.62440  1.0000
  H   H59       1.0  0.62062  0.80889  0.57652  1.0000
  H   H60       1.0  0.62772  0.77185  0.52283  1.0000
  N   N57       1.0  0.22187  0.78059  0.42611  1.0000
  C   C97       1.0  0.25637  0.81602  0.43035  1.0000
  C   C98       1.0  0.27459  0.83572  0.34868  1.0000
  O   O21       1.0  0.27460  0.82925  0.51234  1.0000
  C   C99       1.0  0.26075  0.85201  0.56067  1.0000
  H   H61       1.0  0.27700  0.86172  0.62437  1.0000
  H   H62       1.0  0.22917  0.83420  0.57638  1.0000
  H   H63       1.0  0.26623  0.87832  0.52262  1.0000
  N   N58       1.0  0.77836  0.57666  0.42608  1.0000
  C   C100      1.0  0.81380  0.57761  0.43033  1.0000
  C   C101      1.0  0.83353  0.57913  0.34868  1.0000
  O   O22       1.0  0.82703  0.57263  0.51232  1.0000
  C   C102      1.0  0.84978  0.60923  0.56064  1.0000
  H   H64       1.0  0.85949  0.60271  0.62436  1.0000
  H   H65       1.0  0.83197  0.62300  0.57635  1.0000
  H   H66       1.0  0.87609  0.63007  0.52260  1.0000
  N   N59       1.0  0.46164  0.22414  0.42601  1.0000
  C   C103      1.0  0.46069  0.25863  0.43022  1.0000
  C   C104      1.0  0.45896  0.27673  0.34858  1.0000
  O   O23       1.0  0.46582  0.27692  0.51216  1.0000
  C   C105      1.0  0.42930  0.26313  0.56078  1.0000
  H   H67       1.0  0.43594  0.27943  0.62444  1.0000
  H   H68       1.0  0.41553  0.23156  0.57660  1.0000
  H   H69       1.0  0.40842  0.26860  0.52291  1.0000
  N   N60       1.0  0.81402  0.25986  0.42596  1.0000
  C   C106      1.0  0.77954  0.22442  0.43018  1.0000
  C   C107      1.0  0.76143  0.20458  0.34855  1.0000
  O   O24       1.0  0.76125  0.21124  0.51212  1.0000
  C   C108      1.0  0.77505  0.18852  0.56074  1.0000
  H   H70       1.0  0.75875  0.17886  0.62440  1.0000
  H   H71       1.0  0.80662  0.20633  0.57657  1.0000
  H   H72       1.0  0.76959  0.16218  0.52287  1.0000
  C   C109      1.0  0.15243  0.55158  0.34822  1.0000
  N   N61       1.0  0.15092  0.60418  0.42729  1.0000
  C   C110      1.0  0.15203  0.56984  0.43064  1.0000
  O   O25       1.0  0.14784  0.55176  0.51253  1.0000
  C   C111      1.0  0.18500  0.56492  0.55787  1.0000
  H   H73       1.0  0.17900  0.54907  0.62204  1.0000
  H   H74       1.0  0.19986  0.59666  0.57253  1.0000
  H   H75       1.0  0.20468  0.55834  0.51815  1.0000
  C   C112      1.0  0.48665  0.62331  0.34828  1.0000
  N   N62       1.0  0.43403  0.56925  0.42735  1.0000
  C   C113      1.0  0.46837  0.60468  0.43071  1.0000
  O   O26       1.0  0.48644  0.61859  0.51260  1.0000
  C   C114      1.0  0.47329  0.64261  0.55786  1.0000
  H   H76       1.0  0.48912  0.65247  0.62204  1.0000
  H   H77       1.0  0.44154  0.62574  0.57249  1.0000
  H   H78       1.0  0.47988  0.66886  0.51809  1.0000
  C   C115      1.0  0.41493  0.88570  0.34840  1.0000
  N   N63       1.0  0.46901  0.88718  0.42747  1.0000
  C   C116      1.0  0.43358  0.88609  0.43081  1.0000
  O   O27       1.0  0.41968  0.89027  0.51270  1.0000
  C   C117      1.0  0.39566  0.85310  0.55801  1.0000
  H   H79       1.0  0.38581  0.85909  0.62218  1.0000
  H   H80       1.0  0.41253  0.83823  0.57266  1.0000
  H   H81       1.0  0.36941  0.83344  0.51827  1.0000
  C   C118      1.0  0.88359  0.48882  0.34840  1.0000
  N   N64       1.0  0.88500  0.43618  0.42741  1.0000
  C   C119      1.0  0.88392  0.47052  0.43081  1.0000
  O   O28       1.0  0.88807  0.48857  0.51273  1.0000
  C   C120      1.0  0.85088  0.47540  0.55797  1.0000
  H   H82       1.0  0.85685  0.49122  0.62217  1.0000
  H   H83       1.0  0.83601  0.44366  0.57257  1.0000
  H   H84       1.0  0.83123  0.48200  0.51821  1.0000
  C   C121      1.0  0.54934  0.41709  0.34830  1.0000
  N   N65       1.0  0.60194  0.47118  0.42735  1.0000
  C   C122      1.0  0.56760  0.43575  0.43072  1.0000
  O   O29       1.0  0.54952  0.42185  0.51261  1.0000
  C   C123      1.0  0.56268  0.39784  0.55793  1.0000
  H   H85       1.0  0.54683  0.38800  0.62210  1.0000
  H   H86       1.0  0.59442  0.41472  0.57259  1.0000
  H   H87       1.0  0.55609  0.37159  0.51821  1.0000
  C   C124      1.0  0.62109  0.15464  0.34827  1.0000
  N   N66       1.0  0.56704  0.15321  0.42735  1.0000
  C   C125      1.0  0.60247  0.15430  0.43071  1.0000
  O   O30       1.0  0.61638  0.15015  0.51259  1.0000
  C   C126      1.0  0.64041  0.18733  0.55784  1.0000
  H   H88       1.0  0.65027  0.18136  0.62201  1.0000
  H   H89       1.0  0.62353  0.20220  0.57248  1.0000
  H   H90       1.0  0.66665  0.20699  0.51807  1.0000
  N   N67       1.0  0.99759  0.38449  0.42539  1.0000
  C   C127      1.0  0.03792  0.40335  0.42953  1.0000
  C   C128      1.0  0.05978  0.41422  0.34772  1.0000
  O   O31       1.0  0.05601  0.41699  0.51149  1.0000
  C   C129      1.0  0.06089  0.38790  0.56066  1.0000
  H   H91       1.0  0.07589  0.40122  0.62424  1.0000
  H   H92       1.0  0.07916  0.37875  0.52309  1.0000
  H   H93       1.0  0.03230  0.36190  0.57660  1.0000
  N   N68       1.0  0.65377  0.63553  0.42554  1.0000
  C   C130      1.0  0.63494  0.65704  0.42964  1.0000
  C   C131      1.0  0.62398  0.66787  0.34775  1.0000
  O   O32       1.0  0.62137  0.66160  0.51159  1.0000
  C   C132      1.0  0.65052  0.69562  0.56053  1.0000
  H   H94       1.0  0.63726  0.69739  0.62412  1.0000
  H   H95       1.0  0.65968  0.72300  0.52280  1.0000
  H   H96       1.0  0.67651  0.69302  0.57647  1.0000
  N   N69       1.0  0.40260  0.04061  0.42562  1.0000
  C   C133      1.0  0.38110  0.00028  0.42978  1.0000
  C   C134      1.0  0.37028  0.97842  0.34798  1.0000
  O   O33       1.0  0.37650  0.98219  0.51180  1.0000
  C   C135      1.0  0.34247  0.97735  0.56063  1.0000
  H   H97       1.0  0.34068  0.96235  0.62428  1.0000
  H   H98       1.0  0.31511  0.95912  0.52287  1.0000
  H   H99       1.0  0.34508  0.00596  0.57643  1.0000
  N   N70       1.0  0.03843  0.65608  0.42565  1.0000
  C   C136      1.0  0.99809  0.63725  0.42982  1.0000
  C   C137      1.0  0.97623  0.62619  0.34802  1.0000
  O   O34       1.0  0.98000  0.62376  0.51184  1.0000
  C   C138      1.0  0.97515  0.65295  0.56064  1.0000
  H   H100      1.0  0.96015  0.63975  0.62430  1.0000
  H   H101      1.0  0.95691  0.66207  0.52287  1.0000
  H   H102      1.0  0.00375  0.67896  0.57644  1.0000
  N   N71       1.0  0.38228  0.40491  0.42552  1.0000
  C   C139      1.0  0.40111  0.38339  0.42960  1.0000
  C   C140      1.0  0.41199  0.37243  0.34777  1.0000
  O   O35       1.0  0.41471  0.37888  0.51155  1.0000
  C   C141      1.0  0.38559  0.34488  0.56059  1.0000
  H   H103      1.0  0.39887  0.34316  0.62418  1.0000
  H   H104      1.0  0.37644  0.31749  0.52293  1.0000
  H   H105      1.0  0.35958  0.34747  0.57652  1.0000
  N   N72       1.0  0.63328  0.99977  0.42550  1.0000
  C   C142      1.0  0.65477  0.04011  0.42959  1.0000
  C   C143      1.0  0.66569  0.06190  0.34770  1.0000
  O   O36       1.0  0.65928  0.05824  0.51152  1.0000
  C   C144      1.0  0.69327  0.06313  0.56059  1.0000
  H   H106      1.0  0.69500  0.07816  0.62416  1.0000
  H   H107      1.0  0.72067  0.08136  0.52293  1.0000
  H   H108      1.0  0.69068  0.03454  0.57657  1.0000
