data_image0
_chemical_formula_structural       C2NCHC3H2COCHC2NCHC3H2COCH5C2OC2NC2OCHCNHC4HC4HC4NOCHC4NOCHC2NOCHC2NOCHC2NOCHC3HCHC6H3C6H3C2NOCHC2NOCHC4NOCHC4NOCHC4NOCHC4NOCHC4NOCHC2NOCHC2NOCHC2NOCHC3HCHC6H3C6H3C2NOCHC2NOCHC4NOCHC4NOCHC4NOCHC4NOCHC4NOCHC4NOCHC2NOCHC2NOCHC2NOCHC6H3C6H3C6H3C6H3C2NOCHC2NOC3NOC5NOCHC4NOCHC4NOCHC4NOCHC4NOCHC4NOCHC2NOCHC2NOCHC2NOCHC6H3C6H3C6H3C6H3C2NOCHC2NOC3NOC5NOCHC4NOCHC4NOCH
_chemical_formula_sum              "C288 N48 H96 O48"
_cell_length_a       45.8482
_cell_length_b       45.8694
_cell_length_c       14.8434
_cell_angle_alpha    90
_cell_angle_beta     90
_cell_angle_gamma    119.989

_space_group_name_H-M_alt    "P 1"
_space_group_IT_number       1

loop_
  _space_group_symop_operation_xyz
  'x, y, z'

loop_
  _atom_site_type_symbol
  _atom_site_label
  _atom_site_symmetry_multiplicity
  _atom_site_fract_x
  _atom_site_fract_y
  _atom_site_fract_z
  _atom_site_occupancy
  C   C1        1.0  0.09697  0.03284  0.28600  1.0000
  C   C2        1.0  0.07752  0.04021  0.34612  1.0000
  N   N1        1.0  0.08710  0.01033  0.21966  1.0000
  C   C3        1.0  0.11544  0.01419  0.18230  1.0000
  H   H1        1.0  0.11525  0.00040  0.12806  1.0000
  C   C4        1.0  0.04135  0.02203  0.34564  1.0000
  C   C5        1.0  0.02283  0.03919  0.34549  1.0000
  C   C6        1.0  0.02289  0.48628  0.34498  1.0000
  H   H2        1.0  0.03586  0.47348  0.34530  1.0000
  H   H3        1.0  0.03571  0.06494  0.34279  1.0000
  C   C7        1.0  0.09648  0.06704  0.40673  1.0000
  O   O1        1.0  0.08396  0.07830  0.47292  1.0000
  C   C8        1.0  0.11307  0.10303  0.51060  1.0000
  H   H4        1.0  0.11317  0.11686  0.56461  1.0000
  C   C9        1.0  0.09688  0.53267  0.28567  1.0000
  C   C10       1.0  0.07746  0.54012  0.34569  1.0000
  N   N2        1.0  0.08696  0.51007  0.21954  1.0000
  C   C11       1.0  0.11528  0.51388  0.18214  1.0000
  H   H5        1.0  0.11505  0.50003  0.12803  1.0000
  C   C12       1.0  0.04129  0.52196  0.34528  1.0000
  C   C13       1.0  0.02278  0.53912  0.34472  1.0000
  C   C14       1.0  0.02295  0.98635  0.34495  1.0000
  H   H6        1.0  0.03594  0.97357  0.34479  1.0000
  H   H7        1.0  0.03566  0.56487  0.34185  1.0000
  C   C15       1.0  0.09645  0.56704  0.40604  1.0000
  O   O2        1.0  0.08396  0.57839  0.47207  1.0000
  C   C16       1.0  0.11309  0.60317  0.50954  1.0000
  H   H8        1.0  0.11322  0.61708  0.56340  1.0000
  H   H9        1.0  0.01169  0.12026  0.55259  1.0000
  H   H10       1.0  0.01314  0.39620  0.55748  1.0000
  H   H11       1.0  0.01151  0.62013  0.55166  1.0000
  H   H12       1.0  0.01457  0.89589  0.55269  1.0000
  C   C17       1.0  0.15136  0.07722  0.34672  1.0000
  C   C18       1.0  0.13230  0.05044  0.28584  1.0000
  O   O3        1.0  0.14461  0.03919  0.21905  1.0000
  C   C19       1.0  0.18762  0.09531  0.34739  1.0000
  C   C20       1.0  0.13182  0.08452  0.40699  1.0000
  N   N3        1.0  0.14148  0.10688  0.47372  1.0000
  C   C21       1.0  0.15130  0.57714  0.34599  1.0000
  C   C22       1.0  0.13221  0.55028  0.28535  1.0000
  O   O4        1.0  0.14447  0.53894  0.21866  1.0000
  C   C23       1.0  0.18757  0.59523  0.34649  1.0000
  H   H13       1.0  0.19354  0.55227  0.33406  1.0000
  C   C24       1.0  0.13179  0.58452  0.40617  1.0000
  N   N4        1.0  0.14149  0.60696  0.47267  1.0000
  H   H14       1.0  0.19359  0.05235  0.33487  1.0000
  C   C25       1.0  0.24167  0.09551  0.33873  1.0000
  C   C26       1.0  0.24184  0.14894  0.35734  1.0000
  C   C27       1.0  0.20623  0.13101  0.35581  1.0000
  C   C28       1.0  0.20608  0.07804  0.33948  1.0000
  H   H15       1.0  0.19384  0.14433  0.36006  1.0000
  C   C29       1.0  0.24161  0.59544  0.33759  1.0000
  C   C30       1.0  0.24179  0.64887  0.35614  1.0000
  C   C31       1.0  0.20618  0.63094  0.35477  1.0000
  C   C32       1.0  0.20603  0.57797  0.33854  1.0000
  H   H16       1.0  0.19380  0.64426  0.35905  1.0000
  C   C33       1.0  0.43212  0.07691  0.33979  1.0000
  C   C34       1.0  0.42388  0.04918  0.28208  1.0000
  C   C35       1.0  0.44172  0.03170  0.28400  1.0000
  C   C36       1.0  0.46899  0.03998  0.34341  1.0000
  N   N5        1.0  0.42858  0.00822  0.22009  1.0000
  O   O5        1.0  0.39972  0.03687  0.21686  1.0000
  C   C37       1.0  0.40384  0.01154  0.18225  1.0000
  H   H17       1.0  0.38958  0.99669  0.13025  1.0000
  C   C38       1.0  0.43234  0.35780  0.34810  1.0000
  C   C39       1.0  0.42355  0.37652  0.28923  1.0000
  C   C40       1.0  0.44141  0.41184  0.28813  1.0000
  C   C41       1.0  0.46912  0.43150  0.34571  1.0000
  N   N6        1.0  0.42773  0.42135  0.22361  1.0000
  O   O6        1.0  0.39877  0.36381  0.22574  1.0000
  C   C42       1.0  0.40268  0.39283  0.18855  1.0000
  H   H18       1.0  0.38802  0.39278  0.13674  1.0000
  C   C43       1.0  0.31055  0.08463  0.24632  1.0000
  C   C44       1.0  0.28057  0.08568  0.24923  1.0000
  N   N7        1.0  0.27813  0.09873  0.17131  1.0000
  O   O7        1.0  0.32716  0.09733  0.16701  1.0000
  C   C45       1.0  0.30517  0.10433  0.12310  1.0000
  H   H19       1.0  0.31054  0.11597  0.06181  1.0000
  C   C46       1.0  0.42575  0.23066  0.25415  1.0000
  C   C47       1.0  0.42467  0.19965  0.25202  1.0000
  N   N8        1.0  0.41177  0.18565  0.17249  1.0000
  O   O8        1.0  0.41309  0.23594  0.17662  1.0000
  C   C48       1.0  0.40675  0.20815  0.12770  1.0000
  H   H20       1.0  0.39400  0.20240  0.06804  1.0000
  C   C49       1.0  0.27440  0.20470  0.28886  1.0000
  C   C50       1.0  0.30533  0.23488  0.28960  1.0000
  N   N9        1.0  0.31340  0.24420  0.20406  1.0000
  O   O9        1.0  0.26311  0.19491  0.20311  1.0000
  C   C51       1.0  0.28752  0.22124  0.15498  1.0000
  H   H21       1.0  0.28773  0.22158  0.08629  1.0000
  C   C52       1.0  0.48713  0.02193  0.34450  1.0000
  C   C53       1.0  0.46993  0.48617  0.34351  1.0000
  C   C54       1.0  0.48718  0.46771  0.34446  1.0000
  H   H22       1.0  0.44417  0.47328  0.34616  1.0000
  C   C55       1.0  0.25903  0.13080  0.34824  1.0000
  H   H23       1.0  0.28489  0.14365  0.34840  1.0000
  C   C56       1.0  0.41401  0.14900  0.33450  1.0000
  C   C57       1.0  0.37852  0.13080  0.33379  1.0000
  C   C58       1.0  0.36025  0.09534  0.33238  1.0000
  C   C59       1.0  0.37824  0.07775  0.33542  1.0000
  C   C60       1.0  0.41406  0.09506  0.33830  1.0000
  C   C61       1.0  0.43149  0.13089  0.33770  1.0000
  H   H24       1.0  0.36493  0.05199  0.33592  1.0000
  H   H25       1.0  0.45726  0.14408  0.33640  1.0000
  H   H26       1.0  0.36560  0.14375  0.33199  1.0000
  C   C62       1.0  0.36084  0.26763  0.36040  1.0000
  C   C63       1.0  0.37914  0.25050  0.35484  1.0000
  C   C64       1.0  0.41451  0.26787  0.34672  1.0000
  C   C65       1.0  0.43190  0.30344  0.34487  1.0000
  C   C66       1.0  0.41439  0.32169  0.34994  1.0000
  C   C67       1.0  0.37866  0.30321  0.35683  1.0000
  H   H27       1.0  0.45752  0.31608  0.33733  1.0000
  H   H28       1.0  0.36546  0.31571  0.36167  1.0000
  H   H29       1.0  0.36633  0.22464  0.35564  1.0000
  C   C68       1.0  0.47726  0.06773  0.40102  1.0000
  C   C69       1.0  0.45946  0.08525  0.39902  1.0000
  N   N10       1.0  0.47268  0.10876  0.46282  1.0000
  O   O10       1.0  0.50155  0.08012  0.46589  1.0000
  C   C70       1.0  0.49753  0.10553  0.50029  1.0000
  H   H30       1.0  0.51169  0.12026  0.55259  1.0000
  C   C71       1.0  0.47778  0.41270  0.40480  1.0000
  C   C72       1.0  0.46003  0.37739  0.40559  1.0000
  N   N11       1.0  0.47360  0.36774  0.47002  1.0000
  O   O11       1.0  0.50236  0.42526  0.46887  1.0000
  C   C73       1.0  0.49854  0.39621  0.50558  1.0000
  H   H31       1.0  0.51314  0.39620  0.55748  1.0000
  C   C74       1.0  0.26139  0.07970  0.32893  1.0000
  C   C75       1.0  0.27417  0.07203  0.40664  1.0000
  C   C76       1.0  0.30510  0.07279  0.40495  1.0000
  C   C77       1.0  0.32460  0.07958  0.32576  1.0000
  N   N12       1.0  0.31341  0.07137  0.49014  1.0000
  O   O12       1.0  0.26321  0.07063  0.49272  1.0000
  C   C78       1.0  0.28773  0.06857  0.53998  1.0000
  H   H32       1.0  0.28809  0.06826  0.60865  1.0000
  C   C79       1.0  0.42990  0.18469  0.32924  1.0000
  C   C80       1.0  0.43729  0.20359  0.40988  1.0000
  C   C81       1.0  0.43658  0.23380  0.41300  1.0000
  C   C82       1.0  0.43029  0.24815  0.33620  1.0000
  N   N13       1.0  0.43724  0.24168  0.49962  1.0000
  O   O13       1.0  0.43784  0.19222  0.49431  1.0000
  C   C83       1.0  0.43962  0.21780  0.54566  1.0000
  H   H33       1.0  0.43938  0.21701  0.61430  1.0000
  C   C84       1.0  0.32523  0.24767  0.36818  1.0000
  C   C85       1.0  0.31150  0.22874  0.44795  1.0000
  C   C86       1.0  0.28138  0.19784  0.44599  1.0000
  C   C87       1.0  0.26179  0.18445  0.36704  1.0000
  N   N14       1.0  0.27916  0.18256  0.52413  1.0000
  O   O14       1.0  0.32841  0.23278  0.52677  1.0000
  C   C88       1.0  0.30645  0.20401  0.57148  1.0000
  H   H34       1.0  0.31196  0.19788  0.63278  1.0000
  C   C89       1.0  0.43206  0.57684  0.33855  1.0000
  C   C90       1.0  0.42385  0.54913  0.28080  1.0000
  C   C91       1.0  0.44170  0.53165  0.28278  1.0000
  C   C92       1.0  0.46894  0.53993  0.34227  1.0000
  N   N15       1.0  0.42858  0.50818  0.21884  1.0000
  O   O15       1.0  0.39971  0.53682  0.21552  1.0000
  C   C93       1.0  0.40386  0.51150  0.18093  1.0000
  H   H35       1.0  0.38961  0.49665  0.12890  1.0000
  C   C94       1.0  0.43233  0.85777  0.34743  1.0000
  C   C95       1.0  0.42318  0.87660  0.29001  1.0000
  C   C96       1.0  0.44106  0.91192  0.28919  1.0000
  C   C97       1.0  0.46916  0.93152  0.34567  1.0000
  N   N16       1.0  0.42695  0.92151  0.22607  1.0000
  O   O16       1.0  0.39798  0.86399  0.22771  1.0000
  C   C98       1.0  0.40164  0.89304  0.19157  1.0000
  H   H36       1.0  0.38663  0.89307  0.14080  1.0000
  C   C99       1.0  0.31047  0.58452  0.24512  1.0000
  C   C100      1.0  0.28049  0.58558  0.24807  1.0000
  N   N17       1.0  0.27806  0.59864  0.17014  1.0000
  O   O17       1.0  0.32707  0.59721  0.16581  1.0000
  C   C101      1.0  0.30509  0.60422  0.12192  1.0000
  H   H37       1.0  0.31045  0.61586  0.06062  1.0000
  C   C102      1.0  0.42562  0.73052  0.25254  1.0000
  C   C103      1.0  0.42455  0.69951  0.25053  1.0000
  N   N18       1.0  0.41163  0.68548  0.17104  1.0000
  O   O18       1.0  0.41294  0.73576  0.17499  1.0000
  C   C104      1.0  0.40660  0.70794  0.12616  1.0000
  H   H38       1.0  0.39384  0.70217  0.06651  1.0000
  C   C105      1.0  0.27435  0.70463  0.28765  1.0000
  C   C106      1.0  0.30527  0.73482  0.28838  1.0000
  N   N19       1.0  0.31334  0.74414  0.20284  1.0000
  O   O19       1.0  0.26305  0.69483  0.20190  1.0000
  C   C107      1.0  0.28746  0.72116  0.15377  1.0000
  H   H39       1.0  0.28767  0.72150  0.08507  1.0000
  C   C108      1.0  0.48708  0.52186  0.34354  1.0000
  C   C109      1.0  0.46999  0.98623  0.34437  1.0000
  C   C110      1.0  0.48723  0.96776  0.34474  1.0000
  H   H40       1.0  0.44425  0.97336  0.34732  1.0000
  C   C111      1.0  0.25897  0.63073  0.34698  1.0000
  H   H41       1.0  0.28484  0.64358  0.34704  1.0000
  C   C112      1.0  0.41392  0.64891  0.33318  1.0000
  C   C113      1.0  0.37843  0.63070  0.33254  1.0000
  C   C114      1.0  0.36017  0.59523  0.33116  1.0000
  C   C115      1.0  0.37817  0.57765  0.33419  1.0000
  C   C116      1.0  0.41399  0.59498  0.33703  1.0000
  C   C117      1.0  0.43142  0.63081  0.33638  1.0000
  H   H42       1.0  0.36487  0.55190  0.33471  1.0000
  H   H43       1.0  0.45718  0.64400  0.33504  1.0000
  H   H44       1.0  0.36552  0.64364  0.33073  1.0000
  C   C118      1.0  0.36078  0.76757  0.35915  1.0000
  C   C119      1.0  0.37906  0.75042  0.35321  1.0000
  C   C120      1.0  0.41443  0.76778  0.34504  1.0000
  C   C121      1.0  0.43183  0.80336  0.34343  1.0000
  C   C122      1.0  0.41435  0.82164  0.34895  1.0000
  C   C123      1.0  0.37863  0.80315  0.35602  1.0000
  H   H45       1.0  0.45744  0.81597  0.33576  1.0000
  H   H46       1.0  0.36543  0.81565  0.36129  1.0000
  H   H47       1.0  0.36624  0.72456  0.35385  1.0000
  C   C124      1.0  0.47718  0.56766  0.39993  1.0000
  C   C125      1.0  0.45937  0.58517  0.39787  1.0000
  N   N20       1.0  0.47255  0.60866  0.46173  1.0000
  O   O20       1.0  0.50143  0.58003  0.46489  1.0000
  C   C126      1.0  0.49739  0.60542  0.49929  1.0000
  H   H48       1.0  0.51151  0.62013  0.55166  1.0000
  C   C127      1.0  0.47819  0.91261  0.40330  1.0000
  C   C128      1.0  0.46042  0.87731  0.40379  1.0000
  N   N21       1.0  0.47443  0.86757  0.46681  1.0000
  O   O21       1.0  0.50319  0.92507  0.46621  1.0000
  C   C129      1.0  0.49962  0.89598  0.50184  1.0000
  H   H49       1.0  0.51457  0.89589  0.55269  1.0000
  C   C130      1.0  0.26133  0.57962  0.32777  1.0000
  C   C131      1.0  0.27411  0.57194  0.40548  1.0000
  C   C132      1.0  0.30503  0.57269  0.40377  1.0000
  C   C133      1.0  0.32453  0.57948  0.32457  1.0000
  N   N22       1.0  0.31334  0.57127  0.48895  1.0000
  O   O22       1.0  0.26315  0.57055  0.49156  1.0000
  C   C134      1.0  0.28767  0.56848  0.53880  1.0000
  H   H50       1.0  0.28803  0.56816  0.60748  1.0000
  C   C135      1.0  0.42980  0.68460  0.32779  1.0000
  C   C136      1.0  0.43722  0.70354  0.40836  1.0000
  C   C137      1.0  0.43651  0.73375  0.41137  1.0000
  C   C138      1.0  0.43020  0.74806  0.33452  1.0000
  N   N23       1.0  0.43720  0.74167  0.49796  1.0000
  O   O23       1.0  0.43780  0.69221  0.49282  1.0000
  C   C139      1.0  0.43960  0.71782  0.54409  1.0000
  H   H51       1.0  0.43935  0.71706  0.61273  1.0000
  C   C140      1.0  0.32517  0.74762  0.36696  1.0000
  C   C141      1.0  0.31146  0.72867  0.44673  1.0000
  C   C142      1.0  0.28134  0.69777  0.44478  1.0000
  C   C143      1.0  0.26174  0.68438  0.36583  1.0000
  N   N24       1.0  0.27913  0.68249  0.52290  1.0000
  O   O24       1.0  0.32837  0.73272  0.52553  1.0000
  C   C144      1.0  0.30642  0.70395  0.57025  1.0000
  H   H52       1.0  0.31194  0.69782  0.63154  1.0000
  C   C145      1.0  0.65136  0.07722  0.34672  1.0000
  C   C146      1.0  0.63230  0.05044  0.28584  1.0000
  C   C147      1.0  0.59697  0.03284  0.28600  1.0000
  C   C148      1.0  0.57752  0.04021  0.34612  1.0000
  N   N25       1.0  0.58710  0.01033  0.21966  1.0000
  O   O25       1.0  0.64461  0.03919  0.21905  1.0000
  C   C149      1.0  0.61544  0.01419  0.18230  1.0000
  H   H53       1.0  0.61525  0.00040  0.12806  1.0000
  C   C150      1.0  0.93212  0.07691  0.33979  1.0000
  C   C151      1.0  0.92388  0.04918  0.28208  1.0000
  C   C152      1.0  0.94172  0.03170  0.28400  1.0000
  C   C153      1.0  0.96899  0.03998  0.34341  1.0000
  N   N26       1.0  0.92858  0.00822  0.22009  1.0000
  O   O26       1.0  0.89972  0.03687  0.21686  1.0000
  C   C154      1.0  0.90384  0.01154  0.18225  1.0000
  H   H54       1.0  0.88958  0.99669  0.13025  1.0000
  C   C155      1.0  0.93234  0.35780  0.34810  1.0000
  C   C156      1.0  0.92355  0.37652  0.28923  1.0000
  C   C157      1.0  0.94141  0.41184  0.28813  1.0000
  C   C158      1.0  0.96912  0.43150  0.34571  1.0000
  N   N27       1.0  0.92773  0.42135  0.22361  1.0000
  O   O27       1.0  0.89877  0.36381  0.22574  1.0000
  C   C159      1.0  0.90268  0.39283  0.18855  1.0000
  H   H55       1.0  0.88801  0.39278  0.13674  1.0000
  C   C160      1.0  0.81055  0.08463  0.24632  1.0000
  C   C161      1.0  0.78057  0.08568  0.24923  1.0000
  N   N28       1.0  0.77813  0.09873  0.17131  1.0000
  O   O28       1.0  0.82716  0.09733  0.16701  1.0000
  C   C162      1.0  0.80517  0.10433  0.12310  1.0000
  H   H56       1.0  0.81054  0.11597  0.06181  1.0000
  C   C163      1.0  0.92575  0.23066  0.25415  1.0000
  C   C164      1.0  0.92467  0.19965  0.25202  1.0000
  N   N29       1.0  0.91177  0.18565  0.17249  1.0000
  O   O29       1.0  0.91309  0.23594  0.17662  1.0000
  C   C165      1.0  0.90675  0.20815  0.12770  1.0000
  H   H57       1.0  0.89400  0.20240  0.06804  1.0000
  C   C166      1.0  0.77440  0.20470  0.28886  1.0000
  C   C167      1.0  0.80533  0.23488  0.28960  1.0000
  N   N30       1.0  0.81340  0.24420  0.20406  1.0000
  O   O30       1.0  0.76311  0.19491  0.20311  1.0000
  C   C168      1.0  0.78751  0.22124  0.15498  1.0000
  H   H58       1.0  0.78773  0.22158  0.08629  1.0000
  C   C169      1.0  0.54135  0.02203  0.34564  1.0000
  C   C170      1.0  0.52283  0.03919  0.34549  1.0000
  C   C171      1.0  0.98713  0.02193  0.34450  1.0000
  C   C172      1.0  0.96993  0.48617  0.34351  1.0000
  C   C173      1.0  0.98718  0.46771  0.34446  1.0000
  C   C174      1.0  0.52289  0.48628  0.34498  1.0000
  H   H59       1.0  0.94417  0.47328  0.34616  1.0000
  H   H60       1.0  0.53586  0.47348  0.34530  1.0000
  H   H61       1.0  0.53571  0.06494  0.34279  1.0000
  C   C175      1.0  0.74167  0.09551  0.33873  1.0000
  C   C176      1.0  0.75902  0.13080  0.34824  1.0000
  C   C177      1.0  0.74184  0.14894  0.35734  1.0000
  C   C178      1.0  0.70623  0.13101  0.35581  1.0000
  C   C179      1.0  0.68763  0.09531  0.34739  1.0000
  C   C180      1.0  0.70608  0.07804  0.33948  1.0000
  H   H62       1.0  0.69384  0.14433  0.36006  1.0000
  H   H63       1.0  0.69359  0.05235  0.33487  1.0000
  H   H64       1.0  0.78490  0.14365  0.34840  1.0000
  C   C181      1.0  0.91401  0.14900  0.33450  1.0000
  C   C182      1.0  0.87852  0.13080  0.33379  1.0000
  C   C183      1.0  0.86025  0.09534  0.33238  1.0000
  C   C184      1.0  0.87824  0.07775  0.33542  1.0000
  C   C185      1.0  0.91406  0.09506  0.33830  1.0000
  C   C186      1.0  0.93149  0.13089  0.33770  1.0000
  H   H65       1.0  0.86493  0.05199  0.33592  1.0000
  H   H66       1.0  0.95726  0.14408  0.33640  1.0000
  H   H67       1.0  0.86560  0.14375  0.33199  1.0000
  C   C187      1.0  0.86084  0.26763  0.36040  1.0000
  C   C188      1.0  0.87914  0.25050  0.35484  1.0000
  C   C189      1.0  0.91451  0.26787  0.34672  1.0000
  C   C190      1.0  0.93190  0.30344  0.34487  1.0000
  C   C191      1.0  0.91439  0.32169  0.34994  1.0000
  C   C192      1.0  0.87866  0.30321  0.35683  1.0000
  H   H68       1.0  0.95752  0.31608  0.33733  1.0000
  H   H69       1.0  0.86546  0.31571  0.36167  1.0000
  H   H70       1.0  0.86633  0.22464  0.35564  1.0000
  C   C193      1.0  0.59648  0.06704  0.40673  1.0000
  C   C194      1.0  0.63182  0.08452  0.40699  1.0000
  N   N31       1.0  0.64148  0.10688  0.47372  1.0000
  O   O31       1.0  0.58396  0.07830  0.47292  1.0000
  C   C195      1.0  0.61307  0.10303  0.51060  1.0000
  H   H71       1.0  0.61317  0.11686  0.56461  1.0000
  C   C196      1.0  0.97726  0.06773  0.40102  1.0000
  C   C197      1.0  0.95946  0.08525  0.39902  1.0000
  N   N32       1.0  0.97268  0.10876  0.46282  1.0000
  O   O32       1.0  0.00156  0.08012  0.46589  1.0000
  C   C198      1.0  0.99753  0.10553  0.50029  1.0000
  C   C199      1.0  0.97778  0.41270  0.40480  1.0000
  C   C200      1.0  0.96003  0.37739  0.40559  1.0000
  N   N33       1.0  0.97361  0.36774  0.47002  1.0000
  O   O33       1.0  0.00236  0.42526  0.46887  1.0000
  C   C201      1.0  0.99854  0.39621  0.50558  1.0000
  C   C202      1.0  0.76140  0.07970  0.32893  1.0000
  C   C203      1.0  0.77417  0.07203  0.40664  1.0000
  C   C204      1.0  0.80510  0.07279  0.40495  1.0000
  C   C205      1.0  0.82460  0.07958  0.32576  1.0000
  N   N34       1.0  0.81341  0.07137  0.49014  1.0000
  O   O34       1.0  0.76321  0.07063  0.49272  1.0000
  C   C206      1.0  0.78773  0.06857  0.53998  1.0000
  H   H72       1.0  0.78809  0.06826  0.60865  1.0000
  C   C207      1.0  0.92990  0.18469  0.32924  1.0000
  C   C208      1.0  0.93729  0.20359  0.40988  1.0000
  C   C209      1.0  0.93658  0.23380  0.41300  1.0000
  C   C210      1.0  0.93029  0.24815  0.33620  1.0000
  N   N35       1.0  0.93724  0.24168  0.49962  1.0000
  O   O35       1.0  0.93784  0.19222  0.49431  1.0000
  C   C211      1.0  0.93962  0.21780  0.54566  1.0000
  H   H73       1.0  0.93937  0.21701  0.61430  1.0000
  C   C212      1.0  0.82523  0.24767  0.36818  1.0000
  C   C213      1.0  0.81150  0.22874  0.44795  1.0000
  C   C214      1.0  0.78138  0.19784  0.44599  1.0000
  C   C215      1.0  0.76179  0.18445  0.36704  1.0000
  N   N36       1.0  0.77916  0.18256  0.52413  1.0000
  O   O36       1.0  0.82841  0.23278  0.52677  1.0000
  C   C216      1.0  0.80645  0.20401  0.57148  1.0000
  H   H74       1.0  0.81196  0.19788  0.63278  1.0000
  C   C217      1.0  0.65130  0.57714  0.34599  1.0000
  C   C218      1.0  0.63221  0.55028  0.28535  1.0000
  C   C219      1.0  0.59688  0.53267  0.28567  1.0000
  C   C220      1.0  0.57746  0.54012  0.34569  1.0000
  N   N37       1.0  0.58696  0.51007  0.21954  1.0000
  O   O37       1.0  0.64446  0.53894  0.21866  1.0000
  C   C221      1.0  0.61528  0.51388  0.18214  1.0000
  H   H75       1.0  0.61505  0.50003  0.12803  1.0000
  C   C222      1.0  0.93206  0.57684  0.33855  1.0000
  C   C223      1.0  0.92385  0.54913  0.28080  1.0000
  C   C224      1.0  0.94170  0.53165  0.28278  1.0000
  C   C225      1.0  0.96894  0.53993  0.34227  1.0000
  N   N38       1.0  0.92858  0.50818  0.21884  1.0000
  O   O38       1.0  0.89971  0.53682  0.21552  1.0000
  C   C226      1.0  0.90386  0.51150  0.18093  1.0000
  H   H76       1.0  0.88962  0.49665  0.12890  1.0000
  C   C227      1.0  0.93233  0.85777  0.34743  1.0000
  C   C228      1.0  0.92318  0.87660  0.29001  1.0000
  C   C229      1.0  0.94106  0.91192  0.28919  1.0000
  C   C230      1.0  0.96916  0.93152  0.34567  1.0000
  N   N39       1.0  0.92695  0.92151  0.22607  1.0000
  O   O39       1.0  0.89798  0.86399  0.22771  1.0000
  C   C231      1.0  0.90164  0.89304  0.19157  1.0000
  H   H77       1.0  0.88663  0.89307  0.14080  1.0000
  C   C232      1.0  0.81047  0.58452  0.24512  1.0000
  C   C233      1.0  0.78049  0.58558  0.24807  1.0000
  N   N40       1.0  0.77806  0.59864  0.17014  1.0000
  O   O40       1.0  0.82707  0.59721  0.16581  1.0000
  C   C234      1.0  0.80509  0.60422  0.12192  1.0000
  H   H78       1.0  0.81046  0.61586  0.06062  1.0000
  C   C235      1.0  0.92562  0.73052  0.25254  1.0000
  C   C236      1.0  0.92455  0.69951  0.25053  1.0000
  N   N41       1.0  0.91163  0.68548  0.17104  1.0000
  O   O41       1.0  0.91294  0.73576  0.17499  1.0000
  C   C237      1.0  0.90660  0.70794  0.12616  1.0000
  H   H79       1.0  0.89384  0.70217  0.06651  1.0000
  C   C238      1.0  0.77435  0.70463  0.28765  1.0000
  C   C239      1.0  0.80527  0.73482  0.28838  1.0000
  N   N42       1.0  0.81334  0.74414  0.20284  1.0000
  O   O42       1.0  0.76305  0.69483  0.20190  1.0000
  C   C240      1.0  0.78746  0.72116  0.15377  1.0000
  H   H80       1.0  0.78767  0.72150  0.08507  1.0000
  C   C241      1.0  0.54129  0.52196  0.34528  1.0000
  C   C242      1.0  0.52277  0.53912  0.34472  1.0000
  C   C243      1.0  0.98708  0.52186  0.34354  1.0000
  C   C244      1.0  0.96999  0.98623  0.34437  1.0000
  C   C245      1.0  0.98723  0.96776  0.34474  1.0000
  C   C246      1.0  0.52295  0.98635  0.34495  1.0000
  H   H81       1.0  0.94425  0.97336  0.34732  1.0000
  H   H82       1.0  0.53594  0.97357  0.34479  1.0000
  H   H83       1.0  0.53566  0.56487  0.34185  1.0000
  C   C247      1.0  0.74162  0.59544  0.33759  1.0000
  C   C248      1.0  0.75897  0.63073  0.34698  1.0000
  C   C249      1.0  0.74179  0.64887  0.35614  1.0000
  C   C250      1.0  0.70618  0.63094  0.35477  1.0000
  C   C251      1.0  0.68757  0.59523  0.34649  1.0000
  C   C252      1.0  0.70603  0.57797  0.33854  1.0000
  H   H84       1.0  0.69380  0.64426  0.35905  1.0000
  H   H85       1.0  0.69354  0.55227  0.33406  1.0000
  H   H86       1.0  0.78484  0.64358  0.34704  1.0000
  C   C253      1.0  0.91392  0.64891  0.33318  1.0000
  C   C254      1.0  0.87843  0.63070  0.33254  1.0000
  C   C255      1.0  0.86017  0.59523  0.33116  1.0000
  C   C256      1.0  0.87817  0.57765  0.33419  1.0000
  C   C257      1.0  0.91399  0.59498  0.33703  1.0000
  C   C258      1.0  0.93142  0.63081  0.33638  1.0000
  H   H87       1.0  0.86487  0.55190  0.33471  1.0000
  H   H88       1.0  0.95718  0.64400  0.33504  1.0000
  H   H89       1.0  0.86551  0.64364  0.33073  1.0000
  C   C259      1.0  0.86078  0.76757  0.35915  1.0000
  C   C260      1.0  0.87906  0.75042  0.35321  1.0000
  C   C261      1.0  0.91443  0.76778  0.34504  1.0000
  C   C262      1.0  0.93183  0.80336  0.34343  1.0000
  C   C263      1.0  0.91435  0.82164  0.34895  1.0000
  C   C264      1.0  0.87863  0.80315  0.35602  1.0000
  H   H90       1.0  0.95744  0.81597  0.33576  1.0000
  H   H91       1.0  0.86543  0.81565  0.36129  1.0000
  H   H92       1.0  0.86624  0.72456  0.35385  1.0000
  C   C265      1.0  0.59645  0.56704  0.40604  1.0000
  C   C266      1.0  0.63179  0.58452  0.40617  1.0000
  N   N43       1.0  0.64148  0.60696  0.47267  1.0000
  O   O43       1.0  0.58396  0.57839  0.47207  1.0000
  C   C267      1.0  0.61309  0.60317  0.50954  1.0000
  H   H93       1.0  0.61322  0.61708  0.56340  1.0000
  C   C268      1.0  0.97718  0.56766  0.39993  1.0000
  C   C269      1.0  0.95937  0.58517  0.39787  1.0000
  N   N44       1.0  0.97255  0.60866  0.46173  1.0000
  O   O44       1.0  0.00143  0.58003  0.46489  1.0000
  C   C270      1.0  0.99739  0.60542  0.49929  1.0000
  C   C271      1.0  0.97819  0.91261  0.40330  1.0000
  C   C272      1.0  0.96042  0.87731  0.40379  1.0000
  N   N45       1.0  0.97443  0.86757  0.46681  1.0000
  O   O45       1.0  0.00319  0.92507  0.46621  1.0000
  C   C273      1.0  0.99962  0.89598  0.50184  1.0000
  C   C274      1.0  0.76133  0.57962  0.32777  1.0000
  C   C275      1.0  0.77411  0.57194  0.40548  1.0000
  C   C276      1.0  0.80503  0.57269  0.40377  1.0000
  C   C277      1.0  0.82453  0.57948  0.32457  1.0000
  N   N46       1.0  0.81334  0.57127  0.48895  1.0000
  O   O46       1.0  0.76315  0.57055  0.49156  1.0000
  C   C278      1.0  0.78767  0.56848  0.53880  1.0000
  H   H94       1.0  0.78803  0.56816  0.60748  1.0000
  C   C279      1.0  0.92980  0.68460  0.32779  1.0000
  C   C280      1.0  0.93722  0.70354  0.40836  1.0000
  C   C281      1.0  0.93651  0.73375  0.41137  1.0000
  C   C282      1.0  0.93020  0.74806  0.33452  1.0000
  N   N47       1.0  0.93720  0.74167  0.49796  1.0000
  O   O47       1.0  0.93780  0.69221  0.49282  1.0000
  C   C283      1.0  0.93960  0.71782  0.54409  1.0000
  H   H95       1.0  0.93935  0.71706  0.61273  1.0000
  C   C284      1.0  0.82517  0.74762  0.36696  1.0000
  C   C285      1.0  0.81146  0.72867  0.44673  1.0000
  C   C286      1.0  0.78134  0.69777  0.44478  1.0000
  C   C287      1.0  0.76174  0.68438  0.36583  1.0000
  N   N48       1.0  0.77913  0.68249  0.52290  1.0000
  O   O48       1.0  0.82837  0.73272  0.52553  1.0000
  C   C288      1.0  0.80641  0.70395  0.57025  1.0000
  H   H96       1.0  0.81194  0.69782  0.63154  1.0000
