data_image0
_chemical_formula_structural       C3NC3NC5NC5NC36H26N4C3NC3NC5NC5NC36H26N4C3NC3NC5NC5NC36H26N4CN2CHCN2CHCN2CHCN2CHCN2CHCN2CHC16H16C16H16C16H16C3H2CHC3H2CHC3H2CHC3H2CHC3H2CHC3H2CH
_chemical_formula_sum              "C240 N36 H150"
_cell_length_a       67.4383
_cell_length_b       67.4384
_cell_length_c       14.8783
_cell_angle_alpha    89.8352
_cell_angle_beta     90.1648
_cell_angle_gamma    120

_space_group_name_H-M_alt    "P 1"
_space_group_IT_number       1

loop_
  _space_group_symop_operation_xyz
  'x, y, z'

loop_
  _atom_site_type_symbol
  _atom_site_label
  _atom_site_symmetry_multiplicity
  _atom_site_fract_x
  _atom_site_fract_y
  _atom_site_fract_z
  _atom_site_occupancy
  C   C1        1.0  0.04818  0.50720  0.31434  1.0000
  C   C2        1.0  0.02451  0.49523  0.31525  1.0000
  C   C3        1.0  0.01685  0.51102  0.31694  1.0000
  N   N1        1.0  0.03612  0.53190  0.31708  1.0000
  C   C4        1.0  0.05555  0.53059  0.31566  1.0000
  C   C5        1.0  0.07885  0.54848  0.31570  1.0000
  C   C6        1.0  0.08615  0.57225  0.31694  1.0000
  N   N2        1.0  0.07308  0.58228  0.31656  1.0000
  C   C7        1.0  0.08589  0.60539  0.31827  1.0000
  C   C8        1.0  0.10868  0.61050  0.31997  1.0000
  C   C9        1.0  0.10884  0.59013  0.31895  1.0000
  C   C10       1.0  0.07827  0.62161  0.31829  1.0000
  C   C11       1.0  0.05489  0.61590  0.31707  1.0000
  N   N3        1.0  0.03563  0.59503  0.31711  1.0000
  C   C12       1.0  0.01619  0.59634  0.31565  1.0000
  C   C13       1.0  0.02357  0.61973  0.31439  1.0000
  C   C14       1.0  0.04723  0.63170  0.31542  1.0000
  C   C15       1.0  0.99290  0.57845  0.31562  1.0000
  C   C16       1.0  0.98560  0.55469  0.31683  1.0000
  N   N4        1.0  0.99866  0.54465  0.31633  1.0000
  C   C17       1.0  0.98586  0.52154  0.31811  1.0000
  C   C18       1.0  0.96307  0.51644  0.32002  1.0000
  C   C19       1.0  0.96291  0.53681  0.31901  1.0000
  C   C20       1.0  0.99347  0.50531  0.31808  1.0000
  C   C21       1.0  0.97622  0.48167  0.31995  1.0000
  C   C22       1.0  0.93772  0.43610  0.32627  1.0000
  C   C23       1.0  0.94609  0.44778  0.24345  1.0000
  C   C24       1.0  0.96495  0.47021  0.24023  1.0000
  C   C25       1.0  0.91758  0.41383  0.32985  1.0000
  C   C26       1.0  0.91337  0.39676  0.26514  1.0000
  C   C27       1.0  0.89337  0.37507  0.26803  1.0000
  C   C28       1.0  0.87677  0.36972  0.33577  1.0000
  C   C29       1.0  0.97544  0.58455  0.31426  1.0000
  C   C30       1.0  0.93720  0.59205  0.31251  1.0000
  C   C31       1.0  0.94639  0.58895  0.23164  1.0000
  C   C32       1.0  0.96516  0.58523  0.23235  1.0000
  C   C33       1.0  0.91744  0.59482  0.31204  1.0000
  C   C34       1.0  0.87742  0.59957  0.31398  1.0000
  C   C35       1.0  0.87885  0.58380  0.25614  1.0000
  C   C36       1.0  0.89843  0.58139  0.25542  1.0000
  C   C37       1.0  0.09551  0.64525  0.32032  1.0000
  C   C38       1.0  0.10644  0.65694  0.24050  1.0000
  C   C39       1.0  0.12517  0.67945  0.24370  1.0000
  C   C40       1.0  0.13370  0.69099  0.32658  1.0000
  C   C41       1.0  0.15366  0.71340  0.33004  1.0000
  C   C42       1.0  0.19399  0.75786  0.33603  1.0000
  C   C43       1.0  0.17714  0.75241  0.26902  1.0000
  C   C44       1.0  0.15736  0.73055  0.26610  1.0000
  C   C45       1.0  0.09633  0.54241  0.31434  1.0000
  C   C46       1.0  0.10644  0.54167  0.23237  1.0000
  C   C47       1.0  0.13486  0.53538  0.31253  1.0000
  C   C48       1.0  0.12535  0.53818  0.23162  1.0000
  C   C49       1.0  0.15482  0.53295  0.31201  1.0000
  C   C50       1.0  0.17362  0.54648  0.25475  1.0000
  C   C51       1.0  0.19342  0.54445  0.25549  1.0000
  C   C52       1.0  0.19530  0.52898  0.31405  1.0000
  H   H1        1.0  0.20671  0.55470  0.21373  1.0000
  H   H2        1.0  0.17333  0.55842  0.21305  1.0000
  H   H3        1.0  0.13222  0.53780  0.17084  1.0000
  H   H4        1.0  0.10043  0.54422  0.17271  1.0000
  H   H5        1.0  0.05818  0.49976  0.31310  1.0000
  H   H6        1.0  0.01470  0.47777  0.31450  1.0000
  H   H7        1.0  0.03601  0.54608  0.31887  1.0000
  H   H8        1.0  0.03573  0.58085  0.31888  1.0000
  H   H9        1.0  0.12333  0.58888  0.32007  1.0000
  H   H10       1.0  0.12304  0.62634  0.32174  1.0000
  H   H11       1.0  0.10132  0.64885  0.17968  1.0000
  H   H12       1.0  0.13320  0.68694  0.18465  1.0000
  H   H13       1.0  0.05705  0.64916  0.31474  1.0000
  H   H14       1.0  0.01357  0.62718  0.31311  1.0000
  H   H15       1.0  0.94871  0.50061  0.32200  1.0000
  H   H16       1.0  0.94842  0.53806  0.32036  1.0000
  H   H17       1.0  0.97098  0.58253  0.17273  1.0000
  H   H18       1.0  0.93942  0.58932  0.17090  1.0000
  H   H19       1.0  0.89840  0.56925  0.21426  1.0000
  H   H20       1.0  0.86540  0.57362  0.21482  1.0000
  H   H21       1.0  0.96991  0.47844  0.17953  1.0000
  H   H22       1.0  0.93780  0.44049  0.18455  1.0000
  H   H23       1.0  0.89118  0.36310  0.22103  1.0000
  H   H24       1.0  0.92511  0.39980  0.21586  1.0000
  H   H25       1.0  0.14540  0.72745  0.21748  1.0000
  H   H26       1.0  0.17895  0.76442  0.22267  1.0000
  N   N5        1.0  0.85782  0.34940  0.34444  1.0000
  N   N6        1.0  0.21465  0.52809  0.31140  1.0000
  N   N7        1.0  0.21274  0.77833  0.34472  1.0000
  N   N8        1.0  0.85827  0.60084  0.31124  1.0000
  C   C53       1.0  0.59374  0.63522  0.31656  1.0000
  C   C54       1.0  0.60570  0.62352  0.31741  1.0000
  C   C55       1.0  0.58991  0.60006  0.31901  1.0000
  N   N9        1.0  0.56903  0.59846  0.31923  1.0000
  C   C56       1.0  0.57034  0.61920  0.31782  1.0000
  C   C57       1.0  0.55245  0.62461  0.31783  1.0000
  C   C58       1.0  0.52869  0.60814  0.31903  1.0000
  N   N10       1.0  0.51865  0.58505  0.31866  1.0000
  C   C59       1.0  0.49554  0.57474  0.32029  1.0000
  C   C60       1.0  0.49043  0.59242  0.32192  1.0000
  C   C61       1.0  0.51080  0.61295  0.32095  1.0000
  C   C62       1.0  0.47932  0.55090  0.32030  1.0000
  C   C63       1.0  0.48502  0.53323  0.31914  1.0000
  N   N11       1.0  0.50590  0.53484  0.31922  1.0000
  C   C64       1.0  0.50459  0.51409  0.31778  1.0000
  C   C65       1.0  0.48119  0.49808  0.31651  1.0000
  C   C66       1.0  0.46923  0.50978  0.31751  1.0000
  C   C67       1.0  0.52247  0.50869  0.31776  1.0000
  C   C68       1.0  0.54623  0.52515  0.31893  1.0000
  N   N12       1.0  0.55627  0.54824  0.31844  1.0000
  C   C69       1.0  0.57939  0.55855  0.32010  1.0000
  C   C70       1.0  0.58449  0.54086  0.32194  1.0000
  C   C71       1.0  0.56412  0.52033  0.32104  1.0000
  C   C72       1.0  0.59561  0.58239  0.32004  1.0000
  C   C73       1.0  0.61926  0.58877  0.32175  1.0000
  C   C74       1.0  0.66484  0.59586  0.32766  1.0000
  C   C75       1.0  0.65311  0.59263  0.24495  1.0000
  C   C76       1.0  0.63069  0.58910  0.24189  1.0000
  C   C77       1.0  0.68711  0.59798  0.33102  1.0000
  C   C78       1.0  0.70415  0.61094  0.26620  1.0000
  C   C79       1.0  0.72584  0.61263  0.26886  1.0000
  C   C80       1.0  0.73124  0.60131  0.33649  1.0000
  C   C81       1.0  0.51637  0.48512  0.31642  1.0000
  C   C82       1.0  0.50888  0.43939  0.31472  1.0000
  C   C83       1.0  0.51196  0.45177  0.23383  1.0000
  C   C84       1.0  0.51567  0.47426  0.23452  1.0000
  C   C85       1.0  0.50611  0.41687  0.31426  1.0000
  C   C86       1.0  0.50136  0.37209  0.31621  1.0000
  C   C87       1.0  0.51712  0.38936  0.25834  1.0000
  C   C88       1.0  0.51954  0.41135  0.25766  1.0000
  C   C89       1.0  0.45567  0.54449  0.32217  1.0000
  C   C90       1.0  0.44402  0.54381  0.24221  1.0000
  C   C91       1.0  0.42152  0.54005  0.24523  1.0000
  C   C92       1.0  0.40993  0.53695  0.32801  1.0000
  C   C93       1.0  0.38752  0.53448  0.33125  1.0000
  C   C94       1.0  0.34306  0.53036  0.33663  1.0000
  C   C95       1.0  0.34854  0.51900  0.26989  1.0000
  C   C96       1.0  0.37040  0.52108  0.26728  1.0000
  C   C97       1.0  0.55853  0.64817  0.31649  1.0000
  C   C98       1.0  0.55927  0.65912  0.23453  1.0000
  C   C99       1.0  0.56556  0.69373  0.31471  1.0000
  C   C100      1.0  0.56277  0.68153  0.23380  1.0000
  C   C101      1.0  0.56798  0.71612  0.31421  1.0000
  C   C102      1.0  0.55446  0.72146  0.25693  1.0000
  C   C103      1.0  0.55649  0.74330  0.25768  1.0000
  C   C104      1.0  0.57195  0.76057  0.31626  1.0000
  H   H27       1.0  0.54624  0.74638  0.21590  1.0000
  H   H28       1.0  0.54252  0.70928  0.21522  1.0000
  H   H29       1.0  0.56315  0.68885  0.17302  1.0000
  H   H30       1.0  0.55673  0.65064  0.17486  1.0000
  H   H31       1.0  0.60117  0.65266  0.31529  1.0000
  H   H32       1.0  0.62316  0.63116  0.31658  1.0000
  H   H33       1.0  0.55485  0.58417  0.32082  1.0000
  H   H34       1.0  0.52008  0.54912  0.32097  1.0000
  H   H35       1.0  0.51205  0.62869  0.32203  1.0000
  H   H36       1.0  0.47460  0.59094  0.32362  1.0000
  H   H37       1.0  0.45213  0.54683  0.18146  1.0000
  H   H38       1.0  0.41403  0.54059  0.18607  1.0000
  H   H39       1.0  0.45177  0.50213  0.31678  1.0000
  H   H40       1.0  0.47375  0.48064  0.31525  1.0000
  H   H41       1.0  0.60032  0.54233  0.32380  1.0000
  H   H42       1.0  0.56286  0.50459  0.32229  1.0000
  H   H43       1.0  0.51838  0.48285  0.17489  1.0000
  H   H44       1.0  0.51159  0.44452  0.17310  1.0000
  H   H45       1.0  0.53167  0.42352  0.21644  1.0000
  H   H46       1.0  0.52731  0.38615  0.21704  1.0000
  H   H47       1.0  0.62244  0.58592  0.18126  1.0000
  H   H48       1.0  0.66039  0.59177  0.18593  1.0000
  H   H49       1.0  0.73778  0.62248  0.22182  1.0000
  H   H50       1.0  0.70109  0.61972  0.21705  1.0000
  H   H51       1.0  0.37352  0.51227  0.21879  1.0000
  H   H52       1.0  0.33654  0.50884  0.22352  1.0000
  N   N13       1.0  0.75155  0.60265  0.34487  1.0000
  N   N14       1.0  0.57284  0.78081  0.31360  1.0000
  N   N15       1.0  0.32258  0.52863  0.34509  1.0000
  N   N16       1.0  0.50009  0.35167  0.31349  1.0000
  C   C105      1.0  0.46571  0.05274  0.31797  1.0000
  C   C106      1.0  0.47740  0.07641  0.31895  1.0000
  C   C107      1.0  0.50086  0.08408  0.32068  1.0000
  N   N17       1.0  0.50247  0.06481  0.32085  1.0000
  C   C108      1.0  0.48173  0.04537  0.31931  1.0000
  C   C109      1.0  0.47633  0.02208  0.31927  1.0000
  C   C110      1.0  0.49280  0.01478  0.32057  1.0000
  N   N18       1.0  0.51589  0.02785  0.32028  1.0000
  C   C111      1.0  0.52620  0.01504  0.32202  1.0000
  C   C112      1.0  0.50852  0.99225  0.32368  1.0000
  C   C113      1.0  0.48799  0.99209  0.32254  1.0000
  C   C114      1.0  0.55004  0.02266  0.32208  1.0000
  C   C115      1.0  0.56771  0.04604  0.32082  1.0000
  N   N19       1.0  0.56610  0.06531  0.32086  1.0000
  C   C116      1.0  0.58684  0.08474  0.31928  1.0000
  C   C117      1.0  0.60286  0.07737  0.31797  1.0000
  C   C118      1.0  0.59116  0.05370  0.31907  1.0000
  C   C119      1.0  0.59224  0.10803  0.31920  1.0000
  C   C120      1.0  0.57578  0.11533  0.32050  1.0000
  N   N20       1.0  0.55268  0.10227  0.32009  1.0000
  C   C121      1.0  0.54237  0.11507  0.32185  1.0000
  C   C122      1.0  0.56006  0.13786  0.32369  1.0000
  C   C123      1.0  0.58059  0.13802  0.32263  1.0000
  C   C124      1.0  0.51854  0.10746  0.32183  1.0000
  C   C125      1.0  0.51215  0.12471  0.32358  1.0000
  C   C126      1.0  0.50506  0.16320  0.32963  1.0000
  C   C127      1.0  0.50827  0.15480  0.24687  1.0000
  C   C128      1.0  0.51180  0.13591  0.24376  1.0000
  C   C129      1.0  0.50294  0.18334  0.33305  1.0000
  C   C130      1.0  0.48997  0.18751  0.26832  1.0000
  C   C131      1.0  0.48828  0.20750  0.27103  1.0000
  C   C132      1.0  0.49964  0.22415  0.33856  1.0000
  C   C133      1.0  0.61580  0.12550  0.31758  1.0000
  C   C134      1.0  0.66153  0.16373  0.31522  1.0000
  C   C135      1.0  0.64908  0.15449  0.23451  1.0000
  C   C136      1.0  0.62659  0.13572  0.23552  1.0000
  C   C137      1.0  0.68406  0.18349  0.31444  1.0000
  C   C138      1.0  0.72884  0.22350  0.31567  1.0000
  C   C139      1.0  0.71152  0.22204  0.25805  1.0000
  C   C140      1.0  0.68952  0.20246  0.25770  1.0000
  C   C141      1.0  0.55645  0.00542  0.32403  1.0000
  C   C142      1.0  0.55715  0.99455  0.24411  1.0000
  C   C143      1.0  0.56091  0.97580  0.24718  1.0000
  C   C144      1.0  0.56400  0.96723  0.32999  1.0000
  C   C145      1.0  0.56646  0.94727  0.33328  1.0000
  C   C146      1.0  0.57058  0.90692  0.33878  1.0000
  C   C147      1.0  0.58193  0.92383  0.27199  1.0000
  C   C148      1.0  0.57985  0.94361  0.26930  1.0000
  C   C149      1.0  0.45277  0.00460  0.31766  1.0000
  C   C150      1.0  0.44189  0.99453  0.23554  1.0000
  C   C151      1.0  0.40722  0.96606  0.31523  1.0000
  C   C152      1.0  0.41948  0.97561  0.23449  1.0000
  C   C153      1.0  0.38483  0.94609  0.31440  1.0000
  C   C154      1.0  0.37953  0.92733  0.25702  1.0000
  C   C155      1.0  0.35770  0.90752  0.25747  1.0000
  C   C156      1.0  0.34037  0.90562  0.31576  1.0000
  H   H53       1.0  0.35465  0.89426  0.21561  1.0000
  H   H54       1.0  0.39176  0.92764  0.21550  1.0000
  H   H55       1.0  0.41222  0.96878  0.17361  1.0000
  H   H56       1.0  0.45042  0.00057  0.17599  1.0000
  H   H57       1.0  0.44827  0.04275  0.31663  1.0000
  H   H58       1.0  0.46976  0.08623  0.31815  1.0000
  H   H59       1.0  0.51676  0.06491  0.32260  1.0000
  H   H60       1.0  0.55181  0.06520  0.32269  1.0000
  H   H61       1.0  0.47225  0.97760  0.32366  1.0000
  H   H62       1.0  0.51000  0.97789  0.32545  1.0000
  H   H63       1.0  0.55409  0.99968  0.18334  1.0000
  H   H64       1.0  0.56033  0.96782  0.18805  1.0000
  H   H65       1.0  0.59880  0.04389  0.31838  1.0000
  H   H66       1.0  0.62030  0.08736  0.31664  1.0000
  H   H67       1.0  0.55859  0.15222  0.32559  1.0000
  H   H68       1.0  0.59633  0.15251  0.32387  1.0000
  H   H69       1.0  0.61795  0.12986  0.17601  1.0000
  H   H70       1.0  0.65629  0.16142  0.17367  1.0000
  H   H71       1.0  0.67732  0.20246  0.21669  1.0000
  H   H72       1.0  0.71469  0.23547  0.21668  1.0000
  H   H73       1.0  0.51497  0.13092  0.18310  1.0000
  H   H74       1.0  0.50911  0.16302  0.18788  1.0000
  H   H75       1.0  0.47841  0.20965  0.22404  1.0000
  H   H76       1.0  0.48117  0.17572  0.21921  1.0000
  H   H77       1.0  0.58866  0.95561  0.22080  1.0000
  H   H78       1.0  0.59209  0.92205  0.22561  1.0000
  N   N21       1.0  0.49829  0.24311  0.34701  1.0000
  N   N22       1.0  0.32014  0.88627  0.31280  1.0000
  N   N23       1.0  0.57230  0.88816  0.34725  1.0000
  N   N24       1.0  0.74925  0.24264  0.31262  1.0000
  C   C157      1.0  0.28646  0.52395  0.31408  1.0000
  N   N25       1.0  0.27366  0.52721  0.25115  1.0000
  N   N26       1.0  0.25423  0.52637  0.26916  1.0000
  C   C158      1.0  0.30666  0.52489  0.28823  1.0000
  H   H79       1.0  0.30909  0.52331  0.22334  1.0000
  C   C159      1.0  0.57698  0.85675  0.31625  1.0000
  N   N27       1.0  0.57373  0.84078  0.25332  1.0000
  N   N28       1.0  0.57457  0.82216  0.27134  1.0000
  C   C160      1.0  0.57602  0.87604  0.29039  1.0000
  H   H80       1.0  0.57761  0.88013  0.22551  1.0000
  C   C161      1.0  0.24417  0.81447  0.31419  1.0000
  N   N29       1.0  0.26022  0.82730  0.25153  1.0000
  N   N30       1.0  0.27882  0.84672  0.26985  1.0000
  C   C162      1.0  0.22490  0.79428  0.28804  1.0000
  H   H81       1.0  0.22086  0.79190  0.22312  1.0000
  C   C163      1.0  0.78730  0.60651  0.31368  1.0000
  N   N31       1.0  0.79977  0.60284  0.25091  1.0000
  N   N32       1.0  0.81905  0.60331  0.26891  1.0000
  C   C164      1.0  0.76723  0.60591  0.28784  1.0000
  H   H82       1.0  0.76469  0.60739  0.22287  1.0000
  C   C165      1.0  0.49443  0.27504  0.31588  1.0000
  N   N33       1.0  0.49811  0.29126  0.25312  1.0000
  N   N34       1.0  0.49763  0.31005  0.27113  1.0000
  C   C166      1.0  0.49501  0.25559  0.29001  1.0000
  H   H83       1.0  0.49355  0.25167  0.22503  1.0000
  C   C167      1.0  0.82589  0.31362  0.31376  1.0000
  N   N35       1.0  0.80960  0.30112  0.25126  1.0000
  N   N36       1.0  0.79084  0.28185  0.26957  1.0000
  C   C168      1.0  0.84530  0.33369  0.28761  1.0000
  H   H84       1.0  0.84917  0.33619  0.22259  1.0000
  C   C169      1.0  0.96839  0.47005  0.40270  1.0000
  C   C170      1.0  0.94953  0.44763  0.40560  1.0000
  C   C171      1.0  0.88096  0.38647  0.40111  1.0000
  C   C172      1.0  0.90087  0.40817  0.39779  1.0000
  C   C173      1.0  0.96665  0.58791  0.39523  1.0000
  C   C174      1.0  0.94790  0.59167  0.39419  1.0000
  C   C175      1.0  0.91602  0.61088  0.36896  1.0000
  C   C176      1.0  0.89644  0.61328  0.36978  1.0000
  C   C177      1.0  0.12225  0.67921  0.40605  1.0000
  C   C178      1.0  0.10353  0.65671  0.40318  1.0000
  C   C179      1.0  0.17063  0.71914  0.39717  1.0000
  C   C180      1.0  0.19033  0.74101  0.40052  1.0000
  C   C181      1.0  0.10541  0.53931  0.39535  1.0000
  C   C182      1.0  0.12430  0.53577  0.39428  1.0000
  C   C183      1.0  0.17649  0.51517  0.37052  1.0000
  C   C184      1.0  0.15669  0.51720  0.36966  1.0000
  H   H85       1.0  0.17694  0.50336  0.41240  1.0000
  H   H86       1.0  0.14340  0.50669  0.41091  1.0000
  H   H87       1.0  0.13088  0.53444  0.45458  1.0000
  H   H88       1.0  0.09877  0.54033  0.45584  1.0000
  H   H89       1.0  0.09615  0.64853  0.46221  1.0000
  H   H90       1.0  0.12756  0.68687  0.46749  1.0000
  H   H91       1.0  0.97342  0.58696  0.45569  1.0000
  H   H92       1.0  0.94154  0.59322  0.45449  1.0000
  H   H93       1.0  0.89631  0.62530  0.41109  1.0000
  H   H94       1.0  0.92948  0.62132  0.40972  1.0000
  H   H95       1.0  0.90281  0.41999  0.44511  1.0000
  H   H96       1.0  0.86932  0.38308  0.45129  1.0000
  H   H97       1.0  0.94435  0.43986  0.46698  1.0000
  H   H98       1.0  0.97599  0.47808  0.46169  1.0000
  H   H99       1.0  0.16905  0.70728  0.44389  1.0000
  H   H100      1.0  0.20217  0.74447  0.45013  1.0000
  C   C185      1.0  0.63091  0.59244  0.40441  1.0000
  C   C186      1.0  0.65333  0.59601  0.40710  1.0000
  C   C187      1.0  0.71451  0.58863  0.40189  1.0000
  C   C188      1.0  0.69280  0.58684  0.39877  1.0000
  C   C189      1.0  0.51304  0.47289  0.39741  1.0000
  C   C190      1.0  0.50926  0.45037  0.39640  1.0000
  C   C191      1.0  0.49005  0.39932  0.37118  1.0000
  C   C192      1.0  0.48765  0.37733  0.37202  1.0000
  C   C193      1.0  0.42169  0.53721  0.40761  1.0000
  C   C194      1.0  0.44420  0.54099  0.40494  1.0000
  C   C195      1.0  0.38174  0.54564  0.39817  1.0000
  C   C196      1.0  0.35987  0.54347  0.40123  1.0000
  C   C197      1.0  0.56162  0.66024  0.39751  1.0000
  C   C198      1.0  0.56517  0.68267  0.39646  1.0000
  C   C199      1.0  0.58576  0.75549  0.37274  1.0000
  C   C200      1.0  0.58373  0.73366  0.37188  1.0000
  H   H101      1.0  0.59756  0.76770  0.41463  1.0000
  H   H102      1.0  0.59423  0.73083  0.41314  1.0000
  H   H103      1.0  0.56648  0.69050  0.45676  1.0000
  H   H104      1.0  0.56059  0.65250  0.45800  1.0000
  H   H105      1.0  0.45236  0.54175  0.46404  1.0000
  H   H106      1.0  0.41401  0.53480  0.46900  1.0000
  H   H107      1.0  0.51397  0.48053  0.45786  1.0000
  H   H108      1.0  0.50771  0.44239  0.45668  1.0000
  H   H109      1.0  0.47563  0.36513  0.41335  1.0000
  H   H110      1.0  0.47961  0.40228  0.41194  1.0000
  H   H111      1.0  0.68100  0.57689  0.44616  1.0000
  H   H112      1.0  0.71792  0.58031  0.45195  1.0000
  H   H113      1.0  0.66113  0.59851  0.46843  1.0000
  H   H114      1.0  0.62290  0.59192  0.46347  1.0000
  H   H115      1.0  0.39359  0.55589  0.44490  1.0000
  H   H116      1.0  0.35640  0.55182  0.45068  1.0000
  C   C201      1.0  0.50849  0.13258  0.40628  1.0000
  C   C202      1.0  0.50494  0.15145  0.40905  1.0000
  C   C203      1.0  0.51233  0.22002  0.40391  1.0000
  C   C204      1.0  0.51411  0.20010  0.40078  1.0000
  C   C205      1.0  0.62811  0.13433  0.39840  1.0000
  C   C206      1.0  0.65063  0.15307  0.39706  1.0000
  C   C207      1.0  0.70165  0.18493  0.37112  1.0000
  C   C208      1.0  0.72365  0.20451  0.37159  1.0000
  C   C209      1.0  0.56374  0.97863  0.40956  1.0000
  C   C210      1.0  0.55995  0.99735  0.40683  1.0000
  C   C211      1.0  0.55530  0.93025  0.40024  1.0000
  C   C212      1.0  0.55747  0.91056  0.40337  1.0000
  C   C213      1.0  0.44063  0.99547  0.39851  1.0000
  C   C214      1.0  0.41820  0.97658  0.39714  1.0000
  C   C215      1.0  0.34540  0.92440  0.37233  1.0000
  C   C216      1.0  0.36723  0.94420  0.37180  1.0000
  H   H117      1.0  0.33315  0.92392  0.41405  1.0000
  H   H118      1.0  0.37003  0.95746  0.41314  1.0000
  H   H119      1.0  0.41032  0.96995  0.45732  1.0000
  H   H120      1.0  0.44831  0.00207  0.45910  1.0000
  H   H121      1.0  0.55920  0.00469  0.46591  1.0000
  H   H122      1.0  0.56615  0.97328  0.47096  1.0000
  H   H123      1.0  0.62051  0.12759  0.45896  1.0000
  H   H124      1.0  0.65866  0.15947  0.45724  1.0000
  H   H125      1.0  0.73588  0.20466  0.41275  1.0000
  H   H126      1.0  0.69873  0.17150  0.41193  1.0000
  H   H127      1.0  0.52408  0.19819  0.44809  1.0000
  H   H128      1.0  0.52067  0.23170  0.45394  1.0000
  H   H129      1.0  0.50246  0.15667  0.47040  1.0000
  H   H130      1.0  0.50906  0.12504  0.46533  1.0000
  H   H131      1.0  0.54505  0.93180  0.44697  1.0000
  H   H132      1.0  0.54912  0.89867  0.45283  1.0000
  C   C217      1.0  0.24480  0.52204  0.35279  1.0000
  C   C218      1.0  0.25693  0.51827  0.42204  1.0000
  C   C219      1.0  0.27783  0.51927  0.40276  1.0000
  H   H133      1.0  0.28642  0.51637  0.45324  1.0000
  H   H134      1.0  0.25077  0.51482  0.48640  1.0000
  C   C220      1.0  0.22410  0.52112  0.36911  1.0000
  H   H135      1.0  0.21670  0.51549  0.42866  1.0000
  C   C221      1.0  0.57888  0.81695  0.35499  1.0000
  C   C222      1.0  0.58265  0.83277  0.42423  1.0000
  C   C223      1.0  0.58165  0.85268  0.40494  1.0000
  H   H136      1.0  0.58452  0.86409  0.45543  1.0000
  H   H137      1.0  0.58608  0.82997  0.48861  1.0000
  C   C224      1.0  0.57981  0.79715  0.37131  1.0000
  H   H138      1.0  0.58542  0.79530  0.43089  1.0000
  C   C225      1.0  0.28394  0.85611  0.35356  1.0000
  C   C226      1.0  0.26803  0.84395  0.42253  1.0000
  C   C227      1.0  0.24814  0.82307  0.40293  1.0000
  H   H139      1.0  0.23666  0.81446  0.45321  1.0000
  H   H140      1.0  0.27076  0.85008  0.48693  1.0000
  C   C228      1.0  0.30372  0.87680  0.37021  1.0000
  H   H141      1.0  0.30549  0.88418  0.42975  1.0000
  C   C229      1.0  0.82864  0.60763  0.35239  1.0000
  C   C230      1.0  0.81685  0.61181  0.42146  1.0000
  C   C231      1.0  0.79612  0.61121  0.40219  1.0000
  H   H142      1.0  0.78779  0.61438  0.45255  1.0000
  H   H143      1.0  0.82315  0.61527  0.48570  1.0000
  C   C232      1.0  0.84918  0.60816  0.36869  1.0000
  H   H144      1.0  0.85673  0.61378  0.42805  1.0000
  C   C233      1.0  0.49331  0.31521  0.35461  1.0000
  C   C234      1.0  0.48911  0.29914  0.42366  1.0000
  C   C235      1.0  0.48972  0.27905  0.40438  1.0000
  H   H145      1.0  0.48653  0.26746  0.45471  1.0000
  H   H146      1.0  0.48564  0.30189  0.48788  1.0000
  C   C236      1.0  0.49277  0.33519  0.37092  1.0000
  H   H147      1.0  0.48714  0.33704  0.43026  1.0000
  C   C237      1.0  0.78577  0.27229  0.35312  1.0000
  C   C238      1.0  0.80190  0.28411  0.42192  1.0000
  C   C239      1.0  0.82198  0.30484  0.40232  1.0000
  H   H148      1.0  0.83361  0.31320  0.45248  1.0000
  H   H149      1.0  0.79922  0.27784  0.48619  1.0000
  C   C240      1.0  0.76581  0.25176  0.36976  1.0000
  H   H150      1.0  0.76402  0.24424  0.42912  1.0000
