data_image0
_chemical_formula_structural       C3NC3NC5NC5NC36H26C4H4C3HNH2NC3HNH2NC16H16C3H2NC3H2N
_chemical_formula_sum              "C84 N10 H56"
_cell_length_a       34.4601
_cell_length_b       34.4601
_cell_length_c       14.6976
_cell_angle_alpha    90
_cell_angle_beta     90
_cell_angle_gamma    90.1685

_space_group_name_H-M_alt    "P 1"
_space_group_IT_number       1

loop_
  _space_group_symop_operation_xyz
  'x, y, z'

loop_
  _atom_site_type_symbol
  _atom_site_label
  _atom_site_symmetry_multiplicity
  _atom_site_fract_x
  _atom_site_fract_y
  _atom_site_fract_z
  _atom_site_occupancy
  C   C1        1.0  0.11213  0.08333  0.33534  1.0000
  C   C2        1.0  0.08358  0.11143  0.33581  1.0000
  C   C3        1.0  0.04741  0.09301  0.33699  1.0000
  N   N1        1.0  0.05559  0.05441  0.33678  1.0000
  C   C4        1.0  0.09430  0.04685  0.33533  1.0000
  C   C5        1.0  0.11444  0.01067  0.33423  1.0000
  C   C6        1.0  0.09569  0.97376  0.33409  1.0000
  N   N2        1.0  0.05715  0.96575  0.33504  1.0000
  C   C7        1.0  0.04970  0.92710  0.33367  1.0000
  C   C8        1.0  0.08598  0.90914  0.33202  1.0000
  C   C9        1.0  0.11417  0.93775  0.33186  1.0000
  C   C10       1.0  0.01307  0.90779  0.33398  1.0000
  C   C11       1.0  0.97660  0.92733  0.33530  1.0000
  N   N3        1.0  0.96843  0.96592  0.33624  1.0000
  C   C12       1.0  0.92971  0.97348  0.33639  1.0000
  C   C13       1.0  0.91188  0.93699  0.33618  1.0000
  C   C14       1.0  0.94042  0.90890  0.33511  1.0000
  C   C15       1.0  0.90956  0.00965  0.33689  1.0000
  C   C16       1.0  0.92831  0.04656  0.33735  1.0000
  N   N4        1.0  0.96685  0.05457  0.33776  1.0000
  C   C17       1.0  0.97430  0.09323  0.33724  1.0000
  C   C18       1.0  0.93800  0.11117  0.33686  1.0000
  C   C19       1.0  0.90981  0.08256  0.33641  1.0000
  C   C20       1.0  0.01093  0.11255  0.33720  1.0000
  C   C21       1.0  0.01090  0.15429  0.33472  1.0000
  C   C22       1.0  0.00414  0.17422  0.25226  1.0000
  C   C23       1.0  0.00281  0.21511  0.24974  1.0000
  C   C24       1.0  0.00825  0.23793  0.32917  1.0000
  C   C25       1.0  0.00532  0.27970  0.32613  1.0000
  C   C26       1.0  0.99994  0.36341  0.31292  1.0000
  C   C27       1.0  0.97380  0.33861  0.26623  1.0000
  C   C28       1.0  0.97636  0.29793  0.27285  1.0000
  C   C29       1.0  0.86783  0.00892  0.33434  1.0000
  C   C30       1.0  0.84798  0.00180  0.25187  1.0000
  C   C31       1.0  0.80710  0.00033  0.24907  1.0000
  C   C32       1.0  0.78417  0.00603  0.32819  1.0000
  C   C33       1.0  0.74238  0.00322  0.32481  1.0000
  C   C34       1.0  0.72396  0.97423  0.27165  1.0000
  C   C35       1.0  0.68326  0.97184  0.26463  1.0000
  C   C36       1.0  0.65866  0.99818  0.31080  1.0000
  C   C37       1.0  0.01304  0.86608  0.33133  1.0000
  C   C38       1.0  0.01512  0.78239  0.32587  1.0000
  C   C39       1.0  0.01914  0.80512  0.24583  1.0000
  C   C40       1.0  0.01808  0.84603  0.24831  1.0000
  C   C41       1.0  0.01790  0.74058  0.32338  1.0000
  C   C42       1.0  0.04555  0.72188  0.26723  1.0000
  C   C43       1.0  0.04914  0.68115  0.26524  1.0000
  C   C44       1.0  0.02519  0.65679  0.31911  1.0000
  C   C45       1.0  0.15617  0.01139  0.33161  1.0000
  C   C46       1.0  0.17616  0.01888  0.24948  1.0000
  C   C47       1.0  0.21707  0.02031  0.24702  1.0000
  C   C48       1.0  0.23985  0.01411  0.32615  1.0000
  C   C49       1.0  0.28164  0.01701  0.32382  1.0000
  C   C50       1.0  0.36547  0.02424  0.31940  1.0000
  C   C51       1.0  0.34114  0.05009  0.27091  1.0000
  C   C52       1.0  0.30039  0.04653  0.27291  1.0000
  H   H1        1.0  0.35293  0.07219  0.23327  1.0000
  H   H2        1.0  0.28440  0.06660  0.23802  1.0000
  H   H3        1.0  0.23017  0.02560  0.18579  1.0000
  H   H4        1.0  0.16096  0.02360  0.19068  1.0000
  H   H5        1.0  0.14122  0.08918  0.33460  1.0000
  H   H6        1.0  0.08894  0.14061  0.33523  1.0000
  H   H7        1.0  0.03599  0.03452  0.33706  1.0000
  H   H8        1.0  0.98801  0.98581  0.33608  1.0000
  H   H9        1.0  0.14336  0.93261  0.33019  1.0000
  H   H10       1.0  0.09155  0.88004  0.33077  1.0000
  H   H11       1.0  0.02131  0.86119  0.18887  1.0000
  H   H12       1.0  0.02261  0.79199  0.18395  1.0000
  H   H13       1.0  0.93508  0.87971  0.33426  1.0000
  H   H14       1.0  0.88279  0.93114  0.33654  1.0000
  H   H15       1.0  0.93240  0.14027  0.33656  1.0000
  H   H16       1.0  0.88062  0.08770  0.33550  1.0000
  H   H17       1.0  0.86326  0.99743  0.19303  1.0000
  H   H18       1.0  0.79413  0.99541  0.18751  1.0000
  H   H19       1.0  0.67171  0.95051  0.22422  1.0000
  H   H20       1.0  0.74013  0.95417  0.23719  1.0000
  H   H21       1.0  0.95642  0.28162  0.23806  1.0000
  H   H22       1.0  0.95248  0.35001  0.22574  1.0000
  H   H23       1.0  0.99804  0.22814  0.18823  1.0000
  H   H24       1.0  0.99981  0.15901  0.19328  1.0000
  H   H25       1.0  0.06432  0.73787  0.22834  1.0000
  H   H26       1.0  0.06989  0.66940  0.22372  1.0000
  C   C53       1.0  0.99752  0.40362  0.29920  1.0000
  C   C54       1.0  0.61846  0.99596  0.29667  1.0000
  C   C55       1.0  0.03027  0.61641  0.31559  1.0000
  C   C56       1.0  0.40592  0.02915  0.31557  1.0000
  H   H27       1.0  0.98292  0.41258  0.24474  1.0000
  H   H28       1.0  0.41618  0.05310  0.28598  1.0000
  H   H29       1.0  0.05398  0.60634  0.28487  1.0000
  H   H30       1.0  0.60944  0.98176  0.24162  1.0000
  C   C57       1.0  0.00829  0.48961  0.26369  1.0000
  C   C58       1.0  0.00637  0.53077  0.26020  1.0000
  C   C59       1.0  0.00805  0.55230  0.34295  1.0000
  H   H31       1.0  0.00767  0.47435  0.20404  1.0000
  N   N5        1.0  0.00224  0.54826  0.17780  1.0000
  H   H32       1.0  0.00037  0.53314  0.12201  1.0000
  H   H33       1.0  0.99881  0.57610  0.17216  1.0000
  N   N6        1.0  0.00585  0.59120  0.34669  1.0000
  C   C60       1.0  0.53246  0.00689  0.26183  1.0000
  C   C61       1.0  0.49128  0.00512  0.25852  1.0000
  C   C62       1.0  0.46985  0.00649  0.34143  1.0000
  H   H34       1.0  0.54766  0.00647  0.20209  1.0000
  N   N7        1.0  0.47365  0.00144  0.17614  1.0000
  H   H35       1.0  0.48869  0.99980  0.12019  1.0000
  H   H36       1.0  0.44576  0.99820  0.17060  1.0000
  N   N8        1.0  0.43094  0.00439  0.34531  1.0000
  C   C63       1.0  0.01582  0.21765  0.41124  1.0000
  C   C64       1.0  0.01692  0.17668  0.41416  1.0000
  C   C65       1.0  0.03098  0.30453  0.37453  1.0000
  C   C66       1.0  0.02848  0.34543  0.36787  1.0000
  C   C67       1.0  0.80437  0.01384  0.41031  1.0000
  C   C68       1.0  0.84534  0.01511  0.41350  1.0000
  C   C69       1.0  0.67682  0.02674  0.36566  1.0000
  C   C70       1.0  0.71773  0.02907  0.37271  1.0000
  C   C71       1.0  0.00855  0.84380  0.41145  1.0000
  C   C72       1.0  0.00944  0.80284  0.40860  1.0000
  C   C73       1.0  0.99735  0.67529  0.37509  1.0000
  C   C74       1.0  0.99394  0.71618  0.37738  1.0000
  C   C75       1.0  0.17853  0.00480  0.41077  1.0000
  C   C76       1.0  0.21949  0.00599  0.40790  1.0000
  C   C77       1.0  0.30598  0.99119  0.37262  1.0000
  C   C78       1.0  0.34689  0.99457  0.37020  1.0000
  H   H37       1.0  0.36303  0.97511  0.40655  1.0000
  H   H38       1.0  0.29407  0.96901  0.40961  1.0000
  H   H39       1.0  0.23436  0.00202  0.46740  1.0000
  H   H40       1.0  0.16503  0.99944  0.47154  1.0000
  H   H41       1.0  0.00509  0.85735  0.47287  1.0000
  H   H42       1.0  0.00718  0.78804  0.46870  1.0000
  H   H43       1.0  0.85875  0.02024  0.47448  1.0000
  H   H44       1.0  0.78937  0.01761  0.46969  1.0000
  H   H45       1.0  0.72945  0.05098  0.41091  1.0000
  H   H46       1.0  0.66038  0.04683  0.39934  1.0000
  H   H47       1.0  0.02169  0.16319  0.47518  1.0000
  H   H48       1.0  0.01932  0.23259  0.47084  1.0000
  H   H49       1.0  0.04840  0.36201  0.40202  1.0000
  H   H50       1.0  0.05282  0.29295  0.41297  1.0000
  H   H51       1.0  0.97312  0.72803  0.41839  1.0000
  H   H52       1.0  0.97935  0.65911  0.41554  1.0000
  C   C79       1.0  0.01045  0.53176  0.42599  1.0000
  C   C80       1.0  0.01203  0.49087  0.42780  1.0000
  C   C81       1.0  0.01054  0.46892  0.34683  1.0000
  H   H53       1.0  0.01122  0.54660  0.48631  1.0000
  H   H54       1.0  0.01366  0.47707  0.48936  1.0000
  N   N9        1.0  0.01146  0.42989  0.35280  1.0000
  C   C82       1.0  0.49048  0.00850  0.42441  1.0000
  C   C83       1.0  0.53139  0.00996  0.42604  1.0000
  C   C84       1.0  0.55324  0.00874  0.34492  1.0000
  H   H55       1.0  0.47570  0.00906  0.48482  1.0000
  H   H56       1.0  0.54525  0.01131  0.48755  1.0000
  N   N10       1.0  0.59227  0.00953  0.35080  1.0000
