data_image0
_chemical_formula_structural       C3NC2NH2CH2C3NC2NH2CH2C3NC2NH2CH2C3NC2NH2CH2C3NC2NH2CH2C3NC2NH2CH2C3H2CHCH5CH2C3H2CHCH5CH2C3H2CHCH5CH2C3H2CHCH5CH2C3H2CHCH5CH2C3H2CHCH5CH2C3NC2NCH2CHCH2C3NC2NCH2CHCH2C3NC2NCH2CHCH2C3NC2NCH2CHCH2C3NC2NCH2CHCH2C3NC2NCH2CHCH2CNCNCN2HNHNHCNCNCN2HNHNHCNCNCN2HNHNHCNCNCN2HNHNHCNCNCN2HNHNHCNCNCN2HNHNHCNCNCN2HNHNHCNCNCN2HNHNHCNCNCN2HNHNHCNCNCN2HNHNHCNCNCN2HNHNHCNCNCN2HNHNHC3H2C2HCH2CH3CH2C3H2C2HCH2CH3CH2C3H2C2HCH2CH3CH2C3H2C2HCH2CH3CH2C3H2C2HCH2CH3CH2C3H2C2HCH2CH3CH2C3NC2NCHCHCH2C3NC2NCHCHCH2C3NC2NCHCHCH2C3NC2NCHCHCH2C3NC2NCHCHCH2C3NC2NCHCHCH2C3H2C2H5CH2C3H2C2H5CH2C3H2C2H5CH2C3H2C2H5CH2C3H2C2H5CH2C3H2C2H5CH2
_chemical_formula_sum              "C288 N108 H288"
_cell_length_a       57.8172
_cell_length_b       57.8172
_cell_length_c       15.014
_cell_angle_alpha    90
_cell_angle_beta     90
_cell_angle_gamma    120

_space_group_name_H-M_alt    "P 1"
_space_group_IT_number       1

loop_
  _space_group_symop_operation_xyz
  'x, y, z'

loop_
  _atom_site_type_symbol
  _atom_site_label
  _atom_site_symmetry_multiplicity
  _atom_site_fract_x
  _atom_site_fract_y
  _atom_site_fract_z
  _atom_site_occupancy
  C   C1        1.0  0.20912  0.44496  0.21211  1.0000
  C   C2        1.0  0.23445  0.44656  0.21076  1.0000
  C   C3        1.0  0.24335  0.43827  0.28579  1.0000
  N   N1        1.0  0.24955  0.45647  0.13593  1.0000
  C   C4        1.0  0.24186  0.46467  0.06257  1.0000
  C   C5        1.0  0.21689  0.46364  0.06496  1.0000
  N   N2        1.0  0.20168  0.45365  0.13920  1.0000
  H   H1        1.0  0.27651  0.49454  0.00053  1.0000
  H   H2        1.0  0.19827  0.48433  0.01416  1.0000
  C   C6        1.0  0.27084  0.44236  0.29304  1.0000
  H   H3        1.0  0.28218  0.45041  0.23143  1.0000
  H   H4        1.0  0.26918  0.42290  0.30462  1.0000
  C   C7        1.0  0.58041  0.79046  0.21211  1.0000
  C   C8        1.0  0.57881  0.81418  0.21076  1.0000
  C   C9        1.0  0.58710  0.83137  0.28580  1.0000
  N   N3        1.0  0.56890  0.81938  0.13593  1.0000
  C   C10       1.0  0.56070  0.80349  0.06257  1.0000
  C   C11       1.0  0.56173  0.77955  0.06495  1.0000
  N   N4        1.0  0.57172  0.77433  0.13921  1.0000
  H   H5        1.0  0.53084  0.80828  0.00053  1.0000
  H   H6        1.0  0.54103  0.74024  0.01417  1.0000
  C   C12       1.0  0.58302  0.85479  0.29304  1.0000
  H   H7        1.0  0.57498  0.85808  0.23142  1.0000
  H   H8        1.0  0.60248  0.87258  0.30465  1.0000
  C   C13       1.0  0.23492  0.81625  0.21213  1.0000
  C   C14       1.0  0.21120  0.79092  0.21080  1.0000
  C   C15       1.0  0.19402  0.78202  0.28585  1.0000
  N   N5        1.0  0.20600  0.77582  0.13597  1.0000
  C   C16       1.0  0.22189  0.78351  0.06261  1.0000
  C   C17       1.0  0.24582  0.80848  0.06497  1.0000
  N   N6        1.0  0.25104  0.82369  0.13922  1.0000
  H   H9        1.0  0.21711  0.74887  0.00055  1.0000
  H   H10       1.0  0.28514  0.82712  0.01414  1.0000
  C   C18       1.0  0.17060  0.75453  0.29307  1.0000
  H   H11       1.0  0.16731  0.74320  0.23146  1.0000
  H   H12       1.0  0.15281  0.75620  0.30464  1.0000
  C   C19       1.0  0.80717  0.58949  0.21211  1.0000
  C   C20       1.0  0.78185  0.58789  0.21076  1.0000
  C   C21       1.0  0.77295  0.59618  0.28579  1.0000
  N   N7        1.0  0.76674  0.57798  0.13593  1.0000
  C   C22       1.0  0.77443  0.56978  0.06258  1.0000
  C   C23       1.0  0.79940  0.57081  0.06495  1.0000
  N   N8        1.0  0.81461  0.58080  0.13920  1.0000
  H   H13       1.0  0.73978  0.53992  0.00053  1.0000
  H   H14       1.0  0.81802  0.55012  0.01415  1.0000
  C   C24       1.0  0.74546  0.59210  0.29304  1.0000
  H   H15       1.0  0.73412  0.58406  0.23142  1.0000
  H   H16       1.0  0.74712  0.61156  0.30465  1.0000
  C   C25       1.0  0.43588  0.24399  0.21209  1.0000
  C   C26       1.0  0.43748  0.22027  0.21074  1.0000
  C   C27       1.0  0.42919  0.20308  0.28578  1.0000
  N   N9        1.0  0.44739  0.21507  0.13592  1.0000
  C   C28       1.0  0.45559  0.23096  0.06256  1.0000
  C   C29       1.0  0.45456  0.25489  0.06495  1.0000
  N   N10       1.0  0.44457  0.26012  0.13920  1.0000
  H   H17       1.0  0.48546  0.22618  0.00052  1.0000
  H   H18       1.0  0.47525  0.29422  0.01415  1.0000
  C   C30       1.0  0.43328  0.17967  0.29303  1.0000
  H   H19       1.0  0.44133  0.17638  0.23142  1.0000
  H   H20       1.0  0.41382  0.16187  0.30461  1.0000
  C   C31       1.0  0.78137  0.21820  0.21214  1.0000
  C   C32       1.0  0.80510  0.24352  0.21080  1.0000
  C   C33       1.0  0.82229  0.25242  0.28583  1.0000
  N   N11       1.0  0.81030  0.25863  0.13596  1.0000
  C   C34       1.0  0.79441  0.25094  0.06261  1.0000
  C   C35       1.0  0.77047  0.22597  0.06499  1.0000
  N   N12       1.0  0.76525  0.21076  0.13924  1.0000
  H   H21       1.0  0.79920  0.28558  0.00056  1.0000
  H   H22       1.0  0.73115  0.20735  0.01419  1.0000
  C   C36       1.0  0.84570  0.27991  0.29307  1.0000
  H   H23       1.0  0.84899  0.29125  0.23145  1.0000
  H   H24       1.0  0.86349  0.27825  0.30468  1.0000
  C   C37       1.0  0.16853  0.62289  0.37170  1.0000
  C   C38       1.0  0.17557  0.58911  0.29786  1.0000
  C   C39       1.0  0.17794  0.61450  0.29877  1.0000
  H   H25       1.0  0.18622  0.62667  0.24466  1.0000
  H   H26       1.0  0.18232  0.58364  0.24324  1.0000
  C   C40       1.0  0.12127  0.56536  0.08633  1.0000
  H   H27       1.0  0.13596  0.54327  0.01226  1.0000
  C   C41       1.0  0.11042  0.58456  0.06790  1.0000
  H   H28       1.0  0.14100  0.57659  0.11718  1.0000
  H   H29       1.0  0.10810  0.54986  0.13319  1.0000
  H   H30       1.0  0.10961  0.59393  0.13017  1.0000
  H   H31       1.0  0.09006  0.57303  0.04195  1.0000
  H   H32       1.0  0.14597  0.62198  0.03308  1.0000
  C   C42       1.0  0.16953  0.64912  0.36933  1.0000
  H   H33       1.0  0.18020  0.66080  0.31053  1.0000
  H   H34       1.0  0.18037  0.66058  0.42814  1.0000
  C   C43       1.0  0.40247  0.57195  0.37174  1.0000
  C   C44       1.0  0.43626  0.61278  0.29788  1.0000
  C   C45       1.0  0.41086  0.58976  0.29882  1.0000
  H   H35       1.0  0.39869  0.58587  0.24470  1.0000
  H   H36       1.0  0.44173  0.62500  0.24327  1.0000
  C   C46       1.0  0.46002  0.58222  0.08633  1.0000
  H   H37       1.0  0.48210  0.61900  0.01227  1.0000
  C   C47       1.0  0.44082  0.55218  0.06790  1.0000
  H   H38       1.0  0.44878  0.59072  0.11720  1.0000
  H   H39       1.0  0.47552  0.58455  0.13318  1.0000
  H   H40       1.0  0.43144  0.54199  0.13018  1.0000
  H   H41       1.0  0.45234  0.54334  0.04193  1.0000
  H   H42       1.0  0.40339  0.55030  0.03311  1.0000
  C   C48       1.0  0.37624  0.54672  0.36938  1.0000
  H   H43       1.0  0.36455  0.54572  0.31059  1.0000
  H   H44       1.0  0.36478  0.54610  0.42820  1.0000
  C   C49       1.0  0.45343  0.85683  0.37169  1.0000
  C   C50       1.0  0.41260  0.84979  0.29787  1.0000
  C   C51       1.0  0.43562  0.84741  0.29877  1.0000
  H   H45       1.0  0.43952  0.83915  0.24463  1.0000
  H   H46       1.0  0.40039  0.84306  0.24322  1.0000
  C   C52       1.0  0.44317  0.90410  0.08631  1.0000
  H   H47       1.0  0.40640  0.88942  0.01227  1.0000
  C   C53       1.0  0.47322  0.91495  0.06787  1.0000
  H   H48       1.0  0.43468  0.88437  0.11718  1.0000
  H   H49       1.0  0.44085  0.91728  0.13316  1.0000
  H   H50       1.0  0.48341  0.91577  0.13014  1.0000
  H   H51       1.0  0.48206  0.93531  0.04190  1.0000
  H   H52       1.0  0.47509  0.87939  0.03307  1.0000
  C   C54       1.0  0.47866  0.85583  0.36931  1.0000
  H   H53       1.0  0.47967  0.84516  0.31050  1.0000
  H   H54       1.0  0.47928  0.84499  0.42811  1.0000
  C   C55       1.0  0.84774  0.41155  0.37171  1.0000
  C   C56       1.0  0.84071  0.44534  0.29784  1.0000
  C   C57       1.0  0.83831  0.41993  0.29879  1.0000
  H   H55       1.0  0.83004  0.40777  0.24466  1.0000
  H   H56       1.0  0.83395  0.45080  0.24324  1.0000
  C   C58       1.0  0.89503  0.46910  0.08629  1.0000
  H   H57       1.0  0.88033  0.49118  0.01225  1.0000
  C   C59       1.0  0.90587  0.44990  0.06786  1.0000
  H   H58       1.0  0.87530  0.45786  0.11716  1.0000
  H   H59       1.0  0.90820  0.48460  0.13313  1.0000
  H   H60       1.0  0.90669  0.44053  0.13012  1.0000
  H   H61       1.0  0.92623  0.46142  0.04187  1.0000
  H   H62       1.0  0.87032  0.41247  0.03308  1.0000
  C   C60       1.0  0.84674  0.38532  0.36934  1.0000
  H   H63       1.0  0.83605  0.37363  0.31055  1.0000
  H   H64       1.0  0.83590  0.37386  0.42817  1.0000
  C   C61       1.0  0.61382  0.46251  0.37167  1.0000
  C   C62       1.0  0.58003  0.42168  0.29784  1.0000
  C   C63       1.0  0.60543  0.44471  0.29875  1.0000
  H   H65       1.0  0.61760  0.44859  0.24464  1.0000
  H   H66       1.0  0.57456  0.40946  0.24322  1.0000
  C   C64       1.0  0.55629  0.45224  0.08629  1.0000
  H   H67       1.0  0.53420  0.41547  0.01224  1.0000
  C   C65       1.0  0.57549  0.48229  0.06787  1.0000
  H   H68       1.0  0.56752  0.44375  0.11715  1.0000
  H   H69       1.0  0.54079  0.44992  0.13315  1.0000
  H   H70       1.0  0.58486  0.49248  0.13014  1.0000
  H   H71       1.0  0.56396  0.49113  0.04191  1.0000
  H   H72       1.0  0.61291  0.48416  0.03305  1.0000
  C   C66       1.0  0.64005  0.48774  0.36931  1.0000
  H   H73       1.0  0.65173  0.48875  0.31051  1.0000
  H   H74       1.0  0.65151  0.48836  0.42812  1.0000
  C   C67       1.0  0.56286  0.17762  0.37171  1.0000
  C   C68       1.0  0.60369  0.18466  0.29785  1.0000
  C   C69       1.0  0.58068  0.18705  0.29879  1.0000
  H   H75       1.0  0.57678  0.19532  0.24466  1.0000
  H   H76       1.0  0.61591  0.19141  0.24324  1.0000
  C   C70       1.0  0.57313  0.13035  0.08631  1.0000
  H   H77       1.0  0.60991  0.14504  0.01225  1.0000
  C   C71       1.0  0.54309  0.11950  0.06788  1.0000
  H   H78       1.0  0.58163  0.15008  0.11717  1.0000
  H   H79       1.0  0.57546  0.11717  0.13317  1.0000
  H   H80       1.0  0.53290  0.11868  0.13015  1.0000
  H   H81       1.0  0.53425  0.09914  0.04191  1.0000
  H   H82       1.0  0.54121  0.15505  0.03308  1.0000
  C   C72       1.0  0.53763  0.17863  0.36935  1.0000
  H   H83       1.0  0.53663  0.18931  0.31056  1.0000
  H   H84       1.0  0.53702  0.18947  0.42817  1.0000
  C   C73       1.0  0.02084  0.39741  0.25331  1.0000
  C   C74       1.0  0.99306  0.37838  0.25769  1.0000
  C   C75       1.0  0.97784  0.37633  0.33442  1.0000
  N   N13       1.0  0.98134  0.36281  0.18491  1.0000
  C   C76       1.0  0.99437  0.36436  0.10797  1.0000
  C   C77       1.0  0.02197  0.38317  0.10335  1.0000
  N   N14       1.0  0.03360  0.39882  0.17569  1.0000
  C   C78       1.0  0.97946  0.34642  0.03284  1.0000
  H   H85       1.0  0.96010  0.34533  0.02607  1.0000
  H   H86       1.0  0.97579  0.32641  0.04868  1.0000
  C   C79       1.0  0.03820  0.38707  0.02233  1.0000
  H   H87       1.0  0.05708  0.38841  0.04143  1.0000
  C   C80       1.0  0.94842  0.35743  0.33565  1.0000
  H   H88       1.0  0.94463  0.33703  0.32657  1.0000
  H   H89       1.0  0.94019  0.36239  0.27773  1.0000
  C   C81       1.0  0.62796  0.64972  0.25332  1.0000
  C   C82       1.0  0.64699  0.64098  0.25772  1.0000
  C   C83       1.0  0.64904  0.62782  0.33445  1.0000
  N   N15       1.0  0.66257  0.64484  0.18495  1.0000
  C   C84       1.0  0.66102  0.65632  0.10801  1.0000
  C   C85       1.0  0.64219  0.66510  0.10337  1.0000
  N   N16       1.0  0.62655  0.66109  0.17570  1.0000
  C   C86       1.0  0.67896  0.65935  0.03289  1.0000
  H   H90       1.0  0.68006  0.64109  0.02611  1.0000
  H   H91       1.0  0.69897  0.67570  0.04875  1.0000
  C   C87       1.0  0.63830  0.67743  0.02235  1.0000
  H   H92       1.0  0.63696  0.69497  0.04146  1.0000
  C   C88       1.0  0.66796  0.61732  0.33571  1.0000
  H   H93       1.0  0.68835  0.63393  0.32667  1.0000
  H   H94       1.0  0.66301  0.60413  0.27779  1.0000
  C   C89       1.0  0.37565  0.00454  0.25332  1.0000
  C   C90       1.0  0.38438  0.03231  0.25772  1.0000
  C   C91       1.0  0.39754  0.04753  0.33446  1.0000
  N   N17       1.0  0.38053  0.04404  0.18495  1.0000
  C   C92       1.0  0.36905  0.03101  0.10801  1.0000
  C   C93       1.0  0.36027  0.00341  0.10336  1.0000
  N   N18       1.0  0.36429  0.99178  0.17569  1.0000
  C   C94       1.0  0.36602  0.04592  0.03288  1.0000
  H   H95       1.0  0.38428  0.06528  0.02612  1.0000
  H   H96       1.0  0.34967  0.04957  0.04873  1.0000
  C   C95       1.0  0.34796  0.98718  0.02233  1.0000
  H   H97       1.0  0.33042  0.96830  0.04141  1.0000
  C   C96       1.0  0.40806  0.07695  0.33569  1.0000
  H   H98       1.0  0.39145  0.08074  0.32664  1.0000
  H   H99       1.0  0.42124  0.08518  0.27777  1.0000
  C   C97       1.0  0.99545  0.63704  0.25330  1.0000
  C   C98       1.0  0.02323  0.65607  0.25769  1.0000
  C   C99       1.0  0.03844  0.65813  0.33443  1.0000
  N   N19       1.0  0.03495  0.67165  0.18492  1.0000
  C   C100      1.0  0.02192  0.67010  0.10798  1.0000
  C   C101      1.0  0.99432  0.65127  0.10334  1.0000
  N   N20       1.0  0.98269  0.63563  0.17567  1.0000
  C   C102      1.0  0.03683  0.68804  0.03286  1.0000
  H   H100      1.0  0.05618  0.68914  0.02608  1.0000
  H   H101      1.0  0.04049  0.70805  0.04871  1.0000
  C   C103      1.0  0.97809  0.64737  0.02232  1.0000
  H   H102      1.0  0.95921  0.64603  0.04141  1.0000
  C   C104      1.0  0.06786  0.67704  0.33567  1.0000
  H   H103      1.0  0.07165  0.69743  0.32661  1.0000
  H   H104      1.0  0.07610  0.67208  0.27775  1.0000
  C   C105      1.0  0.38833  0.38472  0.25331  1.0000
  C   C106      1.0  0.36931  0.39347  0.25770  1.0000
  C   C107      1.0  0.36725  0.40663  0.33443  1.0000
  N   N21       1.0  0.35373  0.38962  0.18492  1.0000
  C   C108      1.0  0.35528  0.37814  0.10798  1.0000
  C   C109      1.0  0.37410  0.36935  0.10335  1.0000
  N   N22       1.0  0.38974  0.37336  0.17568  1.0000
  C   C110      1.0  0.33734  0.37511  0.03285  1.0000
  H   H105      1.0  0.33625  0.39337  0.02608  1.0000
  H   H106      1.0  0.31733  0.35877  0.04869  1.0000
  C   C111      1.0  0.37799  0.35703  0.02233  1.0000
  H   H107      1.0  0.37933  0.33948  0.04141  1.0000
  C   C112      1.0  0.34835  0.41715  0.33567  1.0000
  H   H108      1.0  0.32795  0.40055  0.32659  1.0000
  H   H109      1.0  0.35331  0.43034  0.27776  1.0000
  C   C113      1.0  0.64065  0.02991  0.25332  1.0000
  C   C114      1.0  0.63191  0.00214  0.25771  1.0000
  C   C115      1.0  0.61874  0.98692  0.33444  1.0000
  N   N23       1.0  0.63576  0.99042  0.18493  1.0000
  C   C116      1.0  0.64724  0.00345  0.10800  1.0000
  C   C117      1.0  0.65602  0.03105  0.10336  1.0000
  N   N24       1.0  0.65200  0.04268  0.17570  1.0000
  C   C118      1.0  0.65027  0.98854  0.03288  1.0000
  H   H110      1.0  0.63202  0.96918  0.02609  1.0000
  H   H111      1.0  0.66662  0.98487  0.04874  1.0000
  C   C119      1.0  0.66835  0.04727  0.02235  1.0000
  H   H112      1.0  0.68589  0.06616  0.04145  1.0000
  C   C120      1.0  0.60824  0.95750  0.33569  1.0000
  H   H113      1.0  0.62485  0.95372  0.32665  1.0000
  H   H114      1.0  0.59505  0.94927  0.27777  1.0000
  C   C121      1.0  0.15309  0.47015  0.28559  1.0000
  N   N25       1.0  0.15899  0.49602  0.28462  1.0000
  C   C122      1.0  0.13956  0.50257  0.27597  1.0000
  N   N26       1.0  0.11383  0.48258  0.26640  1.0000
  C   C123      1.0  0.10736  0.45654  0.26655  1.0000
  N   N27       1.0  0.12719  0.45066  0.27644  1.0000
  N   N28       1.0  0.14611  0.52965  0.27883  1.0000
  H   H115      1.0  0.12890  0.53062  0.27221  1.0000
  N   N29       1.0  0.08049  0.43607  0.25684  1.0000
  H   H116      1.0  0.07991  0.41802  0.25371  1.0000
  N   N30       1.0  0.17410  0.46464  0.29639  1.0000
  H   H117      1.0  0.18320  0.47274  0.35626  1.0000
  C   C124      1.0  0.55522  0.70924  0.28559  1.0000
  N   N31       1.0  0.52935  0.68927  0.28462  1.0000
  C   C125      1.0  0.52279  0.66329  0.27597  1.0000
  N   N32       1.0  0.54278  0.65754  0.26641  1.0000
  C   C126      1.0  0.56882  0.67711  0.26655  1.0000
  N   N33       1.0  0.57470  0.70282  0.27644  1.0000
  N   N34       1.0  0.49571  0.64276  0.27885  1.0000
  H   H118      1.0  0.49474  0.62458  0.27223  1.0000
  N   N35       1.0  0.58929  0.67071  0.25685  1.0000
  H   H119      1.0  0.60735  0.68819  0.25370  1.0000
  N   N36       1.0  0.56073  0.73576  0.29639  1.0000
  H   H120      1.0  0.55264  0.73676  0.35627  1.0000
  C   C127      1.0  0.31614  0.87229  0.28557  1.0000
  N   N37       1.0  0.33612  0.86639  0.28461  1.0000
  C   C128      1.0  0.36210  0.88582  0.27595  1.0000
  N   N38       1.0  0.36784  0.91155  0.26638  1.0000
  C   C129      1.0  0.34827  0.91802  0.26652  1.0000
  N   N39       1.0  0.32256  0.89819  0.27642  1.0000
  N   N40       1.0  0.38262  0.87927  0.27883  1.0000
  H   H121      1.0  0.40080  0.89648  0.27221  1.0000
  N   N41       1.0  0.35467  0.94489  0.25682  1.0000
  H   H122      1.0  0.33719  0.94547  0.25368  1.0000
  N   N42       1.0  0.28962  0.85128  0.29638  1.0000
  H   H123      1.0  0.28862  0.84218  0.35626  1.0000
  C   C130      1.0  0.86320  0.56430  0.28557  1.0000
  N   N43       1.0  0.85730  0.53843  0.28460  1.0000
  C   C131      1.0  0.87673  0.53187  0.27595  1.0000
  N   N44       1.0  0.90246  0.55186  0.26638  1.0000
  C   C132      1.0  0.90893  0.57790  0.26652  1.0000
  N   N45       1.0  0.88910  0.58378  0.27642  1.0000
  N   N46       1.0  0.87018  0.50479  0.27881  1.0000
  H   H124      1.0  0.88738  0.50382  0.27220  1.0000
  N   N47       1.0  0.93580  0.59837  0.25681  1.0000
  H   H125      1.0  0.93638  0.61642  0.25367  1.0000
  N   N48       1.0  0.84219  0.56981  0.29638  1.0000
  H   H126      1.0  0.83309  0.56172  0.35625  1.0000
  C   C133      1.0  0.46107  0.32521  0.28558  1.0000
  N   N49       1.0  0.48694  0.34518  0.28460  1.0000
  C   C134      1.0  0.49350  0.37116  0.27595  1.0000
  N   N50       1.0  0.47351  0.37691  0.26638  1.0000
  C   C135      1.0  0.44747  0.35734  0.26653  1.0000
  N   N51       1.0  0.44159  0.33163  0.27643  1.0000
  N   N52       1.0  0.52058  0.39169  0.27881  1.0000
  H   H127      1.0  0.52154  0.40987  0.27218  1.0000
  N   N53       1.0  0.42700  0.36373  0.25682  1.0000
  H   H128      1.0  0.40894  0.34626  0.25369  1.0000
  N   N54       1.0  0.45557  0.29869  0.29638  1.0000
  H   H129      1.0  0.46366  0.29769  0.35625  1.0000
  C   C136      1.0  0.70016  0.16217  0.28560  1.0000
  N   N55       1.0  0.68018  0.16806  0.28462  1.0000
  C   C137      1.0  0.65420  0.14864  0.27596  1.0000
  N   N56       1.0  0.64846  0.12291  0.26640  1.0000
  C   C138      1.0  0.66803  0.11643  0.26655  1.0000
  N   N57       1.0  0.69374  0.13626  0.27645  1.0000
  N   N58       1.0  0.63367  0.15519  0.27883  1.0000
  H   H130      1.0  0.61550  0.13798  0.27221  1.0000
  N   N59       1.0  0.66163  0.08956  0.25684  1.0000
  H   H131      1.0  0.67911  0.08899  0.25370  1.0000
  N   N60       1.0  0.72668  0.18317  0.29642  1.0000
  H   H132      1.0  0.72768  0.19227  0.35629  1.0000
  C   C139      1.0  0.45750  0.16270  0.37794  1.0000
  N   N61       1.0  0.48297  0.16746  0.37015  1.0000
  C   C140      1.0  0.48871  0.14749  0.37983  1.0000
  N   N62       1.0  0.46849  0.12248  0.39745  1.0000
  C   C141      1.0  0.44303  0.11736  0.40613  1.0000
  N   N63       1.0  0.43759  0.13747  0.39574  1.0000
  N   N64       1.0  0.51448  0.15101  0.36951  1.0000
  H   H133      1.0  0.51451  0.14151  0.31163  1.0000
  N   N65       1.0  0.42296  0.09071  0.41793  1.0000
  H   H134      1.0  0.41020  0.08935  0.46790  1.0000
  N   N66       1.0  0.45161  0.18349  0.36831  1.0000
  H   H135      1.0  0.46914  0.20127  0.35954  1.0000
  C   C142      1.0  0.70426  0.56787  0.37793  1.0000
  N   N67       1.0  0.68356  0.54241  0.37012  1.0000
  C   C143      1.0  0.65784  0.53667  0.37977  1.0000
  N   N68       1.0  0.65306  0.55689  0.39743  1.0000
  C   C144      1.0  0.67339  0.58234  0.40614  1.0000
  N   N69       1.0  0.69895  0.58779  0.39576  1.0000
  N   N70       1.0  0.63558  0.51089  0.36949  1.0000
  H   H136      1.0  0.62605  0.51086  0.31163  1.0000
  N   N71       1.0  0.66682  0.60242  0.41794  1.0000
  H   H137      1.0  0.67821  0.61518  0.46791  1.0000
  N   N72       1.0  0.73094  0.57376  0.36830  1.0000
  H   H138      1.0  0.73119  0.55623  0.35952  1.0000
  C   C145      1.0  0.86267  0.32111  0.37793  1.0000
  N   N73       1.0  0.85791  0.34182  0.37014  1.0000
  C   C146      1.0  0.87788  0.36753  0.37980  1.0000
  N   N74       1.0  0.90289  0.37232  0.39741  1.0000
  C   C147      1.0  0.90801  0.35200  0.40609  1.0000
  N   N75       1.0  0.88790  0.32643  0.39573  1.0000
  N   N76       1.0  0.87436  0.38979  0.36948  1.0000
  H   H139      1.0  0.88384  0.39931  0.31159  1.0000
  N   N77       1.0  0.93466  0.35857  0.41789  1.0000
  H   H140      1.0  0.93603  0.34717  0.46785  1.0000
  N   N78       1.0  0.84188  0.29443  0.36833  1.0000
  H   H141      1.0  0.82410  0.29418  0.35956  1.0000
  C   C148      1.0  0.55879  0.87175  0.37792  1.0000
  N   N79       1.0  0.53333  0.86700  0.37011  1.0000
  C   C149      1.0  0.52759  0.88697  0.37976  1.0000
  N   N80       1.0  0.54781  0.91198  0.39742  1.0000
  C   C150      1.0  0.57326  0.91709  0.40613  1.0000
  N   N81       1.0  0.57871  0.89699  0.39574  1.0000
  N   N82       1.0  0.50181  0.88345  0.36949  1.0000
  H   H142      1.0  0.50178  0.89295  0.31163  1.0000
  N   N83       1.0  0.59334  0.94374  0.41793  1.0000
  H   H143      1.0  0.60610  0.94511  0.46790  1.0000
  N   N84       1.0  0.56468  0.85096  0.36830  1.0000
  H   H144      1.0  0.54715  0.83318  0.35952  1.0000
  C   C151      1.0  0.31203  0.46659  0.37795  1.0000
  N   N85       1.0  0.33274  0.49205  0.37017  1.0000
  C   C152      1.0  0.35845  0.49779  0.37984  1.0000
  N   N86       1.0  0.36324  0.47758  0.39745  1.0000
  C   C153      1.0  0.34292  0.45212  0.40612  1.0000
  N   N87       1.0  0.31735  0.44667  0.39574  1.0000
  N   N88       1.0  0.38071  0.52358  0.36953  1.0000
  H   H145      1.0  0.39023  0.52361  0.31165  1.0000
  N   N89       1.0  0.34949  0.43205  0.41791  1.0000
  H   H146      1.0  0.33809  0.41929  0.46787  1.0000
  N   N90       1.0  0.28535  0.46069  0.36833  1.0000
  H   H147      1.0  0.28510  0.47822  0.35956  1.0000
  C   C154      1.0  0.15361  0.71333  0.37795  1.0000
  N   N91       1.0  0.15837  0.69263  0.37015  1.0000
  C   C155      1.0  0.13839  0.66692  0.37979  1.0000
  N   N92       1.0  0.11338  0.66213  0.39743  1.0000
  C   C156      1.0  0.10827  0.68246  0.40612  1.0000
  N   N93       1.0  0.12838  0.70803  0.39575  1.0000
  N   N94       1.0  0.14191  0.64465  0.36952  1.0000
  H   H148      1.0  0.13241  0.63512  0.31167  1.0000
  N   N95       1.0  0.08162  0.67590  0.41792  1.0000
  H   H149      1.0  0.08026  0.68730  0.46787  1.0000
  N   N96       1.0  0.17441  0.74002  0.36835  1.0000
  H   H150      1.0  0.19219  0.74026  0.35960  1.0000
  C   C157      1.0  0.19246  0.43512  0.28812  1.0000
  C   C158      1.0  0.22598  0.42726  0.35949  1.0000
  C   C159      1.0  0.20101  0.42583  0.36092  1.0000
  H   H151      1.0  0.18957  0.41888  0.41721  1.0000
  H   H152      1.0  0.23193  0.42124  0.41478  1.0000
  C   C160      1.0  0.25986  0.47474  0.65094  1.0000
  C   C161      1.0  0.24589  0.47641  0.56481  1.0000
  H   H153      1.0  0.26802  0.46160  0.63798  1.0000
  C   C162      1.0  0.22776  0.48846  0.58387  1.0000
  H   H154      1.0  0.23368  0.45635  0.53726  1.0000
  H   H155      1.0  0.26094  0.48855  0.51516  1.0000
  C   C163      1.0  0.20645  0.47214  0.65580  1.0000
  H   H156      1.0  0.21783  0.48890  0.52243  1.0000
  H   H157      1.0  0.24017  0.50906  0.60682  1.0000
  H   H158      1.0  0.19013  0.45424  0.62529  1.0000
  C   C164      1.0  0.16737  0.43622  0.29385  1.0000
  H   H159      1.0  0.15566  0.42580  0.35296  1.0000
  H   H160      1.0  0.15517  0.42608  0.23546  1.0000
  C   C165      1.0  0.59025  0.78364  0.28812  1.0000
  C   C166      1.0  0.59808  0.82500  0.35952  1.0000
  C   C167      1.0  0.59956  0.80148  0.36090  1.0000
  H   H161      1.0  0.60650  0.79699  0.41719  1.0000
  H   H162      1.0  0.60414  0.83699  0.41476  1.0000
  C   C168      1.0  0.55064  0.81143  0.65093  1.0000
  C   C169      1.0  0.54897  0.79579  0.56481  1.0000
  H   H163      1.0  0.56378  0.83273  0.63798  1.0000
  C   C170      1.0  0.53690  0.76560  0.58387  1.0000
  H   H164      1.0  0.56903  0.80363  0.53726  1.0000
  H   H165      1.0  0.53683  0.79870  0.51515  1.0000
  C   C171      1.0  0.55322  0.76061  0.65580  1.0000
  H   H166      1.0  0.53646  0.75523  0.52243  1.0000
  H   H167      1.0  0.51630  0.75741  0.60681  1.0000
  H   H168      1.0  0.57112  0.76218  0.62530  1.0000
  C   C172      1.0  0.58915  0.75745  0.29383  1.0000
  H   H169      1.0  0.59957  0.75616  0.35293  1.0000
  H   H170      1.0  0.59929  0.75539  0.23543  1.0000
  C   C173      1.0  0.24175  0.83291  0.28815  1.0000
  C   C174      1.0  0.20038  0.79940  0.35954  1.0000
  C   C175      1.0  0.22392  0.82436  0.36096  1.0000
  H   H171      1.0  0.22839  0.83583  0.41719  1.0000
  H   H172      1.0  0.18839  0.79346  0.41479  1.0000
  C   C176      1.0  0.21395  0.76551  0.65097  1.0000
  C   C177      1.0  0.22958  0.77948  0.56483  1.0000
  H   H173      1.0  0.19266  0.75735  0.63804  1.0000
  C   C178      1.0  0.25977  0.79761  0.58386  1.0000
  H   H174      1.0  0.22173  0.79169  0.53730  1.0000
  H   H175      1.0  0.22667  0.76443  0.51517  1.0000
  C   C179      1.0  0.26476  0.81892  0.65580  1.0000
  H   H176      1.0  0.27013  0.80754  0.52242  1.0000
  H   H177      1.0  0.26797  0.78521  0.60679  1.0000
  H   H178      1.0  0.26318  0.83525  0.62531  1.0000
  C   C180      1.0  0.26793  0.85801  0.29384  1.0000
  H   H179      1.0  0.26923  0.86972  0.35294  1.0000
  H   H180      1.0  0.26998  0.87020  0.23544  1.0000
  C   C181      1.0  0.82383  0.59933  0.28812  1.0000
  C   C182      1.0  0.79031  0.60718  0.35951  1.0000
  C   C183      1.0  0.81529  0.60863  0.36092  1.0000
  H   H181      1.0  0.82674  0.61559  0.41719  1.0000
  H   H182      1.0  0.78438  0.61323  0.41475  1.0000
  C   C184      1.0  0.75643  0.55972  0.65093  1.0000
  C   C185      1.0  0.77040  0.55805  0.56481  1.0000
  H   H183      1.0  0.74828  0.57286  0.63799  1.0000
  C   C186      1.0  0.78852  0.54599  0.58385  1.0000
  H   H184      1.0  0.78262  0.57811  0.53726  1.0000
  H   H185      1.0  0.75535  0.54592  0.51514  1.0000
  C   C187      1.0  0.80984  0.56231  0.65579  1.0000
  H   H186      1.0  0.79846  0.54555  0.52242  1.0000
  H   H187      1.0  0.77611  0.52539  0.60680  1.0000
  H   H188      1.0  0.82616  0.58021  0.62530  1.0000
  C   C188      1.0  0.84892  0.59823  0.29382  1.0000
  H   H189      1.0  0.86064  0.60865  0.35292  1.0000
  H   H190      1.0  0.86112  0.60837  0.23543  1.0000
  C   C189      1.0  0.42605  0.25081  0.28812  1.0000
  C   C190      1.0  0.41818  0.20944  0.35948  1.0000
  C   C191      1.0  0.41675  0.23297  0.36091  1.0000
  H   H191      1.0  0.40980  0.23746  0.41720  1.0000
  H   H192      1.0  0.41216  0.19747  0.41477  1.0000
  C   C192      1.0  0.46565  0.22303  0.65092  1.0000
  C   C193      1.0  0.46732  0.23866  0.56479  1.0000
  H   H193      1.0  0.45251  0.20173  0.63797  1.0000
  C   C194      1.0  0.47939  0.26885  0.58385  1.0000
  H   H194      1.0  0.44727  0.23082  0.53724  1.0000
  H   H195      1.0  0.47946  0.23575  0.51514  1.0000
  C   C195      1.0  0.46306  0.27384  0.65579  1.0000
  H   H196      1.0  0.47983  0.27922  0.52242  1.0000
  H   H197      1.0  0.49999  0.27704  0.60681  1.0000
  H   H198      1.0  0.44516  0.27226  0.62528  1.0000
  C   C196      1.0  0.42714  0.27700  0.29384  1.0000
  H   H199      1.0  0.41673  0.27830  0.35294  1.0000
  H   H200      1.0  0.41700  0.27906  0.23545  1.0000
  C   C197      1.0  0.77455  0.20153  0.28815  1.0000
  C   C198      1.0  0.81591  0.23506  0.35956  1.0000
  C   C199      1.0  0.79240  0.21007  0.36094  1.0000
  H   H201      1.0  0.78790  0.19863  0.41722  1.0000
  H   H202      1.0  0.82790  0.24099  0.41479  1.0000
  C   C200      1.0  0.80234  0.26893  0.65096  1.0000
  C   C201      1.0  0.78671  0.25497  0.56484  1.0000
  H   H203      1.0  0.82364  0.27709  0.63801  1.0000
  C   C202      1.0  0.75652  0.23684  0.58389  1.0000
  H   H204      1.0  0.79455  0.24275  0.53729  1.0000
  H   H205      1.0  0.78962  0.27002  0.51518  1.0000
  C   C203      1.0  0.75153  0.21553  0.65583  1.0000
  H   H206      1.0  0.74615  0.22691  0.52246  1.0000
  H   H207      1.0  0.74833  0.24925  0.60685  1.0000
  H   H208      1.0  0.75310  0.19920  0.62532  1.0000
  C   C204      1.0  0.74837  0.17644  0.29386  1.0000
  H   H209      1.0  0.74707  0.16473  0.35296  1.0000
  H   H210      1.0  0.74631  0.16425  0.23547  1.0000
  C   C205      1.0  0.15710  0.60530  0.44494  1.0000
  C   C206      1.0  0.15439  0.57948  0.44360  1.0000
  C   C207      1.0  0.16325  0.57097  0.36893  1.0000
  N   N97       1.0  0.14336  0.56369  0.51642  1.0000
  C   C208      1.0  0.13484  0.57100  0.58988  1.0000
  C   C209      1.0  0.13689  0.59643  0.58997  1.0000
  N   N98       1.0  0.14816  0.61241  0.51801  1.0000
  C   C210      1.0  0.12347  0.55216  0.66572  1.0000
  H   H211      1.0  0.10366  0.53611  0.64633  1.0000
  C   C211      1.0  0.12814  0.60650  0.66620  1.0000
  H   H212      1.0  0.11688  0.61570  0.64115  1.0000
  C   C212      1.0  0.16005  0.54377  0.36213  1.0000
  H   H213      1.0  0.14933  0.53149  0.41977  1.0000
  H   H214      1.0  0.18005  0.54614  0.36260  1.0000
  C   C213      1.0  0.42006  0.57812  0.44497  1.0000
  C   C214      1.0  0.44588  0.60123  0.44363  1.0000
  C   C215      1.0  0.45439  0.61860  0.36895  1.0000
  N   N99       1.0  0.46168  0.60599  0.51643  1.0000
  C   C216      1.0  0.45437  0.59016  0.58989  1.0000
  C   C217      1.0  0.42894  0.56678  0.58999  1.0000
  N   N100      1.0  0.41295  0.56206  0.51804  1.0000
  C   C218      1.0  0.47321  0.59762  0.66572  1.0000
  H   H215      1.0  0.48926  0.59386  0.64632  1.0000
  C   C219      1.0  0.41887  0.54796  0.66622  1.0000
  H   H216      1.0  0.40967  0.52749  0.64116  1.0000
  C   C220      1.0  0.48160  0.64259  0.36214  1.0000
  H   H217      1.0  0.49387  0.64415  0.41979  1.0000
  H   H218      1.0  0.47923  0.66021  0.36259  1.0000
  C   C221      1.0  0.44727  0.86825  0.44494  1.0000
  C   C222      1.0  0.42416  0.87097  0.44360  1.0000
  C   C223      1.0  0.40679  0.86211  0.36893  1.0000
  N   N101      1.0  0.41940  0.88200  0.51642  1.0000
  C   C224      1.0  0.43523  0.89052  0.58988  1.0000
  C   C225      1.0  0.45861  0.88847  0.58996  1.0000
  N   N102      1.0  0.46332  0.87720  0.51800  1.0000
  C   C226      1.0  0.42777  0.90190  0.66570  1.0000
  H   H219      1.0  0.43153  0.92171  0.64630  1.0000
  C   C227      1.0  0.47743  0.89722  0.66618  1.0000
  H   H220      1.0  0.49790  0.90848  0.64112  1.0000
  C   C228      1.0  0.38279  0.86532  0.36213  1.0000
  H   H221      1.0  0.38124  0.87605  0.41977  1.0000
  H   H222      1.0  0.36517  0.84533  0.36259  1.0000
  C   C229      1.0  0.85917  0.42914  0.44494  1.0000
  C   C230      1.0  0.86188  0.45496  0.44360  1.0000
  C   C231      1.0  0.85302  0.46347  0.36892  1.0000
  N   N103      1.0  0.87291  0.47076  0.51640  1.0000
  C   C232      1.0  0.88143  0.46345  0.58986  1.0000
  C   C233      1.0  0.87938  0.43801  0.58995  1.0000
  N   N104      1.0  0.86812  0.42203  0.51800  1.0000
  C   C234      1.0  0.89282  0.48229  0.66568  1.0000
  H   H223      1.0  0.91263  0.49834  0.64627  1.0000
  C   C235      1.0  0.88814  0.42795  0.66617  1.0000
  H   H224      1.0  0.89941  0.41875  0.64111  1.0000
  C   C236      1.0  0.85623  0.49068  0.36211  1.0000
  H   H225      1.0  0.86694  0.50295  0.41976  1.0000
  H   H226      1.0  0.83623  0.48830  0.36256  1.0000
  C   C237      1.0  0.59623  0.45635  0.44492  1.0000
  C   C238      1.0  0.57041  0.43324  0.44358  1.0000
  C   C239      1.0  0.56190  0.41587  0.36891  1.0000
  N   N105      1.0  0.55462  0.42848  0.51639  1.0000
  C   C240      1.0  0.56193  0.44431  0.58986  1.0000
  C   C241      1.0  0.58736  0.46769  0.58994  1.0000
  N   N106      1.0  0.60334  0.47240  0.51798  1.0000
  C   C242      1.0  0.54308  0.43684  0.66568  1.0000
  H   H227      1.0  0.52704  0.44060  0.64630  1.0000
  C   C243      1.0  0.59743  0.48651  0.66617  1.0000
  H   H228      1.0  0.60663  0.50698  0.64111  1.0000
  C   C244      1.0  0.53470  0.39187  0.36211  1.0000
  H   H229      1.0  0.52242  0.39031  0.41975  1.0000
  H   H230      1.0  0.53707  0.37425  0.36258  1.0000
  C   C245      1.0  0.56903  0.16619  0.44494  1.0000
  C   C246      1.0  0.59214  0.16348  0.44360  1.0000
  C   C247      1.0  0.60951  0.17234  0.36893  1.0000
  N   N107      1.0  0.59690  0.15245  0.51641  1.0000
  C   C248      1.0  0.58107  0.14393  0.58987  1.0000
  C   C249      1.0  0.55769  0.14598  0.58996  1.0000
  N   N108      1.0  0.55297  0.15725  0.51801  1.0000
  C   C250      1.0  0.58853  0.13255  0.66570  1.0000
  H   H231      1.0  0.58477  0.11274  0.64630  1.0000
  C   C251      1.0  0.53887  0.13723  0.66619  1.0000
  H   H232      1.0  0.51840  0.12596  0.64113  1.0000
  C   C252      1.0  0.63351  0.16914  0.36212  1.0000
  H   H233      1.0  0.63506  0.15842  0.41977  1.0000
  H   H234      1.0  0.65112  0.18913  0.36258  1.0000
  C   C253      1.0  0.03411  0.41430  0.32709  1.0000
  C   C254      1.0  0.99115  0.39388  0.40606  1.0000
  C   C255      1.0  0.01863  0.41220  0.40273  1.0000
  H   H235      1.0  0.02730  0.42437  0.45669  1.0000
  H   H236      1.0  0.98100  0.39383  0.46181  1.0000
  C   C256      1.0  0.99433  0.35563  0.60907  1.0000
  C   C257      1.0  0.02428  0.36443  0.61899  1.0000
  H   H237      1.0  0.99266  0.37248  0.58415  1.0000
  H   H238      1.0  0.98497  0.33943  0.56050  1.0000
  H   H239      1.0  0.03428  0.37130  0.55463  1.0000
  H   H240      1.0  0.02603  0.34721  0.63949  1.0000
  H   H241      1.0  0.04278  0.40611  0.65883  1.0000
  C   C258      1.0  0.06312  0.43480  0.33183  1.0000
  H   H242      1.0  0.07119  0.43137  0.39339  1.0000
  H   H243      1.0  0.06425  0.45421  0.33769  1.0000
  C   C259      1.0  0.61107  0.64612  0.32711  1.0000
  C   C260      1.0  0.63148  0.62357  0.40609  1.0000
  C   C261      1.0  0.61317  0.63272  0.40276  1.0000
  H   H244      1.0  0.60100  0.62923  0.45671  1.0000
  H   H245      1.0  0.63155  0.61348  0.46186  1.0000
  C   C262      1.0  0.66976  0.66503  0.60911  1.0000
  C   C263      1.0  0.66095  0.68616  0.61903  1.0000
  H   H246      1.0  0.65291  0.64650  0.58417  1.0000
  H   H247      1.0  0.68597  0.67187  0.56057  1.0000
  H   H248      1.0  0.65409  0.68930  0.55468  1.0000
  H   H249      1.0  0.67817  0.70514  0.63956  1.0000
  H   H250      1.0  0.61927  0.66297  0.65882  1.0000
  C   C264      1.0  0.59057  0.65462  0.33184  1.0000
  H   H251      1.0  0.59399  0.66611  0.39339  1.0000
  H   H252      1.0  0.57115  0.63633  0.33770  1.0000
  C   C265      1.0  0.37927  0.99127  0.32707  1.0000
  C   C266      1.0  0.40181  0.03423  0.40607  1.0000
  C   C267      1.0  0.39266  0.00675  0.40272  1.0000
  H   H253      1.0  0.39616  0.99808  0.45669  1.0000
  H   H254      1.0  0.41190  0.04437  0.46184  1.0000
  C   C268      1.0  0.36036  0.03105  0.60910  1.0000
  C   C269      1.0  0.33923  0.00111  0.61899  1.0000
  H   H255      1.0  0.37890  0.03274  0.58418  1.0000
  H   H256      1.0  0.35352  0.04041  0.56054  1.0000
  H   H257      1.0  0.33611  0.99111  0.55463  1.0000
  H   H258      1.0  0.32025  0.99934  0.63950  1.0000
  H   H259      1.0  0.36242  0.98262  0.65882  1.0000
  C   C270      1.0  0.37076  0.96226  0.33182  1.0000
  H   H260      1.0  0.35926  0.95419  0.39337  1.0000
  H   H261      1.0  0.38905  0.96113  0.33768  1.0000
  C   C271      1.0  0.98218  0.62014  0.32706  1.0000
  C   C272      1.0  0.02514  0.64056  0.40605  1.0000
  C   C273      1.0  0.99766  0.62224  0.40272  1.0000
  H   H262      1.0  0.98899  0.61007  0.45667  1.0000
  H   H263      1.0  0.03528  0.64063  0.46182  1.0000
  C   C274      1.0  0.02195  0.67883  0.60908  1.0000
  C   C275      1.0  0.99201  0.67002  0.61899  1.0000
  H   H264      1.0  0.02364  0.66199  0.58415  1.0000
  H   H265      1.0  0.03132  0.69504  0.56052  1.0000
  H   H266      1.0  0.98201  0.66315  0.55463  1.0000
  H   H267      1.0  0.99025  0.68724  0.63950  1.0000
  H   H268      1.0  0.97353  0.62834  0.65880  1.0000
  C   C276      1.0  0.95317  0.59965  0.33181  1.0000
  H   H269      1.0  0.94510  0.60308  0.39336  1.0000
  H   H270      1.0  0.95204  0.58023  0.33769  1.0000
  C   C277      1.0  0.40522  0.38833  0.32708  1.0000
  C   C278      1.0  0.38481  0.41088  0.40606  1.0000
  C   C279      1.0  0.40313  0.40173  0.40272  1.0000
  H   H271      1.0  0.41530  0.40523  0.45668  1.0000
  H   H272      1.0  0.38476  0.42098  0.46181  1.0000
  C   C280      1.0  0.34655  0.36945  0.60908  1.0000
  C   C281      1.0  0.35535  0.34830  0.61898  1.0000
  H   H273      1.0  0.36340  0.38798  0.58415  1.0000
  H   H274      1.0  0.33034  0.36261  0.56052  1.0000
  H   H275      1.0  0.36222  0.34518  0.55463  1.0000
  H   H276      1.0  0.33813  0.32933  0.63949  1.0000
  H   H277      1.0  0.39703  0.37149  0.65882  1.0000
  C   C282      1.0  0.42572  0.37983  0.33182  1.0000
  H   H278      1.0  0.42230  0.36834  0.39337  1.0000
  H   H279      1.0  0.44514  0.39812  0.33767  1.0000
  C   C283      1.0  0.63703  0.04319  0.32709  1.0000
  C   C284      1.0  0.61449  0.00023  0.40607  1.0000
  C   C285      1.0  0.62365  0.02770  0.40274  1.0000
  H   H280      1.0  0.62015  0.03637  0.45670  1.0000
  H   H281      1.0  0.60440  0.99008  0.46185  1.0000
  C   C286      1.0  0.65595  0.00341  0.60910  1.0000
  C   C287      1.0  0.67709  0.03336  0.61902  1.0000
  H   H282      1.0  0.63742  0.00173  0.58415  1.0000
  H   H283      1.0  0.66279  0.99405  0.56056  1.0000
  H   H284      1.0  0.68022  0.04336  0.55467  1.0000
  H   H285      1.0  0.69606  0.03511  0.63956  1.0000
  H   H286      1.0  0.65389  0.05184  0.65882  1.0000
  C   C288      1.0  0.64554  0.07219  0.33183  1.0000
  H   H287      1.0  0.65703  0.08026  0.39339  1.0000
  H   H288      1.0  0.62725  0.07332  0.33769  1.0000
