data_image0
_chemical_formula_structural       C4OC4OH4N2C3HCH3CHC3HCH3CHC2HC2HN2C3HCH3CHC3HCH3CHC4OC4OH4N2C3HCH3CHC3HCH3CHC2HC2HN2C3HCH3CHC3HCH3CHC4OC4OH4N2C3HCH3CHC3HCH3CHC2HC2HN2C3HCH3CHC3HCH3CHC4OC4OH4N2C3HCH3CHC3HCH3CHC2HC2HN2C3HCH3CHC3HCH3CH
_chemical_formula_sum              "C128 O8 H104 N16"
_cell_length_a       31.6626
_cell_length_b       31.6626
_cell_length_c       14.9778
_cell_angle_alpha    90
_cell_angle_beta     90
_cell_angle_gamma    90

_space_group_name_H-M_alt    "P 1"
_space_group_IT_number       1

loop_
  _space_group_symop_operation_xyz
  'x, y, z'

loop_
  _atom_site_type_symbol
  _atom_site_label
  _atom_site_symmetry_multiplicity
  _atom_site_fract_x
  _atom_site_fract_y
  _atom_site_fract_z
  _atom_site_occupancy
  C   C1        1.0  0.01730  0.48381  0.32955  1.0000
  C   C2        1.0  0.08174  0.41921  0.32292  1.0000
  C   C3        1.0  0.09330  0.46207  0.32201  1.0000
  C   C4        1.0  0.06139  0.49331  0.32485  1.0000
  O   O1        1.0  0.11221  0.38866  0.31860  1.0000
  C   C5        1.0  0.48501  0.01615  0.33143  1.0000
  C   C6        1.0  0.44083  0.00656  0.32907  1.0000
  C   C7        1.0  0.40891  0.03774  0.33134  1.0000
  C   C8        1.0  0.42067  0.08052  0.33463  1.0000
  O   O2        1.0  0.39024  0.11096  0.33602  1.0000
  H   H1        1.0  0.12005  0.38215  0.38063  1.0000
  H   H2        1.0  0.38484  0.11824  0.27319  1.0000
  H   H3        1.0  0.07161  0.02362  0.32164  1.0000
  H   H4        1.0  0.43048  0.47632  0.32426  1.0000
  N   N1        1.0  0.36680  0.03004  0.33013  1.0000
  N   N2        1.0  0.13531  0.46999  0.32077  1.0000
  C   C9        1.0  0.50205  0.20553  0.34124  1.0000
  C   C10       1.0  0.53973  0.23012  0.32902  1.0000
  C   C11       1.0  0.53750  0.27482  0.32915  1.0000
  H   H5        1.0  0.56454  0.29193  0.31952  1.0000
  C   C12       1.0  0.58230  0.21095  0.31372  1.0000
  H   H6        1.0  0.58161  0.19142  0.25369  1.0000
  H   H7        1.0  0.09104  0.19145  0.37089  1.0000
  H   H8        1.0  0.60737  0.23426  0.30468  1.0000
  C   C13       1.0  0.50480  0.16053  0.33915  1.0000
  H   H9        1.0  0.53342  0.14608  0.33322  1.0000
  C   C14       1.0  0.29544  0.49947  0.32639  1.0000
  C   C15       1.0  0.27091  0.46156  0.31709  1.0000
  C   C16       1.0  0.22622  0.46374  0.31641  1.0000
  H   H10       1.0  0.20914  0.43648  0.30949  1.0000
  C   C17       1.0  0.29014  0.41867  0.30695  1.0000
  H   H11       1.0  0.31002  0.41790  0.24742  1.0000
  H   H12       1.0  0.26688  0.89341  0.30004  1.0000
  H   H13       1.0  0.30931  0.41133  0.36549  1.0000
  C   C18       1.0  0.34047  0.49663  0.32637  1.0000
  H   H14       1.0  0.35491  0.46796  0.32198  1.0000
  C   C19       1.0  0.00780  0.43968  0.33255  1.0000
  C   C20       1.0  0.03894  0.40770  0.32857  1.0000
  H   H15       1.0  0.47759  0.42948  0.33878  1.0000
  C   C21       1.0  0.46348  0.09223  0.33676  1.0000
  C   C22       1.0  0.49465  0.06029  0.33532  1.0000
  H   H16       1.0  0.02494  0.07059  0.33902  1.0000
  N   N3        1.0  0.47123  0.13433  0.33933  1.0000
  N   N4        1.0  0.03106  0.36570  0.33144  1.0000
  C   C23       1.0  0.99915  0.29677  0.34060  1.0000
  C   C24       1.0  0.96247  0.27258  0.35366  1.0000
  C   C25       1.0  0.96301  0.22787  0.35503  1.0000
  H   H17       1.0  0.93445  0.28824  0.36262  1.0000
  C   C26       1.0  0.92142  0.20719  0.37177  1.0000
  H   H18       1.0  0.89597  0.22928  0.38739  1.0000
  H   H19       1.0  0.92380  0.18564  0.42839  1.0000
  H   H20       1.0  0.41188  0.19015  0.31195  1.0000
  C   C27       1.0  0.99638  0.34130  0.33964  1.0000
  H   H21       1.0  0.96764  0.35562  0.34712  1.0000
  C   C28       1.0  0.20420  0.00226  0.32402  1.0000
  C   C29       1.0  0.22832  0.03923  0.33336  1.0000
  C   C30       1.0  0.27302  0.03878  0.33545  1.0000
  H   H22       1.0  0.21260  0.06739  0.33946  1.0000
  C   C31       1.0  0.29359  0.08079  0.34745  1.0000
  H   H23       1.0  0.27139  0.10684  0.35673  1.0000
  H   H24       1.0  0.31206  0.08815  0.28810  1.0000
  H   H25       1.0  0.31378  0.58029  0.40645  1.0000
  C   C32       1.0  0.15966  0.00490  0.32352  1.0000
  H   H26       1.0  0.14532  0.03373  0.32909  1.0000
  C   C33       1.0  0.01730  0.98381  0.32955  1.0000
  C   C34       1.0  0.08174  0.91921  0.32292  1.0000
  C   C35       1.0  0.09330  0.96207  0.32201  1.0000
  C   C36       1.0  0.06139  0.99331  0.32485  1.0000
  O   O3        1.0  0.11221  0.88866  0.31860  1.0000
  C   C37       1.0  0.48501  0.51614  0.33143  1.0000
  C   C38       1.0  0.44083  0.50656  0.32907  1.0000
  C   C39       1.0  0.40891  0.53774  0.33134  1.0000
  C   C40       1.0  0.42067  0.58052  0.33463  1.0000
  O   O4        1.0  0.39024  0.61096  0.33602  1.0000
  H   H27       1.0  0.12005  0.88215  0.38063  1.0000
  H   H28       1.0  0.38484  0.61824  0.27319  1.0000
  H   H29       1.0  0.07161  0.52362  0.32164  1.0000
  H   H30       1.0  0.43048  0.97632  0.32426  1.0000
  N   N5        1.0  0.36680  0.53004  0.33013  1.0000
  N   N6        1.0  0.13531  0.96999  0.32077  1.0000
  C   C41       1.0  0.50205  0.70553  0.34124  1.0000
  C   C42       1.0  0.53973  0.73012  0.32902  1.0000
  C   C43       1.0  0.53750  0.77482  0.32915  1.0000
  H   H31       1.0  0.56454  0.79193  0.31952  1.0000
  C   C44       1.0  0.58230  0.71095  0.31372  1.0000
  H   H32       1.0  0.58161  0.69142  0.25369  1.0000
  H   H33       1.0  0.09104  0.69145  0.37089  1.0000
  H   H34       1.0  0.60737  0.73426  0.30468  1.0000
  C   C45       1.0  0.50480  0.66052  0.33915  1.0000
  H   H35       1.0  0.53342  0.64608  0.33322  1.0000
  C   C46       1.0  0.29544  0.99947  0.32639  1.0000
  C   C47       1.0  0.27091  0.96155  0.31709  1.0000
  C   C48       1.0  0.22622  0.96374  0.31641  1.0000
  H   H36       1.0  0.20914  0.93648  0.30949  1.0000
  C   C49       1.0  0.29014  0.91867  0.30695  1.0000
  H   H37       1.0  0.31002  0.91790  0.24742  1.0000
  H   H38       1.0  0.26688  0.39341  0.30004  1.0000
  H   H39       1.0  0.30931  0.91133  0.36549  1.0000
  C   C50       1.0  0.34047  0.99663  0.32637  1.0000
  H   H40       1.0  0.35491  0.96796  0.32198  1.0000
  C   C51       1.0  0.00780  0.93968  0.33255  1.0000
  C   C52       1.0  0.03894  0.90771  0.32857  1.0000
  H   H41       1.0  0.47759  0.92947  0.33878  1.0000
  C   C53       1.0  0.46348  0.59223  0.33676  1.0000
  C   C54       1.0  0.49465  0.56029  0.33532  1.0000
  H   H42       1.0  0.02494  0.57059  0.33902  1.0000
  N   N7        1.0  0.47123  0.63433  0.33933  1.0000
  N   N8        1.0  0.03106  0.86570  0.33144  1.0000
  C   C55       1.0  0.99915  0.79677  0.34060  1.0000
  C   C56       1.0  0.96247  0.77258  0.35366  1.0000
  C   C57       1.0  0.96301  0.72787  0.35503  1.0000
  H   H43       1.0  0.93445  0.78824  0.36262  1.0000
  C   C58       1.0  0.92142  0.70719  0.37177  1.0000
  H   H44       1.0  0.89597  0.72928  0.38739  1.0000
  H   H45       1.0  0.92380  0.68564  0.42839  1.0000
  H   H46       1.0  0.41188  0.69015  0.31195  1.0000
  C   C59       1.0  0.99638  0.84130  0.33964  1.0000
  H   H47       1.0  0.96764  0.85562  0.34712  1.0000
  C   C60       1.0  0.20420  0.50226  0.32402  1.0000
  C   C61       1.0  0.22832  0.53923  0.33336  1.0000
  C   C62       1.0  0.27302  0.53878  0.33545  1.0000
  H   H48       1.0  0.21260  0.56739  0.33946  1.0000
  C   C63       1.0  0.29359  0.58079  0.34745  1.0000
  H   H49       1.0  0.27139  0.60683  0.35673  1.0000
  H   H50       1.0  0.31206  0.58815  0.28810  1.0000
  H   H51       1.0  0.31378  0.08029  0.40645  1.0000
  C   C64       1.0  0.15966  0.50490  0.32352  1.0000
  H   H52       1.0  0.14532  0.53373  0.32909  1.0000
  C   C65       1.0  0.51730  0.48381  0.32955  1.0000
  C   C66       1.0  0.58174  0.41921  0.32292  1.0000
  C   C67       1.0  0.59330  0.46207  0.32201  1.0000
  C   C68       1.0  0.56139  0.49331  0.32485  1.0000
  O   O5        1.0  0.61221  0.38866  0.31860  1.0000
  C   C69       1.0  0.98501  0.01615  0.33143  1.0000
  C   C70       1.0  0.94083  0.00656  0.32907  1.0000
  C   C71       1.0  0.90891  0.03774  0.33134  1.0000
  C   C72       1.0  0.92067  0.08052  0.33463  1.0000
  O   O6        1.0  0.89024  0.11096  0.33602  1.0000
  H   H53       1.0  0.62005  0.38215  0.38063  1.0000
  H   H54       1.0  0.88483  0.11824  0.27319  1.0000
  H   H55       1.0  0.57161  0.02362  0.32164  1.0000
  H   H56       1.0  0.93048  0.47632  0.32426  1.0000
  N   N9        1.0  0.86680  0.03004  0.33013  1.0000
  N   N10       1.0  0.63531  0.46999  0.32077  1.0000
  C   C73       1.0  0.00205  0.20553  0.34124  1.0000
  C   C74       1.0  0.03973  0.23012  0.32902  1.0000
  C   C75       1.0  0.03750  0.27482  0.32915  1.0000
  H   H57       1.0  0.06454  0.29193  0.31952  1.0000
  C   C76       1.0  0.08230  0.21095  0.31372  1.0000
  H   H58       1.0  0.08161  0.19142  0.25369  1.0000
  H   H59       1.0  0.59105  0.19145  0.37089  1.0000
  H   H60       1.0  0.10737  0.23426  0.30468  1.0000
  C   C77       1.0  0.00480  0.16053  0.33915  1.0000
  H   H61       1.0  0.03342  0.14608  0.33322  1.0000
  C   C78       1.0  0.79544  0.49947  0.32639  1.0000
  C   C79       1.0  0.77091  0.46156  0.31709  1.0000
  C   C80       1.0  0.72621  0.46374  0.31641  1.0000
  H   H62       1.0  0.70915  0.43648  0.30949  1.0000
  C   C81       1.0  0.79014  0.41867  0.30695  1.0000
  H   H63       1.0  0.81002  0.41790  0.24742  1.0000
  H   H64       1.0  0.76688  0.89341  0.30004  1.0000
  H   H65       1.0  0.80932  0.41133  0.36549  1.0000
  C   C82       1.0  0.84046  0.49663  0.32637  1.0000
  H   H66       1.0  0.85491  0.46796  0.32198  1.0000
  C   C83       1.0  0.50779  0.43968  0.33255  1.0000
  C   C84       1.0  0.53894  0.40770  0.32857  1.0000
  H   H67       1.0  0.97759  0.42948  0.33878  1.0000
  C   C85       1.0  0.96348  0.09223  0.33676  1.0000
  C   C86       1.0  0.99465  0.06029  0.33532  1.0000
  H   H68       1.0  0.52494  0.07059  0.33902  1.0000
  N   N11       1.0  0.97123  0.13433  0.33933  1.0000
  N   N12       1.0  0.53106  0.36570  0.33144  1.0000
  C   C87       1.0  0.49915  0.29677  0.34060  1.0000
  C   C88       1.0  0.46247  0.27258  0.35366  1.0000
  C   C89       1.0  0.46301  0.22787  0.35503  1.0000
  H   H69       1.0  0.43445  0.28824  0.36262  1.0000
  C   C90       1.0  0.42142  0.20719  0.37177  1.0000
  H   H70       1.0  0.39597  0.22928  0.38739  1.0000
  H   H71       1.0  0.42380  0.18564  0.42839  1.0000
  H   H72       1.0  0.91188  0.19015  0.31195  1.0000
  C   C91       1.0  0.49638  0.34130  0.33964  1.0000
  H   H73       1.0  0.46764  0.35562  0.34712  1.0000
  C   C92       1.0  0.70420  0.00226  0.32402  1.0000
  C   C93       1.0  0.72832  0.03923  0.33336  1.0000
  C   C94       1.0  0.77302  0.03878  0.33545  1.0000
  H   H74       1.0  0.71260  0.06739  0.33946  1.0000
  C   C95       1.0  0.79359  0.08079  0.34745  1.0000
  H   H75       1.0  0.77139  0.10684  0.35673  1.0000
  H   H76       1.0  0.81206  0.08815  0.28810  1.0000
  H   H77       1.0  0.81378  0.58029  0.40645  1.0000
  C   C96       1.0  0.65966  0.00490  0.32352  1.0000
  H   H78       1.0  0.64532  0.03373  0.32909  1.0000
  C   C97       1.0  0.51730  0.98381  0.32955  1.0000
  C   C98       1.0  0.58174  0.91921  0.32292  1.0000
  C   C99       1.0  0.59330  0.96207  0.32201  1.0000
  C   C100      1.0  0.56139  0.99331  0.32485  1.0000
  O   O7        1.0  0.61221  0.88866  0.31860  1.0000
  C   C101      1.0  0.98501  0.51614  0.33143  1.0000
  C   C102      1.0  0.94083  0.50656  0.32907  1.0000
  C   C103      1.0  0.90891  0.53774  0.33134  1.0000
  C   C104      1.0  0.92067  0.58052  0.33463  1.0000
  O   O8        1.0  0.89024  0.61096  0.33602  1.0000
  H   H79       1.0  0.62005  0.88215  0.38063  1.0000
  H   H80       1.0  0.88483  0.61824  0.27319  1.0000
  H   H81       1.0  0.57161  0.52362  0.32164  1.0000
  H   H82       1.0  0.93048  0.97632  0.32426  1.0000
  N   N13       1.0  0.86680  0.53004  0.33013  1.0000
  N   N14       1.0  0.63531  0.96999  0.32077  1.0000
  C   C105      1.0  0.00205  0.70553  0.34124  1.0000
  C   C106      1.0  0.03973  0.73012  0.32902  1.0000
  C   C107      1.0  0.03750  0.77482  0.32915  1.0000
  H   H83       1.0  0.06454  0.79193  0.31952  1.0000
  C   C108      1.0  0.08230  0.71095  0.31372  1.0000
  H   H84       1.0  0.08161  0.69142  0.25369  1.0000
  H   H85       1.0  0.59105  0.69145  0.37089  1.0000
  H   H86       1.0  0.10737  0.73426  0.30468  1.0000
  C   C109      1.0  0.00480  0.66052  0.33915  1.0000
  H   H87       1.0  0.03342  0.64608  0.33322  1.0000
  C   C110      1.0  0.79544  0.99947  0.32639  1.0000
  C   C111      1.0  0.77091  0.96155  0.31709  1.0000
  C   C112      1.0  0.72621  0.96374  0.31641  1.0000
  H   H88       1.0  0.70915  0.93648  0.30949  1.0000
  C   C113      1.0  0.79014  0.91867  0.30695  1.0000
  H   H89       1.0  0.81002  0.91790  0.24742  1.0000
  H   H90       1.0  0.76688  0.39341  0.30004  1.0000
  H   H91       1.0  0.80932  0.91133  0.36549  1.0000
  C   C114      1.0  0.84046  0.99663  0.32637  1.0000
  H   H92       1.0  0.85491  0.96796  0.32198  1.0000
  C   C115      1.0  0.50779  0.93968  0.33255  1.0000
  C   C116      1.0  0.53894  0.90771  0.32857  1.0000
  H   H93       1.0  0.97759  0.92947  0.33878  1.0000
  C   C117      1.0  0.96348  0.59223  0.33676  1.0000
  C   C118      1.0  0.99465  0.56029  0.33532  1.0000
  H   H94       1.0  0.52494  0.57059  0.33902  1.0000
  N   N15       1.0  0.97123  0.63433  0.33933  1.0000
  N   N16       1.0  0.53106  0.86570  0.33144  1.0000
  C   C119      1.0  0.49915  0.79677  0.34060  1.0000
  C   C120      1.0  0.46247  0.77258  0.35366  1.0000
  C   C121      1.0  0.46301  0.72787  0.35503  1.0000
  H   H95       1.0  0.43445  0.78824  0.36262  1.0000
  C   C122      1.0  0.42142  0.70719  0.37177  1.0000
  H   H96       1.0  0.39597  0.72928  0.38739  1.0000
  H   H97       1.0  0.42380  0.68564  0.42839  1.0000
  H   H98       1.0  0.91188  0.69015  0.31195  1.0000
  C   C123      1.0  0.49638  0.84130  0.33964  1.0000
  H   H99       1.0  0.46764  0.85562  0.34712  1.0000
  C   C124      1.0  0.70420  0.50226  0.32402  1.0000
  C   C125      1.0  0.72832  0.53923  0.33336  1.0000
  C   C126      1.0  0.77302  0.53878  0.33545  1.0000
  H   H100      1.0  0.71260  0.56739  0.33946  1.0000
  C   C127      1.0  0.79359  0.58079  0.34745  1.0000
  H   H101      1.0  0.77139  0.60683  0.35673  1.0000
  H   H102      1.0  0.81206  0.58815  0.28810  1.0000
  H   H103      1.0  0.81378  0.08029  0.40645  1.0000
  C   C128      1.0  0.65966  0.50490  0.32352  1.0000
  H   H104      1.0  0.64532  0.53373  0.32909  1.0000
