data_image0
_chemical_formula_structural       C4N2O4C4N2O4C2H2C2H2C4N2O4C4N2O4C2H2C2H2C4N2O4C4N2O4C4N2O4C4N2O4C2H2C2H2C4N2O4C4N2O4C2H2C2H2C4N2O4C4N2O4C2H2C2H2C4N2O4C4N2O4CNCNCNCNCNCNCNCNCNCNCNCNCNCNCNCNCNCNCNCNCNCNCNCNCNCNCNCNCNCNCNCNCNCNCNCNCNCNCNCNCNCNCNCNCNCNCNCNC2H2C2H2C4N2O4C4N2O4C2H2C2H2C4N2O4C4N2O4C2H2C2H2C2H2C2H2C4N2O4C4N2O4C2H2C2H2C4N2O4C4N2O4C2H2C2H2C4N2O4C4N2O4C2H2C2H2
_chemical_formula_sum              "C192 N96 O96 H48"
_cell_length_a       43.8283
_cell_length_b       34.3681
_cell_length_c       14.772
_cell_angle_alpha    90
_cell_angle_beta     90
_cell_angle_gamma    90

_space_group_name_H-M_alt    "P 1"
_space_group_IT_number       1

loop_
  _space_group_symop_operation_xyz
  'x, y, z'

loop_
  _atom_site_type_symbol
  _atom_site_label
  _atom_site_symmetry_multiplicity
  _atom_site_fract_x
  _atom_site_fract_y
  _atom_site_fract_z
  _atom_site_occupancy
  C   C1        1.0  0.00766  0.96576  0.34488  1.0000
  C   C2        1.0  0.00779  0.04963  0.34486  1.0000
  C   C3        1.0  0.00761  0.02863  0.26175  1.0000
  C   C4        1.0  0.00765  0.98675  0.26176  1.0000
  N   N1        1.0  0.00745  0.05158  0.18198  1.0000
  N   N2        1.0  0.00766  0.96380  0.18199  1.0000
  O   O1        1.0  0.03084  0.04743  0.13404  1.0000
  O   O2        1.0  0.03126  0.96781  0.13488  1.0000
  O   O3        1.0  0.98376  0.04757  0.13526  1.0000
  O   O4        1.0  0.98417  0.96794  0.13444  1.0000
  C   C5        1.0  0.50766  0.46576  0.34486  1.0000
  C   C6        1.0  0.50778  0.54962  0.34484  1.0000
  C   C7        1.0  0.50765  0.52863  0.26174  1.0000
  C   C8        1.0  0.50768  0.48675  0.26174  1.0000
  N   N3        1.0  0.50751  0.55157  0.18196  1.0000
  N   N4        1.0  0.50772  0.46380  0.18197  1.0000
  O   O5        1.0  0.53092  0.54743  0.13410  1.0000
  O   O6        1.0  0.53134  0.46780  0.13493  1.0000
  O   O7        1.0  0.48384  0.54756  0.13516  1.0000
  O   O8        1.0  0.48425  0.46794  0.13435  1.0000
  C   C9        1.0  0.07792  0.18314  0.27462  1.0000
  C   C10       1.0  0.10410  0.20704  0.27497  1.0000
  H   H1        1.0  0.11373  0.21450  0.21425  1.0000
  H   H2        1.0  0.06946  0.17391  0.21369  1.0000
  C   C11       1.0  0.93750  0.83227  0.27463  1.0000
  C   C12       1.0  0.91132  0.80837  0.27499  1.0000
  H   H3        1.0  0.90169  0.80091  0.21428  1.0000
  H   H4        1.0  0.94596  0.84150  0.21370  1.0000
  C   C13       1.0  0.95273  0.17310  0.34210  1.0000
  C   C14       1.0  0.89906  0.22155  0.34134  1.0000
  C   C15       1.0  0.91375  0.21114  0.25855  1.0000
  C   C16       1.0  0.94028  0.18701  0.25890  1.0000
  N   N5        1.0  0.90333  0.22450  0.17304  1.0000
  N   N6        1.0  0.95362  0.17834  0.17369  1.0000
  O   O9        1.0  0.90508  0.26083  0.16514  1.0000
  O   O10       1.0  0.95423  0.14243  0.15789  1.0000
  O   O11       1.0  0.87655  0.21362  0.15643  1.0000
  O   O12       1.0  0.98003  0.19215  0.16583  1.0000
  C   C17       1.0  0.06270  0.84227  0.34219  1.0000
  C   C18       1.0  0.11638  0.79385  0.34139  1.0000
  C   C19       1.0  0.10168  0.80425  0.25860  1.0000
  C   C20       1.0  0.07515  0.82837  0.25898  1.0000
  N   N7        1.0  0.11210  0.79090  0.17309  1.0000
  N   N8        1.0  0.06180  0.83704  0.17377  1.0000
  O   O13       1.0  0.11035  0.75457  0.16520  1.0000
  O   O14       1.0  0.06118  0.87295  0.15798  1.0000
  O   O15       1.0  0.13887  0.80178  0.15646  1.0000
  O   O16       1.0  0.03539  0.82322  0.16592  1.0000
  C   C21       1.0  0.57793  0.68312  0.27456  1.0000
  C   C22       1.0  0.60411  0.70702  0.27490  1.0000
  H   H5        1.0  0.61373  0.71447  0.21417  1.0000
  H   H6        1.0  0.56947  0.67389  0.21363  1.0000
  C   C23       1.0  0.43748  0.33231  0.27462  1.0000
  C   C24       1.0  0.41130  0.30842  0.27497  1.0000
  H   H7        1.0  0.40166  0.30098  0.21425  1.0000
  H   H8        1.0  0.44593  0.34156  0.21370  1.0000
  C   C25       1.0  0.45273  0.67310  0.34212  1.0000
  C   C26       1.0  0.39907  0.72154  0.34138  1.0000
  C   C27       1.0  0.41376  0.71115  0.25859  1.0000
  C   C28       1.0  0.44028  0.68702  0.25892  1.0000
  N   N9        1.0  0.40334  0.72452  0.17308  1.0000
  N   N10       1.0  0.45364  0.67837  0.17371  1.0000
  O   O17       1.0  0.40509  0.76085  0.16522  1.0000
  O   O18       1.0  0.45425  0.64246  0.15789  1.0000
  O   O19       1.0  0.37656  0.71364  0.15646  1.0000
  O   O20       1.0  0.48004  0.69219  0.16587  1.0000
  C   C29       1.0  0.56270  0.34227  0.34221  1.0000
  C   C30       1.0  0.61637  0.29384  0.34144  1.0000
  C   C31       1.0  0.60168  0.30424  0.25865  1.0000
  C   C32       1.0  0.57515  0.32836  0.25900  1.0000
  N   N11       1.0  0.61209  0.29087  0.17314  1.0000
  N   N12       1.0  0.56180  0.33702  0.17380  1.0000
  O   O21       1.0  0.61034  0.25454  0.16527  1.0000
  O   O22       1.0  0.56119  0.37293  0.15798  1.0000
  O   O23       1.0  0.63887  0.30174  0.15651  1.0000
  O   O24       1.0  0.53539  0.32320  0.16595  1.0000
  C   C33       1.0  0.36794  0.15938  0.34333  1.0000
  C   C34       1.0  0.38309  0.07888  0.34261  1.0000
  C   C35       1.0  0.38266  0.10012  0.26012  1.0000
  C   C36       1.0  0.37463  0.14034  0.26003  1.0000
  N   N13       1.0  0.39071  0.07981  0.17989  1.0000
  N   N14       1.0  0.37391  0.15967  0.17523  1.0000
  O   O25       1.0  0.36914  0.07872  0.12394  1.0000
  O   O26       1.0  0.34787  0.17279  0.15693  1.0000
  O   O27       1.0  0.41401  0.09387  0.14270  1.0000
  O   O28       1.0  0.39323  0.18656  0.17006  1.0000
  C   C37       1.0  0.64745  0.85604  0.34326  1.0000
  C   C38       1.0  0.63226  0.93654  0.34259  1.0000
  C   C39       1.0  0.63271  0.91530  0.26008  1.0000
  C   C40       1.0  0.64076  0.87509  0.25997  1.0000
  N   N15       1.0  0.62466  0.93560  0.17985  1.0000
  N   N16       1.0  0.64148  0.85576  0.17516  1.0000
  O   O29       1.0  0.64624  0.93671  0.12392  1.0000
  O   O30       1.0  0.66752  0.84266  0.15686  1.0000
  O   O31       1.0  0.60137  0.92154  0.14261  1.0000
  O   O32       1.0  0.62217  0.82886  0.16998  1.0000
  C   C41       1.0  0.64741  0.13752  0.27684  1.0000
  C   C42       1.0  0.63944  0.09794  0.27801  1.0000
  H   H9        1.0  0.63823  0.08324  0.21779  1.0000
  H   H10       1.0  0.65236  0.15036  0.21601  1.0000
  C   C43       1.0  0.36802  0.87788  0.27698  1.0000
  C   C44       1.0  0.37597  0.91747  0.27824  1.0000
  H   H11       1.0  0.37719  0.93218  0.21802  1.0000
  H   H12       1.0  0.36310  0.86505  0.21611  1.0000
  C   C45       1.0  0.86794  0.65936  0.34341  1.0000
  C   C46       1.0  0.88309  0.57887  0.34265  1.0000
  C   C47       1.0  0.88266  0.60011  0.26015  1.0000
  C   C48       1.0  0.87463  0.64032  0.26010  1.0000
  N   N17       1.0  0.89071  0.57980  0.17991  1.0000
  N   N18       1.0  0.87391  0.65966  0.17531  1.0000
  O   O33       1.0  0.86914  0.57872  0.12397  1.0000
  O   O34       1.0  0.84787  0.67278  0.15703  1.0000
  O   O35       1.0  0.91401  0.59386  0.14272  1.0000
  O   O36       1.0  0.89323  0.68656  0.17014  1.0000
  C   C49       1.0  0.14744  0.35604  0.34331  1.0000
  C   C50       1.0  0.13229  0.43655  0.34256  1.0000
  C   C51       1.0  0.13275  0.41530  0.26007  1.0000
  C   C52       1.0  0.14079  0.37509  0.26000  1.0000
  N   N19       1.0  0.12472  0.43562  0.17983  1.0000
  N   N20       1.0  0.14153  0.35576  0.17520  1.0000
  O   O37       1.0  0.14630  0.43671  0.12392  1.0000
  O   O38       1.0  0.16758  0.34264  0.15697  1.0000
  O   O39       1.0  0.10143  0.42156  0.14257  1.0000
  O   O40       1.0  0.12221  0.32886  0.16998  1.0000
  C   C53       1.0  0.14742  0.63753  0.27676  1.0000
  C   C54       1.0  0.13945  0.59795  0.27794  1.0000
  H   H13       1.0  0.13824  0.58325  0.21772  1.0000
  H   H14       1.0  0.15238  0.65037  0.21592  1.0000
  C   C55       1.0  0.86799  0.37789  0.27686  1.0000
  C   C56       1.0  0.87595  0.41748  0.27808  1.0000
  H   H15       1.0  0.87716  0.43219  0.21788  1.0000
  H   H16       1.0  0.86305  0.36506  0.21601  1.0000
  C   C57       1.0  0.47561  0.00781  0.34234  1.0000
  C   C58       1.0  0.53975  0.00761  0.34225  1.0000
  C   C59       1.0  0.52397  0.00759  0.25832  1.0000
  C   C60       1.0  0.49136  0.00783  0.25837  1.0000
  N   N21       1.0  0.54209  0.00738  0.17874  1.0000
  N   N22       1.0  0.47321  0.00804  0.17883  1.0000
  O   O41       1.0  0.53897  0.03730  0.13099  1.0000
  O   O42       1.0  0.47646  0.03815  0.13182  1.0000
  O   O43       1.0  0.53883  0.97727  0.13174  1.0000
  O   O44       1.0  0.47632  0.97812  0.13109  1.0000
  C   C61       1.0  0.97562  0.50781  0.34238  1.0000
  C   C62       1.0  0.03976  0.50760  0.34232  1.0000
  C   C63       1.0  0.02398  0.50758  0.25839  1.0000
  C   C64       1.0  0.99138  0.50783  0.25842  1.0000
  N   N23       1.0  0.04211  0.50737  0.17881  1.0000
  N   N24       1.0  0.97323  0.50803  0.17887  1.0000
  O   O45       1.0  0.03899  0.53729  0.13107  1.0000
  O   O46       1.0  0.97648  0.53814  0.13186  1.0000
  O   O47       1.0  0.03886  0.47726  0.13181  1.0000
  O   O48       1.0  0.97634  0.47811  0.13113  1.0000
  C   C65       1.0  0.27374  0.25639  0.27596  1.0000
  C   C66       1.0  0.24168  0.25903  0.27594  1.0000
  H   H17       1.0  0.23055  0.26047  0.21508  1.0000
  H   H18       1.0  0.28487  0.25494  0.21510  1.0000
  C   C67       1.0  0.74170  0.75899  0.27595  1.0000
  C   C68       1.0  0.77375  0.75636  0.27599  1.0000
  H   H19       1.0  0.78489  0.75487  0.21514  1.0000
  H   H20       1.0  0.73057  0.76041  0.21507  1.0000
  C   C69       1.0  0.72501  0.25562  0.33964  1.0000
  C   C70       1.0  0.79041  0.25977  0.33961  1.0000
  C   C71       1.0  0.77394  0.25912  0.25633  1.0000
  C   C72       1.0  0.74148  0.25623  0.25636  1.0000
  N   N25       1.0  0.78860  0.26109  0.17077  1.0000
  N   N26       1.0  0.72682  0.25424  0.17081  1.0000
  O   O49       1.0  0.80668  0.23323  0.15849  1.0000
  O   O50       1.0  0.71298  0.22262  0.15913  1.0000
  O   O51       1.0  0.80244  0.29270  0.15902  1.0000
  O   O52       1.0  0.70874  0.28209  0.15850  1.0000
  C   C73       1.0  0.29042  0.75977  0.33963  1.0000
  C   C74       1.0  0.22502  0.75563  0.33962  1.0000
  C   C75       1.0  0.24149  0.75627  0.25634  1.0000
  C   C76       1.0  0.27396  0.75915  0.25634  1.0000
  N   N27       1.0  0.22684  0.75429  0.17079  1.0000
  N   N28       1.0  0.28862  0.76113  0.17079  1.0000
  O   O53       1.0  0.20876  0.78215  0.15851  1.0000
  O   O54       1.0  0.30246  0.79274  0.15910  1.0000
  O   O55       1.0  0.21299  0.72268  0.15906  1.0000
  O   O56       1.0  0.30669  0.73328  0.15849  1.0000
  C   C77       1.0  0.98055  0.15149  0.34647  1.0000
  N   N29       1.0  0.98103  0.11176  0.34557  1.0000
  C   C78       1.0  0.00777  0.09133  0.34825  1.0000
  N   N30       1.0  0.03451  0.11178  0.35068  1.0000
  C   C79       1.0  0.03494  0.15152  0.35145  1.0000
  N   N31       1.0  0.00774  0.17070  0.34932  1.0000
  C   C80       1.0  0.03488  0.86389  0.34655  1.0000
  N   N32       1.0  0.03441  0.90362  0.34567  1.0000
  C   C81       1.0  0.00767  0.92405  0.34828  1.0000
  N   N33       1.0  0.98093  0.90361  0.35065  1.0000
  C   C82       1.0  0.98049  0.86388  0.35144  1.0000
  N   N34       1.0  0.00769  0.84469  0.34937  1.0000
  C   C83       1.0  0.48056  0.65149  0.34647  1.0000
  N   N35       1.0  0.48104  0.61176  0.34559  1.0000
  C   C84       1.0  0.50777  0.59133  0.34823  1.0000
  N   N36       1.0  0.53451  0.61177  0.35064  1.0000
  C   C85       1.0  0.53495  0.65151  0.35141  1.0000
  N   N37       1.0  0.50775  0.67070  0.34930  1.0000
  C   C86       1.0  0.53487  0.36389  0.34655  1.0000
  N   N38       1.0  0.53440  0.40363  0.34565  1.0000
  C   C87       1.0  0.50767  0.42405  0.34826  1.0000
  N   N39       1.0  0.48093  0.40361  0.35064  1.0000
  C   C88       1.0  0.48048  0.36388  0.35145  1.0000
  N   N40       1.0  0.50769  0.34469  0.34938  1.0000
  C   C89       1.0  0.39743  0.97321  0.35527  1.0000
  N   N41       1.0  0.38174  0.00753  0.35288  1.0000
  C   C90       1.0  0.39718  0.04197  0.34752  1.0000
  N   N42       1.0  0.42810  0.04168  0.34393  1.0000
  C   C91       1.0  0.44370  0.00777  0.34639  1.0000
  N   N43       1.0  0.42834  0.97375  0.35156  1.0000
  C   C92       1.0  0.61792  0.04221  0.35504  1.0000
  N   N44       1.0  0.63362  0.00789  0.35269  1.0000
  C   C93       1.0  0.61818  0.97345  0.34738  1.0000
  N   N45       1.0  0.58726  0.97374  0.34381  1.0000
  C   C94       1.0  0.57166  0.00765  0.34622  1.0000
  N   N46       1.0  0.58701  0.04167  0.35133  1.0000
  C   C95       1.0  0.89745  0.47319  0.35517  1.0000
  N   N47       1.0  0.88175  0.50751  0.35281  1.0000
  C   C96       1.0  0.89719  0.54196  0.34749  1.0000
  N   N48       1.0  0.92810  0.54167  0.34396  1.0000
  C   C97       1.0  0.94371  0.50777  0.34642  1.0000
  N   N49       1.0  0.92836  0.47375  0.35150  1.0000
  C   C98       1.0  0.11793  0.54221  0.35500  1.0000
  N   N50       1.0  0.13363  0.50790  0.35267  1.0000
  C   C99       1.0  0.11819  0.47345  0.34744  1.0000
  N   N51       1.0  0.08727  0.47373  0.34390  1.0000
  C   C100      1.0  0.07167  0.50764  0.34630  1.0000
  N   N52       1.0  0.08702  0.54167  0.35135  1.0000
  C   C101      1.0  0.14059  0.24956  0.35255  1.0000
  N   N53       1.0  0.17085  0.23968  0.35546  1.0000
  C   C102      1.0  0.19316  0.26758  0.35387  1.0000
  N   N54       1.0  0.18473  0.30553  0.35014  1.0000
  C   C103      1.0  0.15499  0.31614  0.34744  1.0000
  N   N55       1.0  0.13317  0.28802  0.34871  1.0000
  C   C104      1.0  0.87484  0.76584  0.35261  1.0000
  N   N56       1.0  0.84458  0.77574  0.35550  1.0000
  C   C105      1.0  0.82227  0.74785  0.35393  1.0000
  N   N57       1.0  0.83067  0.70990  0.35023  1.0000
  C   C106      1.0  0.86041  0.69927  0.34754  1.0000
  N   N58       1.0  0.88224  0.72738  0.34879  1.0000
  C   C107      1.0  0.87483  0.24934  0.34519  1.0000
  N   N59       1.0  0.84456  0.23952  0.34160  1.0000
  C   C108      1.0  0.82228  0.26746  0.34358  1.0000
  N   N60       1.0  0.83074  0.30537  0.34858  1.0000
  C   C109      1.0  0.86050  0.31590  0.35207  1.0000
  N   N61       1.0  0.88229  0.28775  0.35032  1.0000
  C   C110      1.0  0.14061  0.76606  0.34523  1.0000
  N   N62       1.0  0.17088  0.77588  0.34165  1.0000
  C   C111      1.0  0.19316  0.74794  0.34364  1.0000
  N   N63       1.0  0.18469  0.71003  0.34857  1.0000
  C   C112      1.0  0.15493  0.69949  0.35204  1.0000
  N   N64       1.0  0.13315  0.72765  0.35032  1.0000
  C   C113      1.0  0.64060  0.74956  0.35246  1.0000
  N   N65       1.0  0.67087  0.73967  0.35539  1.0000
  C   C114      1.0  0.69317  0.76758  0.35383  1.0000
  N   N66       1.0  0.68474  0.80553  0.35009  1.0000
  C   C115      1.0  0.65500  0.81613  0.34737  1.0000
  N   N67       1.0  0.63318  0.78801  0.34862  1.0000
  C   C116      1.0  0.37483  0.26586  0.35253  1.0000
  N   N68       1.0  0.34457  0.27576  0.35544  1.0000
  C   C117      1.0  0.32225  0.24787  0.35385  1.0000
  N   N69       1.0  0.33066  0.20991  0.35014  1.0000
  C   C118      1.0  0.36040  0.19929  0.34744  1.0000
  N   N70       1.0  0.38223  0.22740  0.34871  1.0000
  C   C119      1.0  0.37484  0.74933  0.34525  1.0000
  N   N71       1.0  0.34457  0.73952  0.34165  1.0000
  C   C120      1.0  0.32229  0.76745  0.34364  1.0000
  N   N72       1.0  0.33076  0.80536  0.34865  1.0000
  C   C121      1.0  0.36051  0.81589  0.35217  1.0000
  N   N73       1.0  0.38229  0.78774  0.35041  1.0000
  C   C122      1.0  0.64060  0.26605  0.34530  1.0000
  N   N74       1.0  0.67087  0.27586  0.34170  1.0000
  C   C123      1.0  0.69315  0.24793  0.34369  1.0000
  N   N75       1.0  0.68468  0.21001  0.34864  1.0000
  C   C124      1.0  0.65493  0.19948  0.35214  1.0000
  N   N76       1.0  0.63314  0.22764  0.35041  1.0000
  C   C125      1.0  0.00777  0.98717  0.42651  1.0000
  C   C126      1.0  0.00790  0.02822  0.42650  1.0000
  H   H21       1.0  0.00799  0.04248  0.48735  1.0000
  H   H22       1.0  0.00782  0.97292  0.48736  1.0000
  C   C127      1.0  0.50772  0.48717  0.42649  1.0000
  C   C128      1.0  0.50785  0.52822  0.42648  1.0000
  H   H23       1.0  0.50792  0.54248  0.48733  1.0000
  H   H24       1.0  0.50775  0.47292  0.48734  1.0000
  C   C129      1.0  0.06276  0.17318  0.35579  1.0000
  C   C130      1.0  0.11637  0.22175  0.35655  1.0000
  C   C131      1.0  0.10136  0.21190  0.43919  1.0000
  C   C132      1.0  0.07485  0.18775  0.43884  1.0000
  N   N77       1.0  0.11152  0.22570  0.52460  1.0000
  N   N78       1.0  0.06124  0.17960  0.52394  1.0000
  O   O57       1.0  0.10967  0.26205  0.53159  1.0000
  O   O58       1.0  0.06059  0.14379  0.54090  1.0000
  O   O59       1.0  0.13827  0.21497  0.54219  1.0000
  O   O60       1.0  0.03482  0.19347  0.53068  1.0000
  C   C133      1.0  0.95267  0.84222  0.35580  1.0000
  C   C134      1.0  0.89908  0.79362  0.35657  1.0000
  C   C135      1.0  0.91408  0.80348  0.43922  1.0000
  C   C136      1.0  0.94058  0.82764  0.43885  1.0000
  N   N79       1.0  0.90392  0.78969  0.52463  1.0000
  N   N80       1.0  0.95420  0.83579  0.52395  1.0000
  O   O61       1.0  0.90577  0.75334  0.53163  1.0000
  O   O62       1.0  0.95485  0.87161  0.54091  1.0000
  O   O63       1.0  0.87718  0.80041  0.54221  1.0000
  O   O64       1.0  0.98062  0.82192  0.53068  1.0000
  C   C137      1.0  0.93795  0.18374  0.42342  1.0000
  C   C138      1.0  0.91173  0.20755  0.42304  1.0000
  H   H25       1.0  0.90234  0.21543  0.48380  1.0000
  H   H26       1.0  0.94666  0.17497  0.48440  1.0000
  C   C139      1.0  0.07751  0.83167  0.42349  1.0000
  C   C140      1.0  0.10372  0.80787  0.42310  1.0000
  H   H27       1.0  0.11313  0.79999  0.48385  1.0000
  H   H28       1.0  0.06879  0.84044  0.48448  1.0000
  C   C141      1.0  0.56277  0.67317  0.35573  1.0000
  C   C142      1.0  0.61638  0.72174  0.35645  1.0000
  C   C143      1.0  0.60137  0.71191  0.43910  1.0000
  C   C144      1.0  0.57486  0.68776  0.43877  1.0000
  N   N81       1.0  0.61152  0.72572  0.52451  1.0000
  N   N82       1.0  0.56124  0.67962  0.52388  1.0000
  O   O65       1.0  0.60967  0.76207  0.53146  1.0000
  O   O66       1.0  0.56059  0.64381  0.54087  1.0000
  O   O67       1.0  0.63827  0.71500  0.54211  1.0000
  O   O68       1.0  0.53482  0.69350  0.53061  1.0000
  C   C145      1.0  0.45267  0.34222  0.35579  1.0000
  C   C146      1.0  0.39906  0.29364  0.35653  1.0000
  C   C147      1.0  0.41408  0.30348  0.43918  1.0000
  C   C148      1.0  0.44058  0.32763  0.43883  1.0000
  N   N83       1.0  0.40392  0.28966  0.52458  1.0000
  N   N84       1.0  0.45421  0.33575  0.52393  1.0000
  O   O69       1.0  0.40577  0.25331  0.53153  1.0000
  O   O70       1.0  0.45487  0.37156  0.54094  1.0000
  O   O71       1.0  0.37718  0.30039  0.54219  1.0000
  O   O72       1.0  0.48063  0.32187  0.53063  1.0000
  C   C149      1.0  0.43794  0.68371  0.42344  1.0000
  C   C150      1.0  0.41173  0.70751  0.42308  1.0000
  H   H29       1.0  0.40233  0.71539  0.48384  1.0000
  H   H30       1.0  0.44666  0.67493  0.48442  1.0000
  C   C151      1.0  0.57750  0.33168  0.42352  1.0000
  C   C152      1.0  0.60372  0.30787  0.42315  1.0000
  H   H31       1.0  0.61312  0.30000  0.48390  1.0000
  H   H32       1.0  0.56879  0.34045  0.48450  1.0000
  C   C153      1.0  0.36802  0.13770  0.42446  1.0000
  C   C154      1.0  0.37577  0.09803  0.42423  1.0000
  H   H33       1.0  0.37728  0.08368  0.48484  1.0000
  H   H34       1.0  0.36342  0.15094  0.48507  1.0000
  C   C155      1.0  0.64737  0.87771  0.42439  1.0000
  C   C156      1.0  0.63962  0.91738  0.42417  1.0000
  H   H35       1.0  0.63809  0.93173  0.48478  1.0000
  H   H36       1.0  0.65198  0.86448  0.48500  1.0000
  C   C157      1.0  0.64728  0.15964  0.35730  1.0000
  C   C158      1.0  0.63171  0.07927  0.35992  1.0000
  C   C159      1.0  0.63204  0.10104  0.44207  1.0000
  C   C160      1.0  0.64020  0.14109  0.44092  1.0000
  N   N85       1.0  0.62441  0.08460  0.52731  1.0000
  N   N86       1.0  0.64050  0.16092  0.52520  1.0000
  O   O73       1.0  0.59684  0.07492  0.53260  1.0000
  O   O74       1.0  0.66641  0.17432  0.54405  1.0000
  O   O75       1.0  0.64100  0.05600  0.54691  1.0000
  O   O76       1.0  0.62106  0.18772  0.52871  1.0000
  C   C161      1.0  0.36814  0.85574  0.35740  1.0000
  C   C162      1.0  0.38364  0.93616  0.36018  1.0000
  C   C163      1.0  0.38333  0.91434  0.44225  1.0000
  C   C164      1.0  0.37520  0.87428  0.44104  1.0000
  N   N87       1.0  0.39094  0.93076  0.52752  1.0000
  N   N88       1.0  0.37490  0.85442  0.52530  1.0000
  O   O77       1.0  0.41850  0.94048  0.53284  1.0000
  O   O78       1.0  0.34900  0.84100  0.54410  1.0000
  O   O79       1.0  0.37433  0.95933  0.54717  1.0000
  O   O80       1.0  0.39437  0.82764  0.52878  1.0000
  C   C165      1.0  0.86802  0.63767  0.42453  1.0000
  C   C166      1.0  0.87577  0.59800  0.42429  1.0000
  H   H37       1.0  0.87728  0.58364  0.48488  1.0000
  H   H38       1.0  0.86342  0.65090  0.48515  1.0000
  C   C167      1.0  0.14732  0.37772  0.42445  1.0000
  C   C168      1.0  0.13958  0.41739  0.42420  1.0000
  H   H39       1.0  0.13803  0.43174  0.48480  1.0000
  H   H40       1.0  0.15189  0.36448  0.48508  1.0000
  C   C169      1.0  0.14729  0.65965  0.35721  1.0000
  C   C170      1.0  0.13171  0.57928  0.35983  1.0000
  C   C171      1.0  0.13206  0.60105  0.44197  1.0000
  C   C172      1.0  0.14021  0.64110  0.44083  1.0000
  N   N89       1.0  0.12443  0.58462  0.52723  1.0000
  N   N90       1.0  0.14052  0.66093  0.52511  1.0000
  O   O81       1.0  0.09686  0.57493  0.53255  1.0000
  O   O82       1.0  0.16642  0.67433  0.54395  1.0000
  O   O83       1.0  0.14102  0.55602  0.54683  1.0000
  O   O84       1.0  0.12107  0.68773  0.52862  1.0000
  C   C173      1.0  0.86813  0.35575  0.35729  1.0000
  C   C174      1.0  0.88367  0.43613  0.36001  1.0000
  C   C175      1.0  0.88335  0.41434  0.44213  1.0000
  C   C176      1.0  0.87521  0.37429  0.44093  1.0000
  N   N91       1.0  0.89097  0.43076  0.52740  1.0000
  N   N92       1.0  0.87492  0.35443  0.52518  1.0000
  O   O85       1.0  0.91854  0.44047  0.53271  1.0000
  O   O86       1.0  0.84902  0.34102  0.54402  1.0000
  O   O87       1.0  0.87437  0.45935  0.54703  1.0000
  O   O88       1.0  0.89437  0.32764  0.52866  1.0000
  C   C177      1.0  0.49173  0.00767  0.42480  1.0000
  C   C178      1.0  0.52365  0.00774  0.42475  1.0000
  H   H41       1.0  0.53496  0.00774  0.48545  1.0000
  H   H42       1.0  0.48044  0.00767  0.48553  1.0000
  C   C179      1.0  0.99174  0.50768  0.42484  1.0000
  C   C180      1.0  0.02366  0.50773  0.42482  1.0000
  H   H43       1.0  0.03497  0.50773  0.48553  1.0000
  H   H44       1.0  0.98044  0.50768  0.48557  1.0000
  C   C181      1.0  0.29040  0.25563  0.35776  1.0000
  C   C182      1.0  0.22501  0.25986  0.35772  1.0000
  C   C183      1.0  0.24147  0.25919  0.44102  1.0000
  C   C184      1.0  0.27393  0.25626  0.44104  1.0000
  N   N93       1.0  0.22682  0.26114  0.52660  1.0000
  N   N94       1.0  0.28858  0.25429  0.52661  1.0000
  O   O89       1.0  0.20868  0.23334  0.53879  1.0000
  O   O90       1.0  0.30235  0.22263  0.53848  1.0000
  O   O91       1.0  0.21305  0.29279  0.53850  1.0000
  O   O92       1.0  0.30672  0.28208  0.53886  1.0000
  C   C185      1.0  0.72502  0.75986  0.35771  1.0000
  C   C186      1.0  0.79042  0.75562  0.35780  1.0000
  C   C187      1.0  0.77393  0.75628  0.44106  1.0000
  C   C188      1.0  0.74148  0.75921  0.44102  1.0000
  N   N95       1.0  0.78858  0.75433  0.52664  1.0000
  N   N96       1.0  0.72682  0.76119  0.52658  1.0000
  O   O93       1.0  0.80672  0.78213  0.53886  1.0000
  O   O94       1.0  0.71305  0.79285  0.53843  1.0000
  O   O95       1.0  0.80234  0.72268  0.53857  1.0000
  O   O96       1.0  0.70868  0.73340  0.53882  1.0000
  C   C189      1.0  0.74169  0.25638  0.42142  1.0000
  C   C190      1.0  0.77375  0.25899  0.42141  1.0000
  H   H45       1.0  0.78488  0.26042  0.48227  1.0000
  H   H46       1.0  0.73057  0.25495  0.48230  1.0000
  C   C191      1.0  0.27375  0.75897  0.42142  1.0000
  C   C192      1.0  0.24170  0.75637  0.42141  1.0000
  H   H47       1.0  0.23057  0.75492  0.48228  1.0000
  H   H48       1.0  0.28488  0.76039  0.48229  1.0000
