data_image0
_chemical_formula_structural       CNC2H2CO2HCNC2H2CO2HCNC2H2CO2HC24H15C24H15C4HC3NHCO2HC4HC3NHCO2HC4HC3NHCO2H
_chemical_formula_sum              "C84 N6 H48 O12"
_cell_length_a       37.1978
_cell_length_b       37.1978
_cell_length_c       14.8611
_cell_angle_alpha    90
_cell_angle_beta     90
_cell_angle_gamma    120

_space_group_name_H-M_alt    "P 1"
_space_group_IT_number       1

loop_
  _space_group_symop_operation_xyz
  'x, y, z'

loop_
  _atom_site_type_symbol
  _atom_site_label
  _atom_site_symmetry_multiplicity
  _atom_site_fract_x
  _atom_site_fract_y
  _atom_site_fract_z
  _atom_site_occupancy
  C   C1        1.0  0.54203  0.45358  0.27044  1.0000
  N   N1        1.0  0.52039  0.47397  0.27422  1.0000
  C   C2        1.0  0.45115  0.49334  0.30504  1.0000
  C   C3        1.0  0.42997  0.51614  0.30611  1.0000
  H   H1        1.0  0.40048  0.50300  0.28058  1.0000
  H   H2        1.0  0.54430  0.44210  0.20963  1.0000
  C   C4        1.0  0.43115  0.45292  0.27223  1.0000
  O   O1        1.0  0.41879  0.44745  0.19449  1.0000
  O   O2        1.0  0.41248  0.42294  0.32327  1.0000
  H   H3        1.0  0.41675  0.42352  0.38202  1.0000
  C   C5        1.0  0.55810  0.09078  0.27043  1.0000
  N   N2        1.0  0.53772  0.04875  0.27420  1.0000
  C   C6        1.0  0.51834  0.96014  0.30509  1.0000
  C   C7        1.0  0.49555  0.91617  0.30617  1.0000
  H   H4        1.0  0.50870  0.89981  0.28068  1.0000
  H   H5        1.0  0.56960  0.10454  0.20963  1.0000
  C   C8        1.0  0.55878  0.98057  0.27235  1.0000
  O   O3        1.0  0.56428  0.97366  0.19465  1.0000
  O   O4        1.0  0.58874  0.99188  0.32345  1.0000
  H   H6        1.0  0.58814  0.99557  0.38220  1.0000
  C   C9        1.0  0.92091  0.46968  0.27045  1.0000
  N   N3        1.0  0.96293  0.49132  0.27422  1.0000
  C   C10       1.0  0.05154  0.56055  0.30512  1.0000
  C   C11       1.0  0.09552  0.58173  0.30619  1.0000
  H   H7        1.0  0.11188  0.61124  0.28071  1.0000
  H   H8        1.0  0.90715  0.46741  0.20964  1.0000
  C   C12       1.0  0.03112  0.58056  0.27238  1.0000
  O   O5        1.0  0.03802  0.59297  0.19468  1.0000
  O   O6        1.0  0.01981  0.59922  0.32349  1.0000
  H   H9        1.0  0.01611  0.59492  0.38224  1.0000
  C   C13       1.0  0.29570  0.64949  0.34344  1.0000
  C   C14       1.0  0.31821  0.62800  0.34345  1.0000
  C   C15       1.0  0.36219  0.64854  0.34345  1.0000
  C   C16       1.0  0.38367  0.69254  0.34346  1.0000
  C   C17       1.0  0.36314  0.71598  0.34345  1.0000
  C   C18       1.0  0.31914  0.69347  0.34345  1.0000
  C   C19       1.0  0.38411  0.62566  0.34318  1.0000
  C   C20       1.0  0.36863  0.58742  0.38976  1.0000
  C   C21       1.0  0.38956  0.56465  0.38821  1.0000
  C   C22       1.0  0.42756  0.57981  0.34184  1.0000
  C   C23       1.0  0.44372  0.61812  0.29636  1.0000
  C   C24       1.0  0.42213  0.64024  0.29614  1.0000
  C   C25       1.0  0.25089  0.62757  0.34318  1.0000
  C   C26       1.0  0.22747  0.58957  0.29611  1.0000
  C   C27       1.0  0.18375  0.56796  0.29636  1.0000
  C   C28       1.0  0.16159  0.58412  0.34185  1.0000
  C   C29       1.0  0.18444  0.62211  0.38825  1.0000
  C   C30       1.0  0.22814  0.64304  0.38980  1.0000
  C   C31       1.0  0.38603  0.76079  0.34316  1.0000
  C   C32       1.0  0.37145  0.78421  0.29605  1.0000
  C   C33       1.0  0.39356  0.82793  0.29632  1.0000
  C   C34       1.0  0.43187  0.85009  0.34182  1.0000
  C   C35       1.0  0.44702  0.82724  0.38821  1.0000
  C   C36       1.0  0.42425  0.78355  0.38977  1.0000
  H   H10       1.0  0.16820  0.54085  0.26079  1.0000
  H   H11       1.0  0.24199  0.57738  0.25910  1.0000
  H   H12       1.0  0.16938  0.63441  0.42312  1.0000
  H   H13       1.0  0.24313  0.66964  0.42704  1.0000
  H   H14       1.0  0.34473  0.76969  0.25910  1.0000
  H   H15       1.0  0.38200  0.84348  0.26077  1.0000
  H   H16       1.0  0.43585  0.76856  0.42707  1.0000
  H   H17       1.0  0.47436  0.84230  0.42313  1.0000
  H   H18       1.0  0.43433  0.66697  0.25919  1.0000
  H   H19       1.0  0.47086  0.62970  0.26087  1.0000
  H   H20       1.0  0.37726  0.53729  0.42305  1.0000
  H   H21       1.0  0.34202  0.57579  0.42698  1.0000
  H   H22       1.0  0.30203  0.59631  0.34336  1.0000
  H   H23       1.0  0.30363  0.70965  0.34336  1.0000
  H   H24       1.0  0.41537  0.70805  0.34339  1.0000
  C   C37       1.0  0.71819  0.36027  0.34332  1.0000
  C   C38       1.0  0.69538  0.38142  0.34330  1.0000
  C   C39       1.0  0.65142  0.36026  0.34332  1.0000
  C   C40       1.0  0.63026  0.31629  0.34329  1.0000
  C   C41       1.0  0.65142  0.29349  0.34331  1.0000
  C   C42       1.0  0.69539  0.31630  0.34328  1.0000
  C   C43       1.0  0.62909  0.38256  0.34397  1.0000
  C   C44       1.0  0.64246  0.41866  0.39708  1.0000
  C   C45       1.0  0.62056  0.44047  0.39794  1.0000
  C   C46       1.0  0.58406  0.42713  0.34622  1.0000
  C   C47       1.0  0.57070  0.39101  0.29311  1.0000
  C   C48       1.0  0.59271  0.36932  0.29186  1.0000
  C   C49       1.0  0.76282  0.38259  0.34396  1.0000
  C   C50       1.0  0.78595  0.41897  0.29187  1.0000
  C   C51       1.0  0.82966  0.44098  0.29309  1.0000
  C   C52       1.0  0.85242  0.42763  0.34620  1.0000
  C   C53       1.0  0.82925  0.39111  0.39790  1.0000
  C   C54       1.0  0.78556  0.36922  0.39704  1.0000
  C   C55       1.0  0.62912  0.24886  0.34396  1.0000
  C   C56       1.0  0.64237  0.22573  0.29186  1.0000
  C   C57       1.0  0.62067  0.18202  0.29311  1.0000
  C   C58       1.0  0.58455  0.15926  0.34621  1.0000
  C   C59       1.0  0.57121  0.18243  0.39793  1.0000
  C   C60       1.0  0.59301  0.22613  0.39704  1.0000
  H   H25       1.0  0.84470  0.46751  0.25557  1.0000
  H   H26       1.0  0.77116  0.42969  0.25121  1.0000
  H   H27       1.0  0.84399  0.37959  0.43635  1.0000
  H   H28       1.0  0.77048  0.34355  0.43714  1.0000
  H   H29       1.0  0.66787  0.24052  0.25119  1.0000
  H   H30       1.0  0.63215  0.16698  0.25553  1.0000
  H   H31       1.0  0.58242  0.24120  0.43716  1.0000
  H   H32       1.0  0.54495  0.16769  0.43636  1.0000
  H   H33       1.0  0.58200  0.34382  0.25118  1.0000
  H   H34       1.0  0.54418  0.37954  0.25553  1.0000
  H   H35       1.0  0.63209  0.46673  0.43639  1.0000
  H   H36       1.0  0.66812  0.42925  0.43719  1.0000
  H   H37       1.0  0.71125  0.41316  0.34347  1.0000
  H   H38       1.0  0.71125  0.30043  0.34345  1.0000
  H   H39       1.0  0.59852  0.30042  0.34345  1.0000
  C   C61       1.0  0.56144  0.44913  0.34811  1.0000
  C   C62       1.0  0.51554  0.49160  0.34997  1.0000
  C   C63       1.0  0.53475  0.48897  0.43049  1.0000
  C   C64       1.0  0.55702  0.46725  0.42816  1.0000
  H   H40       1.0  0.56926  0.46361  0.48687  1.0000
  C   C65       1.0  0.49159  0.51177  0.34328  1.0000
  C   C66       1.0  0.44887  0.55695  0.34070  1.0000
  C   C67       1.0  0.48951  0.57402  0.37503  1.0000
  N   N4        1.0  0.50865  0.55113  0.37592  1.0000
  H   H41       1.0  0.50463  0.60321  0.40187  1.0000
  C   C68       1.0  0.52989  0.50451  0.51135  1.0000
  O   O7        1.0  0.56095  0.52780  0.55488  1.0000
  O   O8        1.0  0.49622  0.48414  0.55020  1.0000
  H   H42       1.0  0.49084  0.48993  0.60463  1.0000
  C   C69       1.0  0.56254  0.11464  0.34810  1.0000
  C   C70       1.0  0.52008  0.02628  0.34994  1.0000
  C   C71       1.0  0.52269  0.04810  0.43046  1.0000
  C   C72       1.0  0.54441  0.09209  0.42814  1.0000
  H   H43       1.0  0.54805  0.10798  0.48685  1.0000
  C   C73       1.0  0.49990  0.98215  0.34326  1.0000
  C   C74       1.0  0.45472  0.89424  0.34069  1.0000
  C   C75       1.0  0.43765  0.91783  0.37494  1.0000
  N   N5        1.0  0.46053  0.95986  0.37583  1.0000
  H   H44       1.0  0.40844  0.90375  0.40172  1.0000
  C   C76       1.0  0.50713  0.02771  0.51131  1.0000
  O   O9        1.0  0.48385  0.03548  0.55482  1.0000
  O   O10       1.0  0.52749  0.01439  0.55017  1.0000
  H   H45       1.0  0.52169  0.00322  0.60460  1.0000
  C   C77       1.0  0.89704  0.45024  0.34810  1.0000
  C   C78       1.0  0.98540  0.49615  0.34997  1.0000
  C   C79       1.0  0.96357  0.47692  0.43048  1.0000
  C   C80       1.0  0.91959  0.45466  0.42815  1.0000
  H   H46       1.0  0.90369  0.44240  0.48685  1.0000
  C   C81       1.0  0.02953  0.52010  0.34329  1.0000
  C   C82       1.0  0.11744  0.56282  0.34070  1.0000
  C   C83       1.0  0.09385  0.52216  0.37496  1.0000
  N   N6        1.0  0.05182  0.50302  0.37586  1.0000
  H   H47       1.0  0.10792  0.50703  0.40175  1.0000
  C   C84       1.0  0.98397  0.48177  0.51133  1.0000
  O   O11       1.0  0.97620  0.45070  0.55483  1.0000
  O   O12       1.0  0.99727  0.51542  0.55021  1.0000
  H   H48       1.0  0.00844  0.52080  0.60465  1.0000
