data_image0
_chemical_formula_structural       H2CNHNC7HC8H8C8H8C8H8C8H8C8H8C8H8CN2H2NCN2H2NCN2H2NCN2H2NCN2H2NCN2H2N3CN2HNCN2HNCNHNCN2HNCN2HNC3NC3NC5NC5NC20H18C4H4C3NC3NC5NC5NC20H18C4H4C3NC3NC5NC5NC20H18C4H4C3NC3NC5NC5NC20H18C4H4C3NC3NC5NC5NC20H18C4H4C3NC3NC5NC5NC20H18C4H4C7H2NC7H2NC7H2NC7H2NC7H2NC7H2NC4H2NC7H3NC7H3NC3HNC7H3NC7H3N
_chemical_formula_sum              "H228 C384 N72"
_cell_length_a       69.165
_cell_length_b       69.1649
_cell_length_c       14.8009
_cell_angle_alpha    90.0008
_cell_angle_beta     89.9852
_cell_angle_gamma    120

_space_group_name_H-M_alt    "P 1"
_space_group_IT_number       1

loop_
  _space_group_symop_operation_xyz
  'x, y, z'

loop_
  _atom_site_type_symbol
  _atom_site_label
  _atom_site_symmetry_multiplicity
  _atom_site_fract_x
  _atom_site_fract_y
  _atom_site_fract_z
  _atom_site_occupancy
  H   H1        1.0  0.01031  0.29719  0.53981  1.0000
  H   H2        1.0  0.01135  0.72612  0.52901  1.0000
  C   C1        1.0  0.02702  0.31222  0.37143  1.0000
  N   N1        1.0  0.03977  0.32249  0.29768  1.0000
  H   H3        1.0  0.03024  0.29681  0.00442  1.0000
  N   N2        1.0  0.04021  0.72208  0.29641  1.0000
  C   C2        1.0  0.03852  0.31265  0.45192  1.0000
  C   C3        1.0  0.02714  0.30364  0.53449  1.0000
  C   C4        1.0  0.03870  0.30351  0.61227  1.0000
  C   C5        1.0  0.02769  0.72101  0.36903  1.0000
  C   C6        1.0  0.03942  0.73148  0.44992  1.0000
  C   C7        1.0  0.03992  0.74184  0.60906  1.0000
  C   C8        1.0  0.02820  0.73231  0.52874  1.0000
  H   H4        1.0  0.03155  0.74214  0.66551  1.0000
  C   C9        1.0  0.29462  0.38849  0.28656  1.0000
  C   C10       1.0  0.30292  0.37355  0.29285  1.0000
  C   C11       1.0  0.35409  0.52295  0.28519  1.0000
  C   C12       1.0  0.37633  0.54062  0.29114  1.0000
  C   C13       1.0  0.24131  0.54248  0.30481  1.0000
  C   C14       1.0  0.24199  0.52255  0.29452  1.0000
  C   C15       1.0  0.16846  0.38593  0.29527  1.0000
  C   C16       1.0  0.14494  0.37360  0.30482  1.0000
  H   H5        1.0  0.13530  0.36856  0.24779  1.0000
  H   H6        1.0  0.17517  0.38956  0.23171  1.0000
  H   H7        1.0  0.24241  0.51702  0.23082  1.0000
  H   H8        1.0  0.24114  0.55086  0.24813  1.0000
  H   H9        1.0  0.34569  0.52034  0.22548  1.0000
  H   H10       1.0  0.38367  0.55022  0.23519  1.0000
  H   H11       1.0  0.31048  0.37132  0.23759  1.0000
  H   H12       1.0  0.29689  0.39708  0.22757  1.0000
  C   C17       1.0  0.68953  0.90943  0.28664  1.0000
  C   C18       1.0  0.70450  0.93266  0.29272  1.0000
  C   C19       1.0  0.55507  0.83447  0.28525  1.0000
  C   C20       1.0  0.53741  0.83905  0.29115  1.0000
  C   C21       1.0  0.53559  0.70216  0.30511  1.0000
  C   C22       1.0  0.55551  0.72278  0.29487  1.0000
  C   C23       1.0  0.69206  0.78582  0.29544  1.0000
  C   C24       1.0  0.70438  0.77463  0.30496  1.0000
  H   H13       1.0  0.70944  0.77005  0.24792  1.0000
  H   H14       1.0  0.68845  0.78892  0.23189  1.0000
  H   H15       1.0  0.56105  0.72874  0.23119  1.0000
  H   H16       1.0  0.52720  0.69363  0.24840  1.0000
  H   H17       1.0  0.55769  0.82867  0.22555  1.0000
  H   H18       1.0  0.52782  0.83679  0.23517  1.0000
  H   H19       1.0  0.70676  0.94243  0.23734  1.0000
  H   H20       1.0  0.68093  0.90308  0.22769  1.0000
  C   C25       1.0  0.16857  0.78342  0.28646  1.0000
  C   C26       1.0  0.14533  0.77513  0.29274  1.0000
  C   C27       1.0  0.24358  0.72396  0.28508  1.0000
  C   C28       1.0  0.23902  0.70173  0.29099  1.0000
  C   C29       1.0  0.37587  0.83675  0.30485  1.0000
  C   C30       1.0  0.35525  0.83604  0.29457  1.0000
  C   C31       1.0  0.29218  0.90958  0.29506  1.0000
  C   C32       1.0  0.30339  0.93309  0.30464  1.0000
  H   H21       1.0  0.30798  0.94274  0.24763  1.0000
  H   H22       1.0  0.28914  0.90288  0.23151  1.0000
  H   H23       1.0  0.34930  0.83560  0.23086  1.0000
  H   H24       1.0  0.38439  0.83685  0.24816  1.0000
  H   H25       1.0  0.24939  0.73238  0.22538  1.0000
  H   H26       1.0  0.24128  0.69439  0.23501  1.0000
  H   H27       1.0  0.13554  0.76757  0.23749  1.0000
  H   H28       1.0  0.17490  0.78116  0.22747  1.0000
  C   C33       1.0  0.80718  0.66575  0.28675  1.0000
  C   C34       1.0  0.79889  0.68069  0.29304  1.0000
  C   C35       1.0  0.74773  0.53128  0.28552  1.0000
  C   C36       1.0  0.72550  0.51360  0.29152  1.0000
  C   C37       1.0  0.86050  0.51179  0.30512  1.0000
  C   C38       1.0  0.85986  0.53173  0.29488  1.0000
  C   C39       1.0  0.93335  0.66830  0.29527  1.0000
  C   C40       1.0  0.95686  0.68063  0.30476  1.0000
  H   H29       1.0  0.96651  0.68565  0.24771  1.0000
  H   H30       1.0  0.92664  0.66463  0.23173  1.0000
  H   H31       1.0  0.85937  0.53723  0.23119  1.0000
  H   H32       1.0  0.86063  0.50338  0.24842  1.0000
  H   H33       1.0  0.75615  0.53387  0.22582  1.0000
  H   H34       1.0  0.71817  0.50399  0.23559  1.0000
  H   H35       1.0  0.79132  0.68292  0.23781  1.0000
  H   H36       1.0  0.80491  0.65714  0.22780  1.0000
  C   C41       1.0  0.41228  0.14479  0.28676  1.0000
  C   C42       1.0  0.39734  0.12154  0.29301  1.0000
  C   C43       1.0  0.54673  0.21977  0.28559  1.0000
  C   C44       1.0  0.56440  0.21520  0.29154  1.0000
  C   C45       1.0  0.56627  0.35207  0.30526  1.0000
  C   C46       1.0  0.54634  0.33146  0.29496  1.0000
  C   C47       1.0  0.40972  0.26838  0.29552  1.0000
  C   C48       1.0  0.39739  0.27957  0.30503  1.0000
  H   H37       1.0  0.39235  0.28417  0.24800  1.0000
  H   H38       1.0  0.41335  0.26530  0.23197  1.0000
  H   H39       1.0  0.54081  0.32552  0.23126  1.0000
  H   H40       1.0  0.57465  0.36063  0.24859  1.0000
  H   H41       1.0  0.54414  0.22558  0.22589  1.0000
  H   H42       1.0  0.57401  0.21747  0.23560  1.0000
  H   H43       1.0  0.39511  0.11176  0.23774  1.0000
  H   H44       1.0  0.42088  0.15112  0.22778  1.0000
  C   C49       1.0  0.93324  0.27084  0.28663  1.0000
  C   C50       1.0  0.95649  0.27914  0.29286  1.0000
  C   C51       1.0  0.85826  0.33031  0.28528  1.0000
  C   C52       1.0  0.86283  0.35255  0.29120  1.0000
  C   C53       1.0  0.72593  0.21747  0.30522  1.0000
  C   C54       1.0  0.74655  0.21817  0.29492  1.0000
  C   C55       1.0  0.80952  0.14463  0.29558  1.0000
  C   C56       1.0  0.79829  0.12112  0.30530  1.0000
  H   H45       1.0  0.79366  0.11145  0.24834  1.0000
  H   H46       1.0  0.81260  0.15131  0.23197  1.0000
  H   H47       1.0  0.75251  0.21861  0.23121  1.0000
  H   H48       1.0  0.71740  0.21734  0.24853  1.0000
  H   H49       1.0  0.85246  0.32190  0.22557  1.0000
  H   H50       1.0  0.86057  0.35989  0.23523  1.0000
  H   H51       1.0  0.96627  0.28669  0.23757  1.0000
  H   H52       1.0  0.92691  0.27310  0.22765  1.0000
  C   C57       1.0  0.23374  0.59874  0.37084  1.0000
  N   N3        1.0  0.23961  0.61228  0.29748  1.0000
  N   N4        1.0  0.24126  0.63195  0.29854  1.0000
  H   H53       1.0  0.21331  0.59184  0.00282  1.0000
  H   H54       1.0  0.21903  0.62936  0.00769  1.0000
  N   N5        1.0  0.23322  0.57933  0.36030  1.0000
  C   C58       1.0  0.47930  0.63833  0.37100  1.0000
  N   N6        1.0  0.46577  0.63067  0.29766  1.0000
  N   N7        1.0  0.44609  0.61265  0.29874  1.0000
  H   H55       1.0  0.48622  0.62480  0.00298  1.0000
  H   H56       1.0  0.44870  0.59302  0.00788  1.0000
  N   N8        1.0  0.49871  0.65722  0.36048  1.0000
  C   C59       1.0  0.43969  0.84430  0.37094  1.0000
  N   N9        1.0  0.44737  0.83845  0.29757  1.0000
  N   N10       1.0  0.46540  0.83680  0.29864  1.0000
  H   H57       1.0  0.45318  0.86466  0.00302  1.0000
  H   H58       1.0  0.48496  0.85893  0.00789  1.0000
  N   N11       1.0  0.42081  0.84482  0.36040  1.0000
  C   C60       1.0  0.86806  0.45551  0.37112  1.0000
  N   N12       1.0  0.86222  0.44199  0.29772  1.0000
  N   N13       1.0  0.86057  0.42232  0.29877  1.0000
  H   H59       1.0  0.88843  0.46237  0.00318  1.0000
  H   H60       1.0  0.88271  0.42486  0.00801  1.0000
  N   N14       1.0  0.86859  0.47492  0.36059  1.0000
  C   C61       1.0  0.62253  0.41590  0.37134  1.0000
  N   N15       1.0  0.63607  0.42357  0.29799  1.0000
  N   N16       1.0  0.65574  0.44159  0.29908  1.0000
  H   H61       1.0  0.61562  0.42941  0.00334  1.0000
  H   H62       1.0  0.65313  0.46119  0.00826  1.0000
  N   N17       1.0  0.60312  0.39701  0.36079  1.0000
  C   C62       1.0  0.66211  0.20993  0.37125  1.0000
  N   N18       1.0  0.65444  0.21581  0.29792  1.0000
  N   N19       1.0  0.63642  0.21745  0.29902  1.0000
  H   H63       1.0  0.64862  0.18952  0.00327  1.0000
  H   H64       1.0  0.61684  0.19525  0.00822  1.0000
  N   N20       1.0  0.68100  0.20942  0.36070  1.0000
  N   N21       1.0  0.06162  0.33221  0.29649  1.0000
  N   N22       1.0  0.00482  0.30345  0.36245  1.0000
  C   C63       1.0  0.76580  0.71814  0.37163  1.0000
  N   N23       1.0  0.75555  0.72062  0.29787  1.0000
  N   N24       1.0  0.74582  0.73274  0.29668  1.0000
  H   H65       1.0  0.78117  0.73673  0.00467  1.0000
  N   N25       1.0  0.77459  0.70472  0.36263  1.0000
  C   C64       1.0  0.35988  0.05101  0.37149  1.0000
  N   N26       1.0  0.35739  0.03827  0.29770  1.0000
  N   N27       1.0  0.34526  0.01643  0.29649  1.0000
  H   H66       1.0  0.34134  0.04777  0.00459  1.0000
  N   N28       1.0  0.37330  0.07321  0.36250  1.0000
  C   C65       1.0  0.07479  0.74204  0.37135  1.0000
  N   N29       1.0  0.06205  0.73180  0.29758  1.0000
  H   H67       1.0  0.07159  0.75736  0.00446  1.0000
  N   N30       1.0  0.09699  0.75081  0.36235  1.0000
  C   C66       1.0  0.33600  0.33610  0.37152  1.0000
  N   N31       1.0  0.34627  0.33362  0.29778  1.0000
  N   N32       1.0  0.35599  0.32150  0.29662  1.0000
  H   H68       1.0  0.32061  0.31752  0.00455  1.0000
  N   N33       1.0  0.32722  0.34953  0.36249  1.0000
  C   C67       1.0  0.74200  0.00322  0.37243  1.0000
  N   N34       1.0  0.74390  0.01594  0.29932  1.0000
  N   N35       1.0  0.75592  0.03779  0.29791  1.0000
  H   H69       1.0  0.76286  0.00656  0.00255  1.0000
  N   N36       1.0  0.72854  0.98101  0.36375  1.0000
  C   C68       1.0  0.21703  0.38155  0.36165  1.0000
  C   C69       1.0  0.23684  0.38111  0.35987  1.0000
  C   C70       1.0  0.25468  0.40306  0.35925  1.0000
  N   N37       1.0  0.24482  0.41589  0.35948  1.0000
  C   C71       1.0  0.22209  0.40379  0.36121  1.0000
  C   C72       1.0  0.20594  0.41094  0.36260  1.0000
  C   C73       1.0  0.21147  0.43375  0.36134  1.0000
  N   N38       1.0  0.23196  0.45224  0.35895  1.0000
  C   C74       1.0  0.23091  0.47128  0.36037  1.0000
  C   C75       1.0  0.20827  0.46462  0.36330  1.0000
  C   C76       1.0  0.19633  0.44157  0.36362  1.0000
  C   C77       1.0  0.24883  0.49368  0.36089  1.0000
  C   C78       1.0  0.27184  0.50001  0.35916  1.0000
  N   N39       1.0  0.28155  0.48717  0.35403  1.0000
  C   C79       1.0  0.30416  0.49939  0.35724  1.0000
  C   C80       1.0  0.30925  0.52162  0.36344  1.0000
  C   C81       1.0  0.28953  0.52200  0.36419  1.0000
  C   C82       1.0  0.32025  0.49228  0.35695  1.0000
  C   C83       1.0  0.31485  0.46955  0.35700  1.0000
  N   N40       1.0  0.29442  0.45091  0.35606  1.0000
  C   C84       1.0  0.29562  0.43195  0.35786  1.0000
  C   C85       1.0  0.31842  0.43904  0.36090  1.0000
  C   C86       1.0  0.33021  0.46207  0.35913  1.0000
  C   C87       1.0  0.27781  0.40935  0.35827  1.0000
  C   C88       1.0  0.28394  0.39224  0.36078  1.0000
  C   C89       1.0  0.30060  0.36156  0.37340  1.0000
  C   C90       1.0  0.28958  0.36502  0.44706  1.0000
  C   C91       1.0  0.28172  0.38030  0.44136  1.0000
  C   C92       1.0  0.34332  0.50922  0.36084  1.0000
  C   C93       1.0  0.38842  0.54484  0.37271  1.0000
  C   C94       1.0  0.37771  0.53099  0.44809  1.0000
  C   C95       1.0  0.35537  0.51361  0.44259  1.0000
  C   C96       1.0  0.24369  0.51118  0.37079  1.0000
  C   C97       1.0  0.24421  0.51991  0.45763  1.0000
  C   C98       1.0  0.24381  0.53994  0.46774  1.0000
  C   C99       1.0  0.24266  0.55169  0.39154  1.0000
  C   C100      1.0  0.18260  0.39462  0.37157  1.0000
  C   C101      1.0  0.17245  0.39026  0.45774  1.0000
  C   C102      1.0  0.13472  0.36988  0.39092  1.0000
  C   C103      1.0  0.14902  0.37819  0.46709  1.0000
  H   H70       1.0  0.14244  0.37634  0.53062  1.0000
  H   H71       1.0  0.18203  0.39702  0.51424  1.0000
  H   H72       1.0  0.20150  0.36768  0.36247  1.0000
  H   H73       1.0  0.23778  0.36683  0.35927  1.0000
  H   H74       1.0  0.25308  0.43191  0.35957  1.0000
  H   H75       1.0  0.27331  0.47119  0.34888  1.0000
  H   H76       1.0  0.17931  0.43229  0.36602  1.0000
  H   H77       1.0  0.20135  0.47466  0.36540  1.0000
  H   H78       1.0  0.24634  0.51254  0.51379  1.0000
  H   H79       1.0  0.24526  0.54631  0.53144  1.0000
  H   H80       1.0  0.28863  0.53626  0.36956  1.0000
  H   H81       1.0  0.32466  0.53553  0.36913  1.0000
  H   H82       1.0  0.32568  0.42934  0.36467  1.0000
  H   H83       1.0  0.34722  0.47154  0.36112  1.0000
  H   H84       1.0  0.34793  0.50417  0.49883  1.0000
  H   H85       1.0  0.38601  0.53361  0.50816  1.0000
  H   H86       1.0  0.27450  0.38281  0.49712  1.0000
  H   H87       1.0  0.28748  0.35665  0.50657  1.0000
  C   C104      1.0  0.41057  0.56143  0.37898  1.0000
  C   C105      1.0  0.24498  0.57266  0.40343  1.0000
  C   C106      1.0  0.11164  0.36046  0.40297  1.0000
  C   C107      1.0  0.30728  0.34559  0.37995  1.0000
  H   H88       1.0  0.42158  0.55721  0.40106  1.0000
  H   H89       1.0  0.25574  0.58259  0.45030  1.0000
  H   H90       1.0  0.10666  0.36667  0.45277  1.0000
  H   H91       1.0  0.29617  0.33066  0.40420  1.0000
  C   C108      1.0  0.69647  0.83883  0.36170  1.0000
  C   C109      1.0  0.69691  0.85908  0.35987  1.0000
  C   C110      1.0  0.67495  0.85496  0.35946  1.0000
  N   N41       1.0  0.66213  0.83227  0.35973  1.0000
  C   C111      1.0  0.67423  0.82164  0.36137  1.0000
  C   C112      1.0  0.66709  0.79834  0.36279  1.0000
  C   C113      1.0  0.64427  0.78106  0.36156  1.0000
  N   N42       1.0  0.62578  0.78306  0.35918  1.0000
  C   C114      1.0  0.60675  0.76298  0.36069  1.0000
  C   C115      1.0  0.61340  0.74699  0.36371  1.0000
  C   C116      1.0  0.63645  0.75810  0.36400  1.0000
  C   C117      1.0  0.58434  0.75849  0.36127  1.0000
  C   C118      1.0  0.57801  0.77517  0.35932  1.0000
  N   N43       1.0  0.59085  0.79771  0.35414  1.0000
  C   C119      1.0  0.57863  0.80811  0.35734  1.0000
  C   C120      1.0  0.55640  0.79097  0.36359  1.0000
  C   C121      1.0  0.55601  0.77086  0.36413  1.0000
  C   C122      1.0  0.58573  0.83131  0.35703  1.0000
  C   C123      1.0  0.60846  0.84863  0.35724  1.0000
  N   N44       1.0  0.62710  0.84684  0.35637  1.0000
  C   C124      1.0  0.64606  0.86700  0.35822  1.0000
  C   C125      1.0  0.63898  0.88272  0.36119  1.0000
  C   C126      1.0  0.61595  0.87148  0.35940  1.0000
  C   C127      1.0  0.66866  0.87179  0.35858  1.0000
  C   C128      1.0  0.68577  0.89504  0.36101  1.0000
  C   C129      1.0  0.71651  0.94236  0.37320  1.0000
  C   C130      1.0  0.71305  0.92793  0.44698  1.0000
  C   C131      1.0  0.69775  0.90479  0.44148  1.0000
  C   C132      1.0  0.56880  0.83744  0.36091  1.0000
  C   C133      1.0  0.53319  0.84694  0.37267  1.0000
  C   C134      1.0  0.54702  0.85008  0.44808  1.0000
  C   C135      1.0  0.56440  0.84511  0.44264  1.0000
  C   C136      1.0  0.56684  0.73585  0.37119  1.0000
  C   C137      1.0  0.55808  0.72764  0.45800  1.0000
  C   C138      1.0  0.53806  0.70721  0.46804  1.0000
  C   C139      1.0  0.52633  0.69431  0.39181  1.0000
  C   C140      1.0  0.68340  0.79133  0.37173  1.0000
  C   C141      1.0  0.68777  0.78553  0.45788  1.0000
  C   C142      1.0  0.70813  0.76816  0.39106  1.0000
  C   C143      1.0  0.69982  0.77416  0.46723  1.0000
  H   H92       1.0  0.70169  0.76946  0.53078  1.0000
  H   H93       1.0  0.68102  0.78838  0.51441  1.0000
  H   H94       1.0  0.71034  0.83717  0.36230  1.0000
  H   H95       1.0  0.71118  0.87429  0.35919  1.0000
  H   H96       1.0  0.64611  0.82451  0.36017  1.0000
  H   H97       1.0  0.60683  0.80545  0.34905  1.0000
  H   H98       1.0  0.64574  0.75036  0.36641  1.0000
  H   H99       1.0  0.60337  0.73004  0.36589  1.0000
  H   H100      1.0  0.56547  0.73713  0.51418  1.0000
  H   H101      1.0  0.53168  0.70227  0.53173  1.0000
  H   H102      1.0  0.54177  0.75571  0.36991  1.0000
  H   H103      1.0  0.54248  0.79246  0.36925  1.0000
  H   H104      1.0  0.64867  0.89968  0.36471  1.0000
  H   H105      1.0  0.60647  0.87901  0.36102  1.0000
  H   H106      1.0  0.57382  0.84710  0.49889  1.0000
  H   H107      1.0  0.54439  0.85576  0.50814  1.0000
  H   H108      1.0  0.69524  0.89508  0.49731  1.0000
  H   H109      1.0  0.72147  0.93422  0.50637  1.0000
  C   C144      1.0  0.51660  0.85252  0.37884  1.0000
  C   C145      1.0  0.50536  0.67566  0.40362  1.0000
  C   C146      1.0  0.71755  0.75451  0.40314  1.0000
  C   C147      1.0  0.73256  0.96498  0.37929  1.0000
  H   H110      1.0  0.52081  0.86771  0.40124  1.0000
  H   H111      1.0  0.49541  0.67648  0.45045  1.0000
  H   H112      1.0  0.71133  0.74331  0.45292  1.0000
  H   H113      1.0  0.74764  0.96875  0.40156  1.0000
  C   C148      1.0  0.23919  0.86099  0.36142  1.0000
  C   C149      1.0  0.21895  0.84118  0.35965  1.0000
  C   C150      1.0  0.22307  0.82334  0.35910  1.0000
  N   N45       1.0  0.24575  0.83321  0.35932  1.0000
  C   C151      1.0  0.25638  0.85594  0.36101  1.0000
  C   C152      1.0  0.27968  0.87209  0.36236  1.0000
  C   C153      1.0  0.29696  0.86656  0.36116  1.0000
  N   N46       1.0  0.29496  0.84607  0.35879  1.0000
  C   C154      1.0  0.31505  0.84712  0.36024  1.0000
  C   C155      1.0  0.33104  0.86977  0.36327  1.0000
  C   C156      1.0  0.31993  0.88171  0.36357  1.0000
  C   C157      1.0  0.31954  0.82920  0.36085  1.0000
  C   C158      1.0  0.30286  0.80619  0.35906  1.0000
  N   N47       1.0  0.28031  0.79649  0.35392  1.0000
  C   C159      1.0  0.26992  0.77387  0.35719  1.0000
  C   C160      1.0  0.28705  0.76878  0.36353  1.0000
  C   C161      1.0  0.30716  0.78850  0.36409  1.0000
  C   C162      1.0  0.24672  0.75778  0.35685  1.0000
  C   C163      1.0  0.22939  0.76318  0.35698  1.0000
  N   N48       1.0  0.23119  0.78361  0.35607  1.0000
  C   C164      1.0  0.21103  0.78241  0.35786  1.0000
  C   C165      1.0  0.19531  0.75961  0.36081  1.0000
  C   C166      1.0  0.20655  0.74782  0.35907  1.0000
  C   C167      1.0  0.20623  0.80022  0.35817  1.0000
  C   C168      1.0  0.18299  0.79408  0.36071  1.0000
  C   C169      1.0  0.13565  0.77744  0.37331  1.0000
  C   C170      1.0  0.15012  0.78844  0.44698  1.0000
  C   C171      1.0  0.17326  0.79631  0.44127  1.0000
  C   C172      1.0  0.24059  0.73471  0.36073  1.0000
  C   C173      1.0  0.23110  0.68961  0.37249  1.0000
  C   C174      1.0  0.22793  0.70029  0.44788  1.0000
  C   C175      1.0  0.23290  0.72264  0.44243  1.0000
  C   C176      1.0  0.34218  0.83435  0.37083  1.0000
  C   C177      1.0  0.35038  0.83381  0.45765  1.0000
  C   C178      1.0  0.37083  0.83426  0.46779  1.0000
  C   C179      1.0  0.38372  0.83538  0.39158  1.0000
  C   C180      1.0  0.28670  0.89543  0.37135  1.0000
  C   C181      1.0  0.29245  0.90556  0.45755  1.0000
  C   C182      1.0  0.30981  0.94330  0.39077  1.0000
  C   C183      1.0  0.30381  0.92899  0.46692  1.0000
  H   H114      1.0  0.30847  0.93555  0.53048  1.0000
  H   H115      1.0  0.28960  0.89597  0.51406  1.0000
  H   H116      1.0  0.24086  0.87652  0.36220  1.0000
  H   H117      1.0  0.20373  0.84024  0.35906  1.0000
  H   H118      1.0  0.25351  0.82494  0.35950  1.0000
  H   H119      1.0  0.27258  0.80472  0.34867  1.0000
  H   H120      1.0  0.32766  0.89873  0.36597  1.0000
  H   H121      1.0  0.34799  0.87669  0.36544  1.0000
  H   H122      1.0  0.34090  0.83175  0.51383  1.0000
  H   H123      1.0  0.37574  0.83280  0.53149  1.0000
  H   H124      1.0  0.32232  0.78941  0.36971  1.0000
  H   H125      1.0  0.28556  0.75337  0.36921  1.0000
  H   H126      1.0  0.17834  0.75233  0.36426  1.0000
  H   H127      1.0  0.19902  0.73081  0.36069  1.0000
  H   H128      1.0  0.23088  0.73006  0.49866  1.0000
  H   H129      1.0  0.22223  0.69198  0.50791  1.0000
  H   H130      1.0  0.18298  0.80352  0.49704  1.0000
  H   H131      1.0  0.14384  0.79055  0.50647  1.0000
  C   C184      1.0  0.22553  0.66744  0.37865  1.0000
  C   C185      1.0  0.40235  0.83304  0.40343  1.0000
  C   C186      1.0  0.32348  0.96638  0.40288  1.0000
  C   C187      1.0  0.11301  0.77075  0.37988  1.0000
  H   H132      1.0  0.21032  0.65644  0.40090  1.0000
  H   H133      1.0  0.40152  0.82227  0.45029  1.0000
  H   H134      1.0  0.33468  0.97134  0.45263  1.0000
  H   H135      1.0  0.10917  0.78185  0.40407  1.0000
  C   C188      1.0  0.88477  0.67271  0.36168  1.0000
  C   C189      1.0  0.86496  0.67314  0.35988  1.0000
  C   C190      1.0  0.84712  0.65119  0.35940  1.0000
  N   N49       1.0  0.85699  0.63836  0.35970  1.0000
  C   C191      1.0  0.87972  0.65047  0.36134  1.0000
  C   C192      1.0  0.89587  0.64332  0.36275  1.0000
  C   C193      1.0  0.89034  0.62051  0.36157  1.0000
  N   N50       1.0  0.86985  0.60202  0.35924  1.0000
  C   C194      1.0  0.87091  0.58299  0.36072  1.0000
  C   C195      1.0  0.89355  0.58965  0.36364  1.0000
  C   C196      1.0  0.90549  0.61269  0.36396  1.0000
  C   C197      1.0  0.85299  0.56058  0.36139  1.0000
  C   C198      1.0  0.82998  0.55425  0.35948  1.0000
  N   N51       1.0  0.82027  0.56708  0.35430  1.0000
  C   C199      1.0  0.79766  0.55486  0.35746  1.0000
  C   C200      1.0  0.79257  0.53264  0.36387  1.0000
  C   C201      1.0  0.81229  0.53225  0.36449  1.0000
  C   C202      1.0  0.78156  0.56196  0.35717  1.0000
  C   C203      1.0  0.78696  0.58470  0.35727  1.0000
  N   N52       1.0  0.80739  0.60333  0.35634  1.0000
  C   C204      1.0  0.80619  0.62229  0.35819  1.0000
  C   C205      1.0  0.78339  0.61520  0.36125  1.0000
  C   C206      1.0  0.77160  0.59217  0.35941  1.0000
  C   C207      1.0  0.82400  0.64489  0.35846  1.0000
  C   C208      1.0  0.81786  0.66200  0.36098  1.0000
  C   C209      1.0  0.80122  0.69269  0.37358  1.0000
  C   C210      1.0  0.81223  0.68923  0.44722  1.0000
  C   C211      1.0  0.82010  0.67396  0.44152  1.0000
  C   C212      1.0  0.75850  0.54502  0.36112  1.0000
  C   C213      1.0  0.71340  0.50940  0.37305  1.0000
  C   C214      1.0  0.72409  0.52326  0.44840  1.0000
  C   C215      1.0  0.74644  0.54065  0.44286  1.0000
  C   C216      1.0  0.85814  0.54308  0.37119  1.0000
  C   C217      1.0  0.85762  0.53434  0.45801  1.0000
  C   C218      1.0  0.85803  0.51432  0.46807  1.0000
  C   C219      1.0  0.85915  0.50256  0.39183  1.0000
  C   C220      1.0  0.91921  0.65964  0.37162  1.0000
  C   C221      1.0  0.92936  0.66405  0.45778  1.0000
  C   C222      1.0  0.96709  0.68441  0.39085  1.0000
  C   C223      1.0  0.95279  0.67609  0.46704  1.0000
  H   H136      1.0  0.95937  0.67800  0.53057  1.0000
  H   H137      1.0  0.91978  0.65729  0.51433  1.0000
  H   H138      1.0  0.90030  0.68658  0.36236  1.0000
  H   H139      1.0  0.86402  0.68742  0.35919  1.0000
  H   H140      1.0  0.84873  0.62234  0.35990  1.0000
  H   H141      1.0  0.82851  0.58306  0.34911  1.0000
  H   H142      1.0  0.92251  0.62198  0.36625  1.0000
  H   H143      1.0  0.90047  0.57961  0.36581  1.0000
  H   H144      1.0  0.85550  0.54171  0.51420  1.0000
  H   H145      1.0  0.85655  0.50793  0.53174  1.0000
  H   H146      1.0  0.81320  0.51800  0.37018  1.0000
  H   H147      1.0  0.77716  0.51872  0.36954  1.0000
  H   H148      1.0  0.77612  0.62490  0.36485  1.0000
  H   H149      1.0  0.75459  0.58269  0.36130  1.0000
  H   H150      1.0  0.75387  0.55009  0.49907  1.0000
  H   H151      1.0  0.71579  0.52065  0.50845  1.0000
  H   H152      1.0  0.82732  0.67145  0.49727  1.0000
  H   H153      1.0  0.81435  0.69763  0.50669  1.0000
  C   C224      1.0  0.69124  0.49280  0.37936  1.0000
  C   C225      1.0  0.85679  0.48157  0.40362  1.0000
  C   C226      1.0  0.99017  0.69380  0.40287  1.0000
  C   C227      1.0  0.79453  0.70865  0.38013  1.0000
  H   H154      1.0  0.68024  0.49701  0.40147  1.0000
  H   H155      1.0  0.84602  0.47164  0.45046  1.0000
  H   H156      1.0  0.99513  0.68756  0.45257  1.0000
  H   H157      1.0  0.80563  0.72359  0.40437  1.0000
  C   C228      1.0  0.40533  0.21542  0.36190  1.0000
  C   C229      1.0  0.40489  0.19517  0.36010  1.0000
  C   C230      1.0  0.42684  0.19929  0.35952  1.0000
  N   N53       1.0  0.43967  0.22197  0.35977  1.0000
  C   C231      1.0  0.42757  0.23260  0.36149  1.0000
  C   C232      1.0  0.43472  0.25590  0.36290  1.0000
  C   C233      1.0  0.45753  0.27318  0.36167  1.0000
  N   N54       1.0  0.47602  0.27118  0.35931  1.0000
  C   C234      1.0  0.49506  0.29126  0.36076  1.0000
  C   C235      1.0  0.48840  0.30725  0.36368  1.0000
  C   C236      1.0  0.46535  0.29615  0.36396  1.0000
  C   C237      1.0  0.51746  0.29575  0.36131  1.0000
  C   C238      1.0  0.52379  0.27907  0.35959  1.0000
  N   N55       1.0  0.51095  0.25652  0.35444  1.0000
  C   C239      1.0  0.52317  0.24612  0.35765  1.0000
  C   C240      1.0  0.54539  0.26326  0.36389  1.0000
  C   C241      1.0  0.54578  0.28337  0.36465  1.0000
  C   C242      1.0  0.51606  0.22292  0.35734  1.0000
  C   C243      1.0  0.49332  0.20560  0.35734  1.0000
  N   N56       1.0  0.47469  0.20740  0.35639  1.0000
  C   C244      1.0  0.45573  0.18724  0.35815  1.0000
  C   C245      1.0  0.46281  0.17152  0.36118  1.0000
  C   C246      1.0  0.48584  0.18276  0.35944  1.0000
  C   C247      1.0  0.43313  0.18245  0.35853  1.0000
  C   C248      1.0  0.41602  0.15920  0.36100  1.0000
  C   C249      1.0  0.38533  0.11187  0.37354  1.0000
  C   C250      1.0  0.38879  0.12633  0.44722  1.0000
  C   C251      1.0  0.40406  0.14947  0.44155  1.0000
  C   C252      1.0  0.53299  0.21679  0.36122  1.0000
  C   C253      1.0  0.56861  0.20730  0.37308  1.0000
  C   C254      1.0  0.55476  0.20416  0.44846  1.0000
  C   C255      1.0  0.53737  0.20911  0.44297  1.0000
  C   C256      1.0  0.53496  0.31839  0.37122  1.0000
  C   C257      1.0  0.54369  0.32659  0.45807  1.0000
  C   C258      1.0  0.56371  0.34702  0.46819  1.0000
  C   C259      1.0  0.57547  0.35993  0.39200  1.0000
  C   C260      1.0  0.41840  0.26293  0.37183  1.0000
  C   C261      1.0  0.41403  0.26872  0.45800  1.0000
  C   C262      1.0  0.39366  0.28607  0.39113  1.0000
  C   C263      1.0  0.40196  0.28007  0.46732  1.0000
  H   H158      1.0  0.40010  0.28479  0.53083  1.0000
  H   H159      1.0  0.42079  0.26589  0.51452  1.0000
  H   H160      1.0  0.39146  0.21709  0.36269  1.0000
  H   H161      1.0  0.39061  0.17996  0.35947  1.0000
  H   H162      1.0  0.45569  0.22973  0.35988  1.0000
  H   H163      1.0  0.49497  0.24879  0.34925  1.0000
  H   H164      1.0  0.45607  0.30389  0.36636  1.0000
  H   H165      1.0  0.49844  0.32421  0.36579  1.0000
  H   H166      1.0  0.53631  0.31708  0.51422  1.0000
  H   H167      1.0  0.57008  0.35193  0.53189  1.0000
  H   H168      1.0  0.56003  0.29852  0.37005  1.0000
  H   H169      1.0  0.55931  0.26176  0.36960  1.0000
  H   H170      1.0  0.45311  0.15456  0.36492  1.0000
  H   H171      1.0  0.49532  0.17522  0.36144  1.0000
  H   H172      1.0  0.52793  0.20711  0.49919  1.0000
  H   H173      1.0  0.55737  0.19847  0.50852  1.0000
  H   H174      1.0  0.40657  0.15919  0.49733  1.0000
  H   H175      1.0  0.38040  0.12005  0.50671  1.0000
  C   C264      1.0  0.58520  0.20175  0.37937  1.0000
  C   C265      1.0  0.59644  0.37857  0.40389  1.0000
  C   C266      1.0  0.38424  0.29973  0.40315  1.0000
  C   C267      1.0  0.36937  0.08922  0.38006  1.0000
  H   H176      1.0  0.58099  0.18653  0.40148  1.0000
  H   H177      1.0  0.60637  0.37774  0.45076  1.0000
  H   H178      1.0  0.39045  0.31092  0.45294  1.0000
  H   H179      1.0  0.35444  0.08538  0.40436  1.0000
  C   C268      1.0  0.86261  0.19327  0.36161  1.0000
  C   C269      1.0  0.88286  0.21308  0.35975  1.0000
  C   C270      1.0  0.87874  0.23091  0.35931  1.0000
  N   N57       1.0  0.85606  0.22105  0.35957  1.0000
  C   C271      1.0  0.84543  0.19832  0.36125  1.0000
  C   C272      1.0  0.82213  0.18217  0.36268  1.0000
  C   C273      1.0  0.80485  0.18770  0.36147  1.0000
  N   N58       1.0  0.80685  0.20819  0.35909  1.0000
  C   C274      1.0  0.78676  0.20714  0.36065  1.0000
  C   C275      1.0  0.77078  0.18450  0.36369  1.0000
  C   C276      1.0  0.78188  0.17256  0.36396  1.0000
  C   C277      1.0  0.78228  0.22506  0.36120  1.0000
  C   C278      1.0  0.79896  0.24807  0.35930  1.0000
  N   N59       1.0  0.82150  0.25777  0.35412  1.0000
  C   C279      1.0  0.83190  0.28039  0.35734  1.0000
  C   C280      1.0  0.81476  0.28548  0.36363  1.0000
  C   C281      1.0  0.79465  0.26576  0.36415  1.0000
  C   C282      1.0  0.85509  0.29648  0.35702  1.0000
  C   C283      1.0  0.87242  0.29108  0.35719  1.0000
  N   N60       1.0  0.87063  0.27065  0.35627  1.0000
  C   C284      1.0  0.89079  0.27185  0.35809  1.0000
  C   C285      1.0  0.90651  0.29465  0.36109  1.0000
  C   C286      1.0  0.89526  0.30644  0.35935  1.0000
  C   C287      1.0  0.89558  0.25404  0.35841  1.0000
  C   C288      1.0  0.91883  0.26017  0.36090  1.0000
  C   C289      1.0  0.96617  0.27684  0.37340  1.0000
  C   C290      1.0  0.95170  0.26582  0.44708  1.0000
  C   C291      1.0  0.92855  0.25795  0.44142  1.0000
  C   C292      1.0  0.86122  0.31955  0.36092  1.0000
  C   C293      1.0  0.87072  0.36465  0.37272  1.0000
  C   C294      1.0  0.87386  0.35396  0.44811  1.0000
  C   C295      1.0  0.86889  0.33161  0.44265  1.0000
  C   C296      1.0  0.75963  0.21992  0.37119  1.0000
  C   C297      1.0  0.75143  0.22047  0.45803  1.0000
  C   C298      1.0  0.73100  0.22005  0.46814  1.0000
  C   C299      1.0  0.71810  0.21888  0.39193  1.0000
  C   C300      1.0  0.81510  0.15883  0.37175  1.0000
  C   C301      1.0  0.80932  0.14871  0.45800  1.0000
  C   C302      1.0  0.79183  0.11094  0.39150  1.0000
  C   C303      1.0  0.79790  0.12529  0.46754  1.0000
  H   H180      1.0  0.79324  0.11876  0.53116  1.0000
  H   H181      1.0  0.81221  0.15833  0.51445  1.0000
  H   H182      1.0  0.86095  0.17773  0.36222  1.0000
  H   H183      1.0  0.89807  0.21401  0.35907  1.0000
  H   H184      1.0  0.84830  0.22931  0.35998  1.0000
  H   H185      1.0  0.82924  0.24954  0.34900  1.0000
  H   H186      1.0  0.77415  0.15554  0.36639  1.0000
  H   H187      1.0  0.75382  0.17758  0.36590  1.0000
  H   H188      1.0  0.76093  0.22256  0.51418  1.0000
  H   H189      1.0  0.72607  0.22149  0.53184  1.0000
  H   H190      1.0  0.77950  0.26485  0.36992  1.0000
  H   H191      1.0  0.81625  0.30089  0.36931  1.0000
  H   H192      1.0  0.92347  0.30192  0.36461  1.0000
  H   H193      1.0  0.90280  0.32345  0.36100  1.0000
  H   H194      1.0  0.87089  0.32417  0.49889  1.0000
  H   H195      1.0  0.87953  0.36226  0.50817  1.0000
  H   H196      1.0  0.91883  0.25073  0.49721  1.0000
  H   H197      1.0  0.95797  0.26371  0.50656  1.0000
  C   C304      1.0  0.87629  0.38682  0.37890  1.0000
  C   C305      1.0  0.69944  0.22119  0.40381  1.0000
  C   C306      1.0  0.77821  0.08786  0.40390  1.0000
  C   C307      1.0  0.98881  0.28350  0.37987  1.0000
  H   H198      1.0  0.89148  0.39780  0.40130  1.0000
  H   H199      1.0  0.70026  0.23196  0.45065  1.0000
  H   H200      1.0  0.76719  0.08289  0.45438  1.0000
  H   H201      1.0  0.99263  0.27239  0.40405  1.0000
  C   C308      1.0  0.23728  0.64086  0.37304  1.0000
  C   C309      1.0  0.23135  0.62816  0.45424  1.0000
  C   C310      1.0  0.22896  0.60639  0.45246  1.0000
  C   C311      1.0  0.22192  0.59317  0.53191  1.0000
  C   C312      1.0  0.21819  0.60150  0.61257  1.0000
  C   C313      1.0  0.22149  0.62321  0.61536  1.0000
  C   C314      1.0  0.22798  0.63641  0.53693  1.0000
  H   H202      1.0  0.21930  0.57727  0.53232  1.0000
  H   H203      1.0  0.23035  0.65217  0.54170  1.0000
  N   N61       1.0  0.23994  0.66122  0.36387  1.0000
  C   C315      1.0  0.43718  0.59977  0.37324  1.0000
  C   C316      1.0  0.44987  0.60653  0.45443  1.0000
  C   C317      1.0  0.47165  0.62591  0.45263  1.0000
  C   C318      1.0  0.48487  0.63209  0.53206  1.0000
  C   C319      1.0  0.47653  0.62003  0.61273  1.0000
  C   C320      1.0  0.45482  0.60163  0.61555  1.0000
  C   C321      1.0  0.44162  0.59491  0.53713  1.0000
  H   H204      1.0  0.50077  0.64536  0.53245  1.0000
  H   H205      1.0  0.42585  0.58153  0.54193  1.0000
  N   N62       1.0  0.41682  0.58207  0.36411  1.0000
  C   C322      1.0  0.47826  0.84076  0.37317  1.0000
  C   C323      1.0  0.47147  0.84666  0.45438  1.0000
  C   C324      1.0  0.45209  0.84905  0.45260  1.0000
  C   C325      1.0  0.44589  0.85606  0.53206  1.0000
  C   C326      1.0  0.45793  0.85976  0.61275  1.0000
  C   C327      1.0  0.47634  0.85646  0.61555  1.0000
  C   C328      1.0  0.48307  0.85000  0.53709  1.0000
  H   H206      1.0  0.43261  0.85868  0.53247  1.0000
  H   H207      1.0  0.49646  0.84763  0.54187  1.0000
  N   N63       1.0  0.49597  0.83811  0.36398  1.0000
  C   C329      1.0  0.86453  0.41340  0.37328  1.0000
  C   C330      1.0  0.87042  0.42607  0.45451  1.0000
  C   C331      1.0  0.87281  0.44784  0.45276  1.0000
  C   C332      1.0  0.87982  0.46105  0.53223  1.0000
  C   C333      1.0  0.88352  0.45270  0.61290  1.0000
  C   C334      1.0  0.88022  0.43100  0.61567  1.0000
  C   C335      1.0  0.87376  0.41781  0.53721  1.0000
  H   H208      1.0  0.88244  0.47695  0.53266  1.0000
  H   H209      1.0  0.87139  0.40204  0.54197  1.0000
  N   N64       1.0  0.86188  0.39304  0.36407  1.0000
  C   C336      1.0  0.66464  0.45447  0.37359  1.0000
  C   C337      1.0  0.65194  0.44769  0.45478  1.0000
  C   C338      1.0  0.63017  0.42831  0.45298  1.0000
  C   C339      1.0  0.61694  0.42212  0.53241  1.0000
  C   C340      1.0  0.62527  0.43417  0.61310  1.0000
  C   C341      1.0  0.64698  0.45257  0.61591  1.0000
  C   C342      1.0  0.66019  0.45929  0.53749  1.0000
  H   H210      1.0  0.60104  0.40885  0.53280  1.0000
  H   H211      1.0  0.67595  0.47268  0.54229  1.0000
  N   N65       1.0  0.68501  0.47216  0.36446  1.0000
  C   C343      1.0  0.62354  0.21348  0.37355  1.0000
  C   C344      1.0  0.63031  0.20756  0.45473  1.0000
  C   C345      1.0  0.64969  0.20516  0.45290  1.0000
  C   C346      1.0  0.65588  0.19813  0.53233  1.0000
  C   C347      1.0  0.64383  0.19441  0.61302  1.0000
  C   C348      1.0  0.62543  0.19771  0.61587  1.0000
  C   C349      1.0  0.61871  0.20420  0.53745  1.0000
  H   H212      1.0  0.66916  0.19550  0.53270  1.0000
  H   H213      1.0  0.60532  0.20657  0.54227  1.0000
  N   N66       1.0  0.60585  0.21615  0.36444  1.0000
  C   C350      1.0  0.07412  0.33325  0.36907  1.0000
  C   C351      1.0  0.06239  0.32275  0.44994  1.0000
  C   C352      1.0  0.06187  0.31233  0.60901  1.0000
  C   C353      1.0  0.07360  0.32189  0.52870  1.0000
  H   H214      1.0  0.07024  0.31202  0.66541  1.0000
  H   H215      1.0  0.09045  0.32808  0.52895  1.0000
  N   N67       1.0  0.09643  0.34380  0.35779  1.0000
  C   C354      1.0  0.74476  0.74419  0.36927  1.0000
  C   C355      1.0  0.75525  0.74295  0.45015  1.0000
  C   C356      1.0  0.76535  0.72920  0.45213  1.0000
  C   C357      1.0  0.77434  0.72682  0.53472  1.0000
  C   C358      1.0  0.77446  0.73851  0.61250  1.0000
  C   C359      1.0  0.76563  0.75284  0.60925  1.0000
  C   C360      1.0  0.75609  0.75502  0.52893  1.0000
  H   H216      1.0  0.78079  0.71644  0.54004  1.0000
  H   H217      1.0  0.76593  0.76152  0.66566  1.0000
  H   H218      1.0  0.74989  0.76567  0.52917  1.0000
  N   N68       1.0  0.73422  0.75596  0.35798  1.0000
  C   C361      1.0  0.33381  0.00391  0.36909  1.0000
  C   C362      1.0  0.33506  0.01563  0.45001  1.0000
  C   C363      1.0  0.34882  0.03949  0.45201  1.0000
  C   C364      1.0  0.35120  0.05086  0.53462  1.0000
  C   C365      1.0  0.33952  0.03928  0.61241  1.0000
  C   C366      1.0  0.32518  0.01612  0.60914  1.0000
  C   C367      1.0  0.32299  0.00440  0.52880  1.0000
  H   H219      1.0  0.36159  0.06769  0.53995  1.0000
  H   H220      1.0  0.31651  0.00774  0.66557  1.0000
  H   H221      1.0  0.31234  0.98756  0.52903  1.0000
  N   N69       1.0  0.32203  0.98160  0.35778  1.0000
  C   C368      1.0  0.06328  0.74158  0.45188  1.0000
  C   C369      1.0  0.07465  0.75056  0.53447  1.0000
  C   C370      1.0  0.06308  0.75066  0.61229  1.0000
  H   H222      1.0  0.09148  0.75700  0.53978  1.0000
  N   N70       1.0  0.00538  0.71048  0.35777  1.0000
  C   C371      1.0  0.35704  0.31004  0.36922  1.0000
  C   C372      1.0  0.34653  0.31128  0.45009  1.0000
  C   C373      1.0  0.33643  0.32504  0.45203  1.0000
  C   C374      1.0  0.32742  0.32741  0.53460  1.0000
  C   C375      1.0  0.32729  0.31572  0.61239  1.0000
  C   C376      1.0  0.33611  0.30138  0.60917  1.0000
  C   C377      1.0  0.34567  0.29921  0.52887  1.0000
  H   H223      1.0  0.32098  0.33780  0.53990  1.0000
  H   H224      1.0  0.33580  0.29270  0.66559  1.0000
  H   H225      1.0  0.35187  0.28855  0.52914  1.0000
  N   N71       1.0  0.36758  0.29827  0.35797  1.0000
  C   C378      1.0  0.76781  0.05034  0.36971  1.0000
  C   C379      1.0  0.76717  0.03864  0.44990  1.0000
  C   C380      1.0  0.75360  0.01476  0.45207  1.0000
  C   C381      1.0  0.75195  0.00340  0.53399  1.0000
  C   C382      1.0  0.76411  0.01502  0.61087  1.0000
  C   C383      1.0  0.77816  0.03823  0.60743  1.0000
  C   C384      1.0  0.77966  0.04993  0.52779  1.0000
  H   H226      1.0  0.74177  0.98654  0.53949  1.0000
  H   H227      1.0  0.78715  0.04664  0.66321  1.0000
  H   H228      1.0  0.79013  0.06681  0.52785  1.0000
  N   N72       1.0  0.77951  0.07264  0.35819  1.0000
