data_image0
_chemical_formula_structural       H3CH3CH2CNCNO2NCNCNO2N2CHNCHCNCNO2NCNCNO2N2CHNCHNCNO2NCNO2C6HOC6OH5C4H2C6HOC6OH5C4H4C6HOC6OH5C4H4C6HOC6OH4C3H2C6HOC6OH4C3H2NC2HN2C2HNC2NCNO2N2C2NCNO2N3C2HN2C2HNC2NCNO2N2C2NCNO2N2CNC2HN2CNC2HN2
_chemical_formula_sum              "H60 C120 N50 O30"
_cell_length_a       33.127
_cell_length_b       41.5176
_cell_length_c       14.755
_cell_angle_alpha    88.207
_cell_angle_beta     91.4055
_cell_angle_gamma    89.6989

_space_group_name_H-M_alt    "P 1"
_space_group_IT_number       1

loop_
  _space_group_symop_operation_xyz
  'x, y, z'

loop_
  _atom_site_type_symbol
  _atom_site_label
  _atom_site_symmetry_multiplicity
  _atom_site_fract_x
  _atom_site_fract_y
  _atom_site_fract_z
  _atom_site_occupancy
  H   H1        1.0  0.05345  0.10068  0.34542  1.0000
  H   H2        1.0  0.89754  0.92974  0.34563  1.0000
  H   H3        1.0  0.79379  0.36131  0.38421  1.0000
  C   C1        1.0  0.86440  0.33461  0.39743  1.0000
  H   H4        1.0  0.86542  0.35924  0.39514  1.0000
  H   H5        1.0  0.59587  0.31811  0.31181  1.0000
  H   H6        1.0  0.15766  0.66852  0.38119  1.0000
  C   C2        1.0  0.08770  0.69524  0.39643  1.0000
  H   H7        1.0  0.08643  0.67068  0.39331  1.0000
  H   H8        1.0  0.35458  0.71201  0.31010  1.0000
  C   C3        1.0  0.14903  0.18735  0.38053  1.0000
  N   N1        1.0  0.10001  0.14729  0.35521  1.0000
  C   C4        1.0  0.10934  0.17907  0.35294  1.0000
  N   N2        1.0  0.07977  0.20243  0.32538  1.0000
  O   O1        1.0  0.04551  0.19047  0.31008  1.0000
  O   O2        1.0  0.08963  0.21566  0.25154  1.0000
  N   N3        1.0  0.15771  0.21896  0.38576  1.0000
  C   C5        1.0  0.80244  0.84241  0.38021  1.0000
  N   N4        1.0  0.85101  0.88296  0.35486  1.0000
  C   C6        1.0  0.84152  0.85125  0.35241  1.0000
  N   N5        1.0  0.87037  0.82847  0.32452  1.0000
  O   O3        1.0  0.90428  0.84072  0.30873  1.0000
  O   O4        1.0  0.85868  0.81689  0.25082  1.0000
  N   N6        1.0  0.79381  0.81069  0.38551  1.0000
  N   N7        1.0  0.82100  0.17338  0.29299  1.0000
  C   C7        1.0  0.83703  0.14404  0.27533  1.0000
  H   H9        1.0  0.84059  0.13772  0.20962  1.0000
  N   N8        1.0  0.12965  0.85853  0.29372  1.0000
  C   C8        1.0  0.11314  0.88823  0.27596  1.0000
  H   H10       1.0  0.10819  0.89602  0.21024  1.0000
  C   C9        1.0  0.26008  0.54983  0.37232  1.0000
  N   N9        1.0  0.26708  0.50033  0.29651  1.0000
  C   C10       1.0  0.26572  0.53319  0.29139  1.0000
  N   N10       1.0  0.27298  0.55007  0.20914  1.0000
  O   O5        1.0  0.30718  0.54278  0.18078  1.0000
  O   O6        1.0  0.24710  0.54249  0.15008  1.0000
  N   N11       1.0  0.26148  0.58245  0.37204  1.0000
  C   C11       1.0  0.69299  0.48011  0.37120  1.0000
  N   N12       1.0  0.68616  0.53132  0.29460  1.0000
  C   C12       1.0  0.68824  0.49860  0.28947  1.0000
  N   N13       1.0  0.68241  0.48359  0.20589  1.0000
  O   O7        1.0  0.64850  0.49120  0.17148  1.0000
  O   O8        1.0  0.70890  0.49279  0.15161  1.0000
  N   N14       1.0  0.69172  0.44749  0.37031  1.0000
  N   N15       1.0  0.00404  0.35074  0.40260  1.0000
  C   C13       1.0  0.96268  0.35210  0.40134  1.0000
  H   H11       1.0  0.94820  0.37376  0.39198  1.0000
  N   N16       1.0  0.94837  0.67902  0.40162  1.0000
  C   C14       1.0  0.98969  0.67775  0.40017  1.0000
  H   H12       1.0  0.00400  0.65638  0.38998  1.0000
  N   N17       1.0  0.50878  0.33983  0.30729  1.0000
  C   C15       1.0  0.46810  0.34141  0.28828  1.0000
  N   N18       1.0  0.45314  0.34369  0.19811  1.0000
  O   O9        1.0  0.46608  0.36877  0.15923  1.0000
  O   O10       1.0  0.46468  0.31989  0.15493  1.0000
  N   N19       1.0  0.44163  0.69037  0.30616  1.0000
  C   C16       1.0  0.48194  0.68925  0.28746  1.0000
  N   N20       1.0  0.49503  0.68915  0.19737  1.0000
  O   O11       1.0  0.48131  0.66500  0.15807  1.0000
  O   O12       1.0  0.48257  0.71398  0.15443  1.0000
  C   C17       1.0  0.99724  0.01647  0.33661  1.0000
  C   C18       1.0  0.02406  0.98934  0.34414  1.0000
  C   C19       1.0  0.06573  0.99170  0.36745  1.0000
  C   C20       1.0  0.08247  0.02273  0.37918  1.0000
  C   C21       1.0  0.05878  0.05071  0.35966  1.0000
  C   C22       1.0  0.01712  0.04670  0.33847  1.0000
  H   H13       1.0  0.01292  0.96658  0.34308  1.0000
  O   O13       1.0  0.12228  0.02558  0.40338  1.0000
  C   C23       1.0  0.95360  0.01413  0.33654  1.0000
  C   C24       1.0  0.93377  0.98386  0.33866  1.0000
  C   C25       1.0  0.89256  0.97940  0.35975  1.0000
  C   C26       1.0  0.86931  0.00699  0.37899  1.0000
  C   C27       1.0  0.88578  0.03827  0.36693  1.0000
  C   C28       1.0  0.92693  0.04111  0.34350  1.0000
  O   O14       1.0  0.83001  0.00363  0.40311  1.0000
  H   H14       1.0  0.93806  0.06390  0.34240  1.0000
  H   H15       1.0  0.13748  0.02434  0.34711  1.0000
  H   H16       1.0  0.81361  0.00606  0.34678  1.0000
  H   H17       1.0  0.00076  0.06717  0.32512  1.0000
  H   H18       1.0  0.94984  0.96366  0.32555  1.0000
  C   C29       1.0  0.07381  0.08256  0.36118  1.0000
  C   C30       1.0  0.08855  0.96340  0.38837  1.0000
  C   C31       1.0  0.87754  0.94753  0.36132  1.0000
  C   C32       1.0  0.86337  0.06614  0.38725  1.0000
  H   H19       1.0  0.84010  0.06398  0.43141  1.0000
  H   H20       1.0  0.11294  0.96459  0.43210  1.0000
  C   C33       1.0  0.21654  0.32698  0.40403  1.0000
  C   C34       1.0  0.21836  0.29264  0.40579  1.0000
  C   C35       1.0  0.18398  0.27247  0.40651  1.0000
  C   C36       1.0  0.14530  0.28739  0.40992  1.0000
  C   C37       1.0  0.14050  0.32144  0.40793  1.0000
  C   C38       1.0  0.17643  0.34010  0.40499  1.0000
  H   H21       1.0  0.24554  0.28142  0.39940  1.0000
  O   O15       1.0  0.11196  0.26848  0.41687  1.0000
  C   C39       1.0  0.25272  0.34619  0.39408  1.0000
  C   C40       1.0  0.29295  0.33356  0.40524  1.0000
  C   C41       1.0  0.32820  0.35011  0.37643  1.0000
  C   C42       1.0  0.32300  0.38147  0.33641  1.0000
  C   C43       1.0  0.28508  0.39734  0.34045  1.0000
  C   C44       1.0  0.25111  0.37963  0.36965  1.0000
  O   O16       1.0  0.35592  0.39888  0.31040  1.0000
  H   H22       1.0  0.22404  0.39134  0.36397  1.0000
  H   H23       1.0  0.10922  0.26322  0.48194  1.0000
  H   H24       1.0  0.36634  0.40965  0.36463  1.0000
  H   H25       1.0  0.17254  0.36443  0.40604  1.0000
  H   H26       1.0  0.29724  0.31108  0.43391  1.0000
  C   C45       1.0  0.10171  0.33676  0.40765  1.0000
  C   C46       1.0  0.18919  0.23850  0.40339  1.0000
  C   C47       1.0  0.36744  0.33706  0.39548  1.0000
  C   C48       1.0  0.28114  0.43052  0.31772  1.0000
  H   H27       1.0  0.30186  0.44110  0.27601  1.0000
  H   H28       1.0  0.09972  0.36136  0.40328  1.0000
  H   H29       1.0  0.21739  0.22836  0.40925  1.0000
  H   H30       1.0  0.37090  0.31973  0.44599  1.0000
  C   C49       1.0  0.73592  0.70211  0.40356  1.0000
  C   C50       1.0  0.73393  0.73640  0.40547  1.0000
  C   C51       1.0  0.76823  0.75668  0.40635  1.0000
  C   C52       1.0  0.80706  0.74181  0.40980  1.0000
  C   C53       1.0  0.81200  0.70782  0.40770  1.0000
  C   C54       1.0  0.77612  0.68911  0.40460  1.0000
  H   H31       1.0  0.70652  0.74765  0.39927  1.0000
  O   O17       1.0  0.84046  0.76066  0.41688  1.0000
  C   C55       1.0  0.69966  0.68297  0.39335  1.0000
  C   C56       1.0  0.65957  0.69507  0.40487  1.0000
  C   C57       1.0  0.62381  0.67897  0.37602  1.0000
  C   C58       1.0  0.62842  0.64865  0.33539  1.0000
  C   C59       1.0  0.66662  0.63299  0.33854  1.0000
  C   C60       1.0  0.70107  0.65019  0.36796  1.0000
  O   O18       1.0  0.59516  0.63158  0.30916  1.0000
  H   H32       1.0  0.72814  0.63890  0.36109  1.0000
  H   H33       1.0  0.84456  0.76448  0.48197  1.0000
  H   H34       1.0  0.58616  0.61938  0.36322  1.0000
  H   H35       1.0  0.78017  0.66477  0.40589  1.0000
  H   H36       1.0  0.65574  0.71683  0.43388  1.0000
  C   C61       1.0  0.85086  0.69263  0.40737  1.0000
  C   C62       1.0  0.76280  0.79070  0.40327  1.0000
  C   C63       1.0  0.58487  0.69133  0.39518  1.0000
  C   C64       1.0  0.67077  0.60058  0.31374  1.0000
  H   H37       1.0  0.64953  0.59104  0.27095  1.0000
  H   H38       1.0  0.85288  0.66815  0.40260  1.0000
  H   H39       1.0  0.73469  0.80064  0.40914  1.0000
  H   H40       1.0  0.58237  0.70743  0.44593  1.0000
  C   C65       1.0  0.75082  0.32425  0.36176  1.0000
  C   C66       1.0  0.75088  0.29045  0.34636  1.0000
  C   C67       1.0  0.78543  0.27027  0.35989  1.0000
  C   C68       1.0  0.82293  0.28467  0.38316  1.0000
  C   C69       1.0  0.82652  0.31869  0.38734  1.0000
  C   C70       1.0  0.79031  0.33716  0.37804  1.0000
  H   H41       1.0  0.72447  0.27914  0.33118  1.0000
  O   O19       1.0  0.85668  0.26565  0.39199  1.0000
  C   C71       1.0  0.71389  0.34321  0.36662  1.0000
  C   C72       1.0  0.67384  0.33065  0.35564  1.0000
  C   C73       1.0  0.63808  0.34704  0.38135  1.0000
  C   C74       1.0  0.64250  0.37791  0.41916  1.0000
  C   C75       1.0  0.68024  0.39367  0.41580  1.0000
  C   C76       1.0  0.71448  0.37649  0.38791  1.0000
  O   O20       1.0  0.60937  0.39532  0.44244  1.0000
  H   H42       1.0  0.74091  0.38885  0.38973  1.0000
  H   H43       1.0  0.86652  0.26267  0.33036  1.0000
  H   H44       1.0  0.59954  0.40699  0.38703  1.0000
  H   H45       1.0  0.66999  0.30804  0.33213  1.0000
  C   C77       1.0  0.78362  0.23692  0.34222  1.0000
  C   C78       1.0  0.59899  0.33452  0.36180  1.0000
  C   C79       1.0  0.68438  0.42618  0.43916  1.0000
  H   H46       1.0  0.66643  0.43499  0.48838  1.0000
  H   H47       1.0  0.76184  0.22863  0.29856  1.0000
  C   C80       1.0  0.20068  0.70590  0.36213  1.0000
  C   C81       1.0  0.20062  0.74008  0.34762  1.0000
  C   C82       1.0  0.16647  0.76008  0.36092  1.0000
  C   C83       1.0  0.12931  0.74532  0.38363  1.0000
  C   C84       1.0  0.12550  0.71122  0.38686  1.0000
  C   C85       1.0  0.16134  0.69280  0.37710  1.0000
  H   H48       1.0  0.22688  0.75162  0.33330  1.0000
  O   O21       1.0  0.09586  0.76426  0.39256  1.0000
  C   C86       1.0  0.23753  0.68661  0.36721  1.0000
  C   C87       1.0  0.27745  0.69903  0.35494  1.0000
  C   C88       1.0  0.31370  0.68182  0.38005  1.0000
  C   C89       1.0  0.30991  0.65019  0.41823  1.0000
  C   C90       1.0  0.27182  0.63492  0.41711  1.0000
  C   C91       1.0  0.23704  0.65301  0.39051  1.0000
  O   O22       1.0  0.34333  0.63189  0.44068  1.0000
  H   H49       1.0  0.21046  0.64097  0.39526  1.0000
  H   H50       1.0  0.08476  0.76877  0.33092  1.0000
  H   H51       1.0  0.35146  0.62138  0.38501  1.0000
  H   H52       1.0  0.28094  0.72203  0.33041  1.0000
  C   C92       1.0  0.16817  0.79383  0.34365  1.0000
  C   C93       1.0  0.35247  0.69450  0.36010  1.0000
  C   C94       1.0  0.26742  0.60214  0.44256  1.0000
  H   H53       1.0  0.28588  0.59243  0.49297  1.0000
  H   H54       1.0  0.18903  0.80309  0.30009  1.0000
  N   N21       1.0  0.17563  0.16319  0.40417  1.0000
  C   C95       1.0  0.16545  0.13139  0.40375  1.0000
  C   C96       1.0  0.12557  0.12275  0.37984  1.0000
  H   H55       1.0  0.18640  0.11423  0.42310  1.0000
  N   N22       1.0  0.11227  0.09181  0.38095  1.0000
  N   N23       1.0  0.77647  0.86607  0.40416  1.0000
  C   C97       1.0  0.78674  0.89786  0.40386  1.0000
  C   C98       1.0  0.82609  0.90697  0.37979  1.0000
  H   H56       1.0  0.76628  0.91461  0.42339  1.0000
  N   N24       1.0  0.83949  0.93787  0.38103  1.0000
  C   C99       1.0  0.81576  0.18380  0.37853  1.0000
  C   C100      1.0  0.84674  0.12226  0.34790  1.0000
  N   N25       1.0  0.84099  0.13260  0.43325  1.0000
  C   C101      1.0  0.82724  0.16269  0.45190  1.0000
  N   N26       1.0  0.82350  0.17229  0.54205  1.0000
  O   O23       1.0  0.85732  0.17102  0.58240  1.0000
  O   O24       1.0  0.80009  0.15370  0.58383  1.0000
  N   N27       1.0  0.80501  0.21473  0.39316  1.0000
  N   N28       1.0  0.86342  0.09305  0.33274  1.0000
  C   C102      1.0  0.13665  0.84618  0.37930  1.0000
  C   C103      1.0  0.10471  0.90831  0.34852  1.0000
  N   N29       1.0  0.11220  0.89605  0.43389  1.0000
  C   C104      1.0  0.12649  0.86558  0.45260  1.0000
  N   N30       1.0  0.13205  0.85396  0.54278  1.0000
  O   O25       1.0  0.09902  0.85420  0.58274  1.0000
  O   O26       1.0  0.15620  0.87167  0.58488  1.0000
  N   N31       1.0  0.14772  0.81494  0.39409  1.0000
  N   N32       1.0  0.08758  0.93782  0.33341  1.0000
  N   N33       1.0  0.25394  0.53200  0.44979  1.0000
  C   C105      1.0  0.25232  0.49929  0.45264  1.0000
  C   C106      1.0  0.26047  0.48251  0.37358  1.0000
  H   H57       1.0  0.24830  0.48731  0.51328  1.0000
  N   N34       1.0  0.26342  0.44995  0.37735  1.0000
  N   N35       1.0  0.69758  0.49617  0.44986  1.0000
  C   C107      1.0  0.69854  0.52882  0.45327  1.0000
  C   C108      1.0  0.69125  0.54738  0.37296  1.0000
  H   H58       1.0  0.70154  0.53943  0.51462  1.0000
  N   N36       1.0  0.68792  0.57984  0.37627  1.0000
  C   C109      1.0  0.02560  0.32266  0.41290  1.0000
  C   C110      1.0  0.94056  0.32321  0.41003  1.0000
  N   N37       1.0  0.96227  0.29563  0.42087  1.0000
  C   C111      1.0  0.00330  0.29387  0.42333  1.0000
  N   N38       1.0  0.02243  0.26363  0.43419  1.0000
  O   O27       1.0  0.00958  0.24554  0.37360  1.0000
  O   O28       1.0  0.01408  0.25084  0.50962  1.0000
  N   N39       1.0  0.06654  0.32019  0.41274  1.0000
  N   N40       1.0  0.90010  0.31861  0.40572  1.0000
  C   C112      1.0  0.92700  0.70677  0.41304  1.0000
  C   C113      1.0  0.01197  0.70642  0.40990  1.0000
  N   N41       1.0  0.99047  0.73366  0.42186  1.0000
  C   C114      1.0  0.94948  0.73530  0.42451  1.0000
  N   N42       1.0  0.93053  0.76519  0.43684  1.0000
  O   O29       1.0  0.94203  0.78505  0.37729  1.0000
  O   O30       1.0  0.94050  0.77580  0.51289  1.0000
  N   N43       1.0  0.88605  0.70919  0.41295  1.0000
  N   N44       1.0  0.05232  0.71117  0.40554  1.0000
  C   C115      1.0  0.44090  0.34030  0.36096  1.0000
  N   N45       1.0  0.45730  0.33886  0.44656  1.0000
  C   C116      1.0  0.49785  0.33891  0.46476  1.0000
  C   C117      1.0  0.52518  0.33870  0.39287  1.0000
  H   H59       1.0  0.50807  0.33853  0.53069  1.0000
  N   N46       1.0  0.40041  0.34407  0.34547  1.0000
  N   N47       1.0  0.56560  0.34120  0.41002  1.0000
  C   C118      1.0  0.51064  0.68870  0.36034  1.0000
  N   N48       1.0  0.49597  0.68812  0.44581  1.0000
  C   C119      1.0  0.45579  0.68761  0.46370  1.0000
  C   C120      1.0  0.42697  0.68943  0.39161  1.0000
  H   H60       1.0  0.44692  0.68645  0.52955  1.0000
  N   N49       1.0  0.55084  0.68539  0.34503  1.0000
  N   N50       1.0  0.38687  0.68666  0.40843  1.0000
