data_image0
_chemical_formula_structural       C3NC3NC5NC5NC36H26C4H4C2NC3H5NC2NC3H5NC16H16C2NHNC2NHN
_chemical_formula_sum              "C86 N12 H58"
_cell_length_a       34.2139
_cell_length_b       34.2139
_cell_length_c       14.6321
_cell_angle_alpha    90
_cell_angle_beta     90
_cell_angle_gamma    90.169

_space_group_name_H-M_alt    "P 1"
_space_group_IT_number       1

loop_
  _space_group_symop_operation_xyz
  'x, y, z'

loop_
  _atom_site_type_symbol
  _atom_site_label
  _atom_site_symmetry_multiplicity
  _atom_site_fract_x
  _atom_site_fract_y
  _atom_site_fract_z
  _atom_site_occupancy
  C   C1        1.0  0.11564  0.08617  0.34090  1.0000
  C   C2        1.0  0.08689  0.11443  0.34074  1.0000
  C   C3        1.0  0.05050  0.09578  0.34216  1.0000
  N   N1        1.0  0.05867  0.05695  0.34286  1.0000
  C   C4        1.0  0.09763  0.04945  0.34169  1.0000
  C   C5        1.0  0.11779  0.01303  0.34115  1.0000
  C   C6        1.0  0.09914  0.97582  0.34090  1.0000
  N   N2        1.0  0.06038  0.96779  0.34177  1.0000
  C   C7        1.0  0.05302  0.92890  0.34043  1.0000
  C   C8        1.0  0.08955  0.91078  0.33873  1.0000
  C   C9        1.0  0.11789  0.93961  0.33879  1.0000
  C   C10       1.0  0.01614  0.90960  0.34074  1.0000
  C   C11       1.0  0.97937  0.92910  0.34157  1.0000
  N   N3        1.0  0.97118  0.96793  0.34158  1.0000
  C   C12       1.0  0.93221  0.97541  0.34164  1.0000
  C   C13       1.0  0.91423  0.93867  0.34234  1.0000
  C   C14       1.0  0.94300  0.91042  0.34197  1.0000
  C   C15       1.0  0.91201  0.01182  0.34141  1.0000
  C   C16       1.0  0.93070  0.04903  0.34184  1.0000
  N   N4        1.0  0.96947  0.05706  0.34242  1.0000
  C   C17       1.0  0.97684  0.09596  0.34194  1.0000
  C   C18       1.0  0.94030  0.11406  0.34146  1.0000
  C   C19       1.0  0.91195  0.08524  0.34090  1.0000
  C   C20       1.0  0.01374  0.11530  0.34184  1.0000
  C   C21       1.0  0.01369  0.15717  0.33945  1.0000
  C   C22       1.0  0.00727  0.17727  0.25651  1.0000
  C   C23       1.0  0.00566  0.21840  0.25449  1.0000
  C   C24       1.0  0.01057  0.24102  0.33494  1.0000
  C   C25       1.0  0.00705  0.28287  0.33313  1.0000
  C   C26       1.0  0.99858  0.36679  0.32994  1.0000
  C   C27       1.0  0.97283  0.34204  0.28075  1.0000
  C   C28       1.0  0.97699  0.30112  0.28222  1.0000
  C   C29       1.0  0.87014  0.01103  0.33897  1.0000
  C   C30       1.0  0.85015  0.00414  0.25603  1.0000
  C   C31       1.0  0.80902  0.00238  0.25367  1.0000
  C   C32       1.0  0.78627  0.00765  0.33375  1.0000
  C   C33       1.0  0.74438  0.00429  0.33151  1.0000
  C   C34       1.0  0.72592  0.97416  0.28092  1.0000
  C   C35       1.0  0.68495  0.97023  0.27893  1.0000
  C   C36       1.0  0.66037  0.99627  0.32731  1.0000
  C   C37       1.0  0.01615  0.86776  0.33828  1.0000
  C   C38       1.0  0.01762  0.78383  0.33243  1.0000
  C   C39       1.0  0.01951  0.80660  0.25146  1.0000
  C   C40       1.0  0.01880  0.84775  0.25414  1.0000
  C   C41       1.0  0.01897  0.74181  0.32895  1.0000
  C   C42       1.0  0.04405  0.72230  0.26691  1.0000
  C   C43       1.0  0.04432  0.68127  0.25973  1.0000
  C   C44       1.0  0.01985  0.65780  0.31518  1.0000
  C   C45       1.0  0.15963  0.01380  0.33872  1.0000
  C   C46       1.0  0.17963  0.01894  0.25515  1.0000
  C   C47       1.0  0.22078  0.02002  0.25257  1.0000
  C   C48       1.0  0.24355  0.01597  0.33307  1.0000
  C   C49       1.0  0.28556  0.01750  0.32974  1.0000
  C   C50       1.0  0.36952  0.01875  0.31564  1.0000
  C   C51       1.0  0.34619  0.04493  0.26468  1.0000
  C   C52       1.0  0.30516  0.04447  0.27208  1.0000
  H   H1        1.0  0.35888  0.06449  0.22065  1.0000
  H   H2        1.0  0.28966  0.06420  0.23416  1.0000
  H   H3        1.0  0.23401  0.02320  0.19030  1.0000
  H   H4        1.0  0.16433  0.02192  0.19545  1.0000
  H   H5        1.0  0.14495  0.09204  0.33979  1.0000
  H   H6        1.0  0.09224  0.14383  0.33940  1.0000
  H   H7        1.0  0.03897  0.03691  0.34374  1.0000
  H   H8        1.0  0.99087  0.98798  0.34057  1.0000
  H   H9        1.0  0.14730  0.93452  0.33726  1.0000
  H   H10       1.0  0.09515  0.88146  0.33738  1.0000
  H   H11       1.0  0.02030  0.86305  0.19410  1.0000
  H   H12       1.0  0.02086  0.79338  0.18884  1.0000
  H   H13       1.0  0.93768  0.88101  0.34206  1.0000
  H   H14       1.0  0.88493  0.93277  0.34297  1.0000
  H   H15       1.0  0.93466  0.14338  0.34114  1.0000
  H   H16       1.0  0.88255  0.09036  0.33994  1.0000
  H   H17       1.0  0.86548  0.00003  0.19672  1.0000
  H   H18       1.0  0.79575  0.99748  0.19204  1.0000
  H   H19       1.0  0.67323  0.94777  0.24150  1.0000
  H   H20       1.0  0.74225  0.95405  0.24612  1.0000
  H   H21       1.0  0.95706  0.28465  0.24689  1.0000
  H   H22       1.0  0.95044  0.35361  0.24307  1.0000
  H   H23       1.0  0.00097  0.23176  0.19291  1.0000
  H   H24       1.0  0.00326  0.16203  0.19702  1.0000
  H   H25       1.0  0.06256  0.73786  0.22567  1.0000
  H   H26       1.0  0.06250  0.66866  0.21261  1.0000
  C   C53       1.0  0.99328  0.40731  0.32644  1.0000
  C   C54       1.0  0.61979  0.99118  0.32340  1.0000
  C   C55       1.0  0.01872  0.61757  0.30108  1.0000
  C   C56       1.0  0.40968  0.01783  0.30079  1.0000
  H   H27       1.0  0.96930  0.41748  0.29611  1.0000
  H   H28       1.0  0.41908  0.02174  0.23700  1.0000
  H   H29       1.0  0.02160  0.60802  0.23712  1.0000
  H   H30       1.0  0.60941  0.96740  0.29235  1.0000
  C   C57       1.0  0.01296  0.49396  0.27522  1.0000
  C   C58       1.0  0.01557  0.55346  0.36138  1.0000
  N   N5        1.0  0.01242  0.53364  0.28107  1.0000
  C   C59       1.0  0.00948  0.47667  0.18291  1.0000
  C   C60       1.0  0.03643  0.49177  0.10629  1.0000
  C   C61       1.0  0.04345  0.45133  0.14786  1.0000
  H   H31       1.0  0.98060  0.46705  0.16022  1.0000
  H   H32       1.0  0.03539  0.42672  0.10423  1.0000
  H   H33       1.0  0.06944  0.44916  0.19088  1.0000
  H   H34       1.0  0.05822  0.51385  0.12436  1.0000
  H   H35       1.0  0.02414  0.49164  0.03746  1.0000
  N   N6        1.0  0.01598  0.59239  0.36631  1.0000
  C   C62       1.0  0.53319  0.01122  0.27335  1.0000
  C   C63       1.0  0.47386  0.01367  0.36012  1.0000
  N   N7        1.0  0.49351  0.01076  0.27956  1.0000
  C   C64       1.0  0.55029  0.00799  0.18083  1.0000
  C   C65       1.0  0.53527  0.03520  0.10478  1.0000
  C   C66       1.0  0.57583  0.04202  0.14611  1.0000
  H   H36       1.0  0.55965  0.97917  0.15758  1.0000
  H   H37       1.0  0.60032  0.03405  0.10214  1.0000
  H   H38       1.0  0.57826  0.06788  0.18955  1.0000
  H   H39       1.0  0.51339  0.05696  0.12340  1.0000
  H   H40       1.0  0.53520  0.02310  0.03575  1.0000
  N   N8        1.0  0.43496  0.01406  0.36550  1.0000
  C   C67       1.0  0.01779  0.22057  0.41749  1.0000
  C   C68       1.0  0.01914  0.17938  0.41990  1.0000
  C   C69       1.0  0.03276  0.30760  0.38260  1.0000
  C   C70       1.0  0.02876  0.34866  0.38078  1.0000
  C   C71       1.0  0.80662  0.01519  0.41635  1.0000
  C   C72       1.0  0.84781  0.01671  0.41910  1.0000
  C   C73       1.0  0.67873  0.02652  0.37785  1.0000
  C   C74       1.0  0.71982  0.03030  0.38016  1.0000
  C   C75       1.0  0.01393  0.84551  0.41945  1.0000
  C   C76       1.0  0.01454  0.80430  0.41641  1.0000
  C   C77       1.0  0.99534  0.67692  0.37883  1.0000
  C   C78       1.0  0.99500  0.71809  0.38556  1.0000
  C   C79       1.0  0.18191  0.00945  0.41936  1.0000
  C   C80       1.0  0.22312  0.01041  0.41642  1.0000
  C   C81       1.0  0.30916  0.99177  0.38187  1.0000
  C   C82       1.0  0.35033  0.99231  0.37501  1.0000
  H   H41       1.0  0.36609  0.97224  0.41138  1.0000
  H   H42       1.0  0.29648  0.97114  0.42300  1.0000
  H   H43       1.0  0.23810  0.00791  0.47663  1.0000
  H   H44       1.0  0.16823  0.00576  0.48100  1.0000
  H   H45       1.0  0.01215  0.85920  0.48150  1.0000
  H   H46       1.0  0.01373  0.78934  0.47692  1.0000
  H   H47       1.0  0.86145  0.02157  0.48032  1.0000
  H   H48       1.0  0.79161  0.01848  0.47632  1.0000
  H   H49       1.0  0.73169  0.05288  0.41682  1.0000
  H   H50       1.0  0.66232  0.04615  0.41392  1.0000
  H   H51       1.0  0.02356  0.16564  0.48117  1.0000
  H   H52       1.0  0.02073  0.23548  0.47772  1.0000
  H   H53       1.0  0.04816  0.36520  0.41748  1.0000
  H   H54       1.0  0.05525  0.29589  0.41959  1.0000
  H   H55       1.0  0.97574  0.73068  0.43013  1.0000
  H   H56       1.0  0.97657  0.66107  0.41887  1.0000
  C   C83       1.0  0.01607  0.47145  0.35646  1.0000
  C   C84       1.0  0.02006  0.49250  0.43893  1.0000
  N   N9        1.0  0.01948  0.53225  0.43925  1.0000
  H   H57       1.0  0.02311  0.47812  0.49974  1.0000
  N   N10       1.0  0.01779  0.43242  0.35883  1.0000
  C   C85       1.0  0.55585  0.01399  0.35445  1.0000
  C   C86       1.0  0.53497  0.01770  0.43720  1.0000
  N   N11       1.0  0.49523  0.01721  0.43788  1.0000
  H   H58       1.0  0.54948  0.02046  0.49795  1.0000
  N   N12       1.0  0.59490  0.01554  0.35667  1.0000
