data_image0
_chemical_formula_structural       C3NC3NC5NC5NC20H18N4C3NC3NC5NC5NC20H18N4C3NC3NC5NC5NC20H18N4CN2CHCN2CHCN2CHCN2CHCN2CHCN2CHC8H8C8H8C8H8C3H2CHC3H2CHC3H2CHC3H2CHC3H2CHC3H2CH
_chemical_formula_sum              "C168 N36 H102"
_cell_length_a       50.3998
_cell_length_b       50.3999
_cell_length_c       14.8195
_cell_angle_alpha    90.0974
_cell_angle_beta     89.9026
_cell_angle_gamma    120

_space_group_name_H-M_alt    "P 1"
_space_group_IT_number       1

loop_
  _space_group_symop_operation_xyz
  'x, y, z'

loop_
  _atom_site_type_symbol
  _atom_site_label
  _atom_site_symmetry_multiplicity
  _atom_site_fract_x
  _atom_site_fract_y
  _atom_site_fract_z
  _atom_site_occupancy
  C   C1        1.0  0.05312  0.65462  0.32182  1.0000
  C   C2        1.0  0.02144  0.63881  0.32197  1.0000
  C   C3        1.0  0.01136  0.60745  0.32175  1.0000
  N   N1        1.0  0.03724  0.60548  0.32160  1.0000
  C   C4        1.0  0.06316  0.63331  0.32179  1.0000
  C   C5        1.0  0.09437  0.64069  0.32177  1.0000
  C   C6        1.0  0.10425  0.61874  0.32196  1.0000
  N   N2        1.0  0.08690  0.58782  0.32142  1.0000
  C   C7        1.0  0.10418  0.57417  0.32214  1.0000
  C   C8        1.0  0.13463  0.59795  0.32298  1.0000
  C   C9        1.0  0.13467  0.62532  0.32326  1.0000
  C   C10       1.0  0.09421  0.54232  0.32215  1.0000
  C   C11       1.0  0.06299  0.51852  0.32181  1.0000
  N   N3        1.0  0.03711  0.52049  0.32158  1.0000
  C   C12       1.0  0.01120  0.49267  0.32181  1.0000
  C   C13       1.0  0.02123  0.47136  0.32190  1.0000
  C   C14       1.0  0.05291  0.48717  0.32208  1.0000
  C   C15       1.0  0.97999  0.48529  0.32179  1.0000
  C   C16       1.0  0.97010  0.50724  0.32191  1.0000
  N   N4        1.0  0.98745  0.53816  0.32134  1.0000
  C   C17       1.0  0.97018  0.55180  0.32206  1.0000
  C   C18       1.0  0.93972  0.52803  0.32297  1.0000
  C   C19       1.0  0.93968  0.50065  0.32329  1.0000
  C   C20       1.0  0.98014  0.58366  0.32208  1.0000
  C   C21       1.0  0.95684  0.59191  0.32368  1.0000
  C   C22       1.0  0.90398  0.59889  0.32564  1.0000
  C   C23       1.0  0.91837  0.59908  0.24358  1.0000
  C   C24       1.0  0.94442  0.59560  0.24239  1.0000
  C   C25       1.0  0.95665  0.45374  0.32278  1.0000
  C   C26       1.0  0.90429  0.39365  0.32843  1.0000
  C   C27       1.0  0.91509  0.40937  0.24548  1.0000
  C   C28       1.0  0.94092  0.43904  0.24271  1.0000
  C   C29       1.0  0.11751  0.53406  0.32380  1.0000
  C   C30       1.0  0.12979  0.53005  0.24253  1.0000
  C   C31       1.0  0.15577  0.52643  0.24370  1.0000
  C   C32       1.0  0.17013  0.52669  0.32573  1.0000
  C   C33       1.0  0.11772  0.67224  0.32270  1.0000
  C   C34       1.0  0.13349  0.68687  0.24260  1.0000
  C   C35       1.0  0.17022  0.73222  0.32834  1.0000
  C   C36       1.0  0.15939  0.71649  0.24537  1.0000
  H   H1        1.0  0.17072  0.72602  0.18649  1.0000
  H   H2        1.0  0.12692  0.67556  0.18213  1.0000
  H   H3        1.0  0.06640  0.67797  0.32183  1.0000
  H   H4        1.0  0.00819  0.64890  0.32219  1.0000
  H   H5        1.0  0.03722  0.58641  0.32162  1.0000
  H   H6        1.0  0.03714  0.53957  0.32158  1.0000
  H   H7        1.0  0.15402  0.64641  0.32441  1.0000
  H   H8        1.0  0.15394  0.59613  0.32371  1.0000
  H   H9        1.0  0.12068  0.53099  0.18175  1.0000
  H   H10       1.0  0.16469  0.52445  0.18360  1.0000
  H   H11       1.0  0.06616  0.47708  0.32237  1.0000
  H   H12       1.0  0.00796  0.44801  0.32198  1.0000
  H   H13       1.0  0.92041  0.52984  0.32383  1.0000
  H   H14       1.0  0.92034  0.47956  0.32455  1.0000
  H   H15       1.0  0.94749  0.45031  0.18224  1.0000
  H   H16       1.0  0.90383  0.39977  0.18659  1.0000
  H   H17       1.0  0.95355  0.59458  0.18161  1.0000
  H   H18       1.0  0.90936  0.60081  0.18347  1.0000
  N   N5        1.0  0.87907  0.36634  0.33783  1.0000
  N   N6        1.0  0.19598  0.52546  0.32088  1.0000
  N   N7        1.0  0.19557  0.75943  0.33778  1.0000
  N   N8        1.0  0.87800  0.59989  0.32083  1.0000
  C   C37       1.0  0.44490  0.48601  0.32106  1.0000
  C   C38       1.0  0.46072  0.47015  0.32116  1.0000
  C   C39       1.0  0.49207  0.49142  0.32089  1.0000
  N   N9        1.0  0.49404  0.51927  0.32073  1.0000
  C   C40       1.0  0.46620  0.51735  0.32099  1.0000
  C   C41       1.0  0.45883  0.54119  0.32098  1.0000
  C   C42       1.0  0.48077  0.57302  0.32111  1.0000
  N   N10       1.0  0.51169  0.58660  0.32054  1.0000
  C   C43       1.0  0.52533  0.61752  0.32122  1.0000
  C   C44       1.0  0.50156  0.62419  0.32206  1.0000
  C   C45       1.0  0.47418  0.59686  0.32242  1.0000
  C   C46       1.0  0.55718  0.63941  0.32125  1.0000
  C   C47       1.0  0.58098  0.63199  0.32092  1.0000
  N   N11       1.0  0.57902  0.60414  0.32071  1.0000
  C   C48       1.0  0.60685  0.60606  0.32097  1.0000
  C   C49       1.0  0.62816  0.63741  0.32110  1.0000
  C   C50       1.0  0.61233  0.65326  0.32126  1.0000
  C   C51       1.0  0.61423  0.58223  0.32092  1.0000
  C   C52       1.0  0.59229  0.55040  0.32103  1.0000
  N   N12       1.0  0.56137  0.53682  0.32046  1.0000
  C   C53       1.0  0.54772  0.50590  0.32115  1.0000
  C   C54       1.0  0.57151  0.49923  0.32205  1.0000
  C   C55       1.0  0.59888  0.52656  0.32236  1.0000
  C   C56       1.0  0.51587  0.48401  0.32115  1.0000
  C   C57       1.0  0.50763  0.45245  0.32275  1.0000
  C   C58       1.0  0.50063  0.39261  0.32470  1.0000
  C   C59       1.0  0.50043  0.40673  0.24264  1.0000
  C   C60       1.0  0.50389  0.43626  0.24145  1.0000
  C   C61       1.0  0.64579  0.59045  0.32202  1.0000
  C   C62       1.0  0.70588  0.59821  0.32797  1.0000
  C   C63       1.0  0.69019  0.59319  0.24496  1.0000
  C   C64       1.0  0.66053  0.58934  0.24204  1.0000
  C   C65       1.0  0.56544  0.67096  0.32287  1.0000
  C   C66       1.0  0.56946  0.68718  0.24159  1.0000
  C   C67       1.0  0.57308  0.71678  0.24274  1.0000
  C   C68       1.0  0.57279  0.73095  0.32475  1.0000
  C   C69       1.0  0.42727  0.53298  0.32205  1.0000
  C   C70       1.0  0.41260  0.53402  0.24202  1.0000
  C   C71       1.0  0.36730  0.52553  0.32799  1.0000
  C   C72       1.0  0.38300  0.53036  0.24495  1.0000
  H   H19       1.0  0.37343  0.53207  0.18612  1.0000
  H   H20       1.0  0.42389  0.53873  0.18150  1.0000
  H   H21       1.0  0.42155  0.47594  0.32112  1.0000
  H   H22       1.0  0.45063  0.44680  0.32139  1.0000
  H   H23       1.0  0.51311  0.53832  0.32067  1.0000
  H   H24       1.0  0.55995  0.58509  0.32060  1.0000
  H   H25       1.0  0.45309  0.59512  0.32359  1.0000
  H   H26       1.0  0.50337  0.64532  0.32282  1.0000
  H   H27       1.0  0.56851  0.67705  0.18082  1.0000
  H   H28       1.0  0.57503  0.72760  0.18264  1.0000
  H   H29       1.0  0.62243  0.67661  0.32156  1.0000
  H   H30       1.0  0.65150  0.64748  0.32121  1.0000
  H   H31       1.0  0.56969  0.47811  0.32278  1.0000
  H   H32       1.0  0.61997  0.52831  0.32356  1.0000
  H   H33       1.0  0.64929  0.58457  0.18152  1.0000
  H   H34       1.0  0.69983  0.59147  0.18614  1.0000
  H   H35       1.0  0.50491  0.44635  0.18067  1.0000
  H   H36       1.0  0.49864  0.39591  0.18254  1.0000
  N   N13       1.0  0.73317  0.60028  0.33755  1.0000
  N   N14       1.0  0.57402  0.75803  0.31992  1.0000
  N   N15       1.0  0.34009  0.52367  0.33756  1.0000
  N   N16       1.0  0.49962  0.36563  0.31989  1.0000
  C   C73       1.0  0.61350  0.04640  0.32052  1.0000
  C   C74       1.0  0.62936  0.07809  0.32071  1.0000
  C   C75       1.0  0.60809  0.08817  0.32042  1.0000
  N   N17       1.0  0.58024  0.06228  0.32018  1.0000
  C   C76       1.0  0.58215  0.03637  0.32040  1.0000
  C   C77       1.0  0.55832  0.00516  0.32032  1.0000
  C   C78       1.0  0.52648  0.99527  0.32049  1.0000
  N   N18       1.0  0.51291  0.01262  0.32000  1.0000
  C   C79       1.0  0.48199  0.99535  0.32074  1.0000
  C   C80       1.0  0.47531  0.96490  0.32158  1.0000
  C   C81       1.0  0.50264  0.96485  0.32182  1.0000
  C   C82       1.0  0.46011  0.00532  0.32083  1.0000
  C   C83       1.0  0.46753  0.03654  0.32047  1.0000
  N   N19       1.0  0.49538  0.06242  0.32021  1.0000
  C   C84       1.0  0.49347  0.08833  0.32043  1.0000
  C   C85       1.0  0.46212  0.07830  0.32058  1.0000
  C   C86       1.0  0.44626  0.04662  0.32080  1.0000
  C   C87       1.0  0.51730  0.11954  0.32036  1.0000
  C   C88       1.0  0.54913  0.12943  0.32052  1.0000
  N   N20       1.0  0.56271  0.11208  0.31998  1.0000
  C   C89       1.0  0.59363  0.12935  0.32071  1.0000
  C   C90       1.0  0.60030  0.15980  0.32158  1.0000
  C   C91       1.0  0.57297  0.15985  0.32184  1.0000
  C   C92       1.0  0.61551  0.11938  0.32077  1.0000
  C   C93       1.0  0.64706  0.14269  0.32247  1.0000
  C   C94       1.0  0.70690  0.19555  0.32478  1.0000
  C   C95       1.0  0.69283  0.18119  0.24264  1.0000
  C   C96       1.0  0.66331  0.15511  0.24128  1.0000
  C   C97       1.0  0.50909  0.14288  0.32139  1.0000
  C   C98       1.0  0.50131  0.19520  0.32721  1.0000
  C   C99       1.0  0.50635  0.18445  0.24423  1.0000
  C   C100      1.0  0.51018  0.15863  0.24136  1.0000
  C   C101      1.0  0.42855  0.98203  0.32259  1.0000
  C   C102      1.0  0.41228  0.96968  0.24143  1.0000
  C   C103      1.0  0.38268  0.94372  0.24278  1.0000
  C   C104      1.0  0.36856  0.92937  0.32488  1.0000
  C   C105      1.0  0.56651  0.98181  0.32134  1.0000
  C   C106      1.0  0.56545  0.96600  0.24130  1.0000
  C   C107      1.0  0.57395  0.92928  0.32720  1.0000
  C   C108      1.0  0.56913  0.94009  0.24419  1.0000
  H   H37       1.0  0.56743  0.92876  0.18533  1.0000
  H   H38       1.0  0.56078  0.97256  0.18080  1.0000
  H   H39       1.0  0.62356  0.03313  0.32057  1.0000
  H   H40       1.0  0.65271  0.09134  0.32100  1.0000
  H   H41       1.0  0.56119  0.06231  0.32011  1.0000
  H   H42       1.0  0.51443  0.06239  0.32011  1.0000
  H   H43       1.0  0.50438  0.94551  0.32296  1.0000
  H   H44       1.0  0.45419  0.94559  0.32234  1.0000
  H   H45       1.0  0.42234  0.97880  0.18059  1.0000
  H   H46       1.0  0.37181  0.93477  0.18275  1.0000
  H   H47       1.0  0.42291  0.03337  0.32112  1.0000
  H   H48       1.0  0.45205  0.09157  0.32067  1.0000
  H   H49       1.0  0.62142  0.17911  0.32233  1.0000
  H   H50       1.0  0.57123  0.17919  0.32299  1.0000
  H   H51       1.0  0.51500  0.15211  0.18088  1.0000
  H   H52       1.0  0.50809  0.19575  0.18540  1.0000
  H   H53       1.0  0.65326  0.14600  0.18044  1.0000
  H   H54       1.0  0.70369  0.19020  0.18260  1.0000
  N   N21       1.0  0.49921  0.22042  0.33672  1.0000
  N   N22       1.0  0.34148  0.90352  0.32023  1.0000
  N   N23       1.0  0.57580  0.90394  0.33674  1.0000
  N   N24       1.0  0.73389  0.22152  0.32015  1.0000
  C   C109      1.0  0.29428  0.52405  0.31349  1.0000
  N   N25       1.0  0.27651  0.52854  0.25332  1.0000
  N   N26       1.0  0.25065  0.52727  0.27482  1.0000
  C   C110      1.0  0.32154  0.52640  0.28386  1.0000
  H   H55       1.0  0.32709  0.53108  0.21916  1.0000
  C   C111      1.0  0.57544  0.85773  0.31261  1.0000
  N   N27       1.0  0.57095  0.83541  0.25241  1.0000
  N   N28       1.0  0.57222  0.81085  0.27390  1.0000
  C   C112      1.0  0.57309  0.88262  0.28301  1.0000
  H   H56       1.0  0.56845  0.88345  0.21829  1.0000
  C   C113      1.0  0.24177  0.80523  0.31345  1.0000
  N   N29       1.0  0.26405  0.82299  0.25313  1.0000
  N   N30       1.0  0.28863  0.84886  0.27449  1.0000
  C   C114      1.0  0.21686  0.77797  0.28395  1.0000
  H   H57       1.0  0.21600  0.77241  0.21925  1.0000
  C   C115      1.0  0.77921  0.60031  0.31347  1.0000
  N   N31       1.0  0.79716  0.59597  0.25329  1.0000
  N   N32       1.0  0.82312  0.59751  0.27479  1.0000
  C   C116      1.0  0.75187  0.59770  0.28384  1.0000
  H   H58       1.0  0.74641  0.59300  0.21912  1.0000
  C   C117      1.0  0.49918  0.26640  0.31259  1.0000
  N   N33       1.0  0.50354  0.28863  0.25240  1.0000
  N   N34       1.0  0.50199  0.31307  0.27388  1.0000
  C   C118      1.0  0.50181  0.24165  0.28300  1.0000
  H   H59       1.0  0.50656  0.24084  0.21831  1.0000
  C   C119      1.0  0.83311  0.32031  0.31345  1.0000
  N   N35       1.0  0.81092  0.30239  0.25313  1.0000
  N   N36       1.0  0.78647  0.27641  0.27446  1.0000
  C   C120      1.0  0.85788  0.34767  0.28400  1.0000
  H   H60       1.0  0.85874  0.35318  0.21930  1.0000
  C   C121      1.0  0.94278  0.59209  0.40606  1.0000
  C   C122      1.0  0.91671  0.59552  0.40700  1.0000
  C   C123      1.0  0.94628  0.43787  0.40543  1.0000
  C   C124      1.0  0.92052  0.40817  0.40794  1.0000
  C   C125      1.0  0.15753  0.53041  0.40706  1.0000
  C   C126      1.0  0.13157  0.53402  0.40615  1.0000
  C   C127      1.0  0.12811  0.68813  0.40537  1.0000
  C   C128      1.0  0.15393  0.71779  0.40788  1.0000
  H   H61       1.0  0.16143  0.72839  0.46908  1.0000
  H   H62       1.0  0.11763  0.67778  0.46469  1.0000
  H   H63       1.0  0.12377  0.53791  0.46574  1.0000
  H   H64       1.0  0.16778  0.53174  0.46762  1.0000
  H   H65       1.0  0.95675  0.44825  0.46471  1.0000
  H   H66       1.0  0.91309  0.39755  0.46911  1.0000
  H   H67       1.0  0.90643  0.59421  0.46759  1.0000
  H   H68       1.0  0.95061  0.58834  0.46569  1.0000
  C   C129      1.0  0.50744  0.43831  0.40515  1.0000
  C   C130      1.0  0.50405  0.40883  0.40606  1.0000
  C   C131      1.0  0.66162  0.59603  0.40474  1.0000
  C   C132      1.0  0.69132  0.59999  0.40740  1.0000
  C   C133      1.0  0.56908  0.71471  0.40610  1.0000
  C   C134      1.0  0.56550  0.68516  0.40521  1.0000
  C   C135      1.0  0.41142  0.52757  0.40478  1.0000
  C   C136      1.0  0.38176  0.52374  0.40744  1.0000
  H   H69       1.0  0.37119  0.52069  0.46869  1.0000
  H   H70       1.0  0.42179  0.52750  0.46404  1.0000
  H   H71       1.0  0.56157  0.67353  0.46481  1.0000
  H   H72       1.0  0.56772  0.72369  0.46664  1.0000
  H   H73       1.0  0.65119  0.59614  0.46398  1.0000
  H   H74       1.0  0.70189  0.60319  0.46865  1.0000
  H   H75       1.0  0.50532  0.39989  0.46665  1.0000
  H   H76       1.0  0.51122  0.44995  0.46475  1.0000
  C   C137      1.0  0.66116  0.15672  0.40495  1.0000
  C   C138      1.0  0.69065  0.18279  0.40605  1.0000
  C   C139      1.0  0.50349  0.15322  0.40408  1.0000
  C   C140      1.0  0.49949  0.17894  0.40667  1.0000
  C   C141      1.0  0.38485  0.94204  0.40613  1.0000
  C   C142      1.0  0.41442  0.96799  0.40502  1.0000
  C   C143      1.0  0.57194  0.97144  0.40406  1.0000
  C   C144      1.0  0.57572  0.94560  0.40668  1.0000
  H   H77       1.0  0.57881  0.93814  0.46791  1.0000
  H   H78       1.0  0.57200  0.98194  0.46334  1.0000
  H   H79       1.0  0.42608  0.97580  0.46456  1.0000
  H   H80       1.0  0.37593  0.93178  0.46673  1.0000
  H   H81       1.0  0.50333  0.14272  0.46333  1.0000
  H   H82       1.0  0.49626  0.18636  0.46788  1.0000
  H   H83       1.0  0.69953  0.19304  0.46670  1.0000
  H   H84       1.0  0.64949  0.14887  0.46450  1.0000
  C   C145      1.0  0.23885  0.52129  0.35992  1.0000
  C   C146      1.0  0.25592  0.51638  0.42675  1.0000
  C   C147      1.0  0.28366  0.51775  0.40358  1.0000
  H   H85       1.0  0.29587  0.51429  0.45263  1.0000
  H   H86       1.0  0.24849  0.51196  0.49225  1.0000
  C   C148      1.0  0.21167  0.52068  0.38053  1.0000
  H   H87       1.0  0.20428  0.51662  0.44396  1.0000
  C   C149      1.0  0.57821  0.80512  0.35899  1.0000
  C   C150      1.0  0.58312  0.82716  0.42583  1.0000
  C   C151      1.0  0.58175  0.85350  0.40269  1.0000
  H   H88       1.0  0.58523  0.86922  0.45174  1.0000
  H   H89       1.0  0.58756  0.82422  0.49131  1.0000
  C   C152      1.0  0.57883  0.77857  0.37955  1.0000
  H   H90       1.0  0.58291  0.77531  0.44298  1.0000
  C   C153      1.0  0.29443  0.86067  0.35957  1.0000
  C   C154      1.0  0.27244  0.84361  0.42654  1.0000
  C   C155      1.0  0.24608  0.81587  0.40353  1.0000
  H   H91       1.0  0.23039  0.80368  0.45267  1.0000
  H   H92       1.0  0.27544  0.85106  0.49203  1.0000
  C   C156      1.0  0.32100  0.88785  0.38001  1.0000
  H   H93       1.0  0.32432  0.89526  0.44343  1.0000
  C   C157      1.0  0.83487  0.60366  0.35988  1.0000
  C   C158      1.0  0.81764  0.60844  0.42669  1.0000
  C   C159      1.0  0.78978  0.60677  0.40354  1.0000
  H   H94       1.0  0.77746  0.61016  0.45257  1.0000
  H   H95       1.0  0.82503  0.61298  0.49218  1.0000
  C   C160      1.0  0.86217  0.60457  0.38046  1.0000
  H   H96       1.0  0.86952  0.60872  0.44389  1.0000
  C   C161      1.0  0.49581  0.31875  0.35894  1.0000
  C   C162      1.0  0.49102  0.29680  0.42576  1.0000
  C   C163      1.0  0.49269  0.27059  0.40264  1.0000
  H   H97       1.0  0.48930  0.25494  0.45168  1.0000
  H   H98       1.0  0.48647  0.29972  0.49124  1.0000
  C   C164      1.0  0.49493  0.34517  0.37952  1.0000
  H   H99       1.0  0.49077  0.34844  0.44295  1.0000
  C   C165      1.0  0.78074  0.26462  0.35949  1.0000
  C   C166      1.0  0.80264  0.28182  0.42645  1.0000
  C   C167      1.0  0.82886  0.30969  0.40347  1.0000
  H   H100      1.0  0.84449  0.32198  0.45259  1.0000
  H   H101      1.0  0.79969  0.27439  0.49189  1.0000
  C   C168      1.0  0.75431  0.23731  0.37991  1.0000
  H   H102      1.0  0.75100  0.22993  0.44330  1.0000
