data_image0
_chemical_formula_structural       HCNHC5NH3C6N2H4C6N2H4C2NC2HNCHC2NC2HNCHC2NC2HNCHC2NC2HNCHC2NC2HNCHC2NC2HNCHC3H2C3HC3H2C3H2C3H2C3H2C2HC3N2HC2HC3N2HC2HC3N2HC2HC3N2HC2HC3N2HC2HC3N2H
_chemical_formula_sum              "H48 C96 N30"
_cell_length_a       31.3935
_cell_length_b       31.3936
_cell_length_c       14.9603
_cell_angle_alpha    90
_cell_angle_beta     90
_cell_angle_gamma    120

_space_group_name_H-M_alt    "P 1"
_space_group_IT_number       1

loop_
  _space_group_symop_operation_xyz
  'x, y, z'

loop_
  _atom_site_type_symbol
  _atom_site_label
  _atom_site_symmetry_multiplicity
  _atom_site_fract_x
  _atom_site_fract_y
  _atom_site_fract_z
  _atom_site_occupancy
  H   H1        1.0  0.00603  0.57282  0.22228  1.0000
  C   C1        1.0  0.02888  0.51560  0.31799  1.0000
  N   N1        1.0  0.03715  0.59124  0.25351  1.0000
  H   H2        1.0  0.03758  0.45574  0.36300  1.0000
  C   C2        1.0  0.97516  0.48706  0.31807  1.0000
  C   C3        1.0  0.89610  0.40815  0.32213  1.0000
  C   C4        1.0  0.94698  0.43518  0.29846  1.0000
  C   C5        1.0  0.05705  0.56748  0.29833  1.0000
  C   C6        1.0  0.10794  0.59453  0.32191  1.0000
  N   N2        1.0  0.96693  0.41140  0.25383  1.0000
  H   H3        1.0  0.99786  0.42993  0.22209  1.0000
  H   H4        1.0  0.94737  0.37695  0.23747  1.0000
  H   H5        1.0  0.05646  0.62578  0.23763  1.0000
  C   C7        1.0  0.51629  0.48876  0.31814  1.0000
  C   C8        1.0  0.59519  0.48859  0.32186  1.0000
  C   C9        1.0  0.56815  0.51245  0.29834  1.0000
  C   C10       1.0  0.48772  0.51393  0.31811  1.0000
  C   C11       1.0  0.43583  0.49020  0.29853  1.0000
  C   C12       1.0  0.40879  0.51404  0.32216  1.0000
  N   N3        1.0  0.59189  0.55617  0.25365  1.0000
  N   N4        1.0  0.41205  0.44652  0.25380  1.0000
  H   H6        1.0  0.57333  0.56855  0.22199  1.0000
  H   H7        1.0  0.62631  0.57102  0.23713  1.0000
  H   H8        1.0  0.37750  0.43127  0.23800  1.0000
  H   H9        1.0  0.43045  0.43381  0.22253  1.0000
  C   C13       1.0  0.51460  0.02823  0.31801  1.0000
  C   C14       1.0  0.51472  0.10728  0.32200  1.0000
  C   C15       1.0  0.49087  0.05640  0.29841  1.0000
  C   C16       1.0  0.48942  0.97450  0.31810  1.0000
  C   C17       1.0  0.51312  0.94632  0.29838  1.0000
  C   C18       1.0  0.48925  0.89542  0.32196  1.0000
  N   N5        1.0  0.44715  0.03647  0.25380  1.0000
  N   N6        1.0  0.55685  0.96627  0.25375  1.0000
  H   H10       1.0  0.43468  0.00547  0.22223  1.0000
  H   H11       1.0  0.43206  0.05586  0.23760  1.0000
  H   H12       1.0  0.57172  0.94672  0.23722  1.0000
  H   H13       1.0  0.56916  0.99718  0.22197  1.0000
  C   C19       1.0  0.35658  0.49165  0.32471  1.0000
  C   C20       1.0  0.32958  0.48816  0.24675  1.0000
  N   N7        1.0  0.28376  0.48232  0.25332  1.0000
  C   C21       1.0  0.26128  0.47902  0.33287  1.0000
  C   C22       1.0  0.21650  0.47919  0.33883  1.0000
  H   H14       1.0  0.34551  0.49408  0.18502  1.0000
  N   N8        1.0  0.19218  0.48068  0.26493  1.0000
  C   C23       1.0  0.15210  0.48631  0.26889  1.0000
  H   H15       1.0  0.13804  0.49061  0.21012  1.0000
  C   C24       1.0  0.51164  0.86559  0.32450  1.0000
  C   C25       1.0  0.51520  0.84214  0.24654  1.0000
  N   N9        1.0  0.52092  0.80209  0.25320  1.0000
  C   C26       1.0  0.52417  0.78290  0.33278  1.0000
  C   C27       1.0  0.52402  0.73796  0.33878  1.0000
  H   H16       1.0  0.50910  0.85201  0.18483  1.0000
  N   N10       1.0  0.52253  0.71214  0.26492  1.0000
  C   C28       1.0  0.51688  0.66643  0.26898  1.0000
  H   H17       1.0  0.51275  0.64808  0.21024  1.0000
  C   C29       1.0  0.13775  0.64674  0.32425  1.0000
  C   C30       1.0  0.16134  0.67381  0.24640  1.0000
  N   N11       1.0  0.20135  0.71959  0.25312  1.0000
  C   C31       1.0  0.22050  0.74199  0.33273  1.0000
  C   C32       1.0  0.26544  0.78677  0.33886  1.0000
  H   H18       1.0  0.15138  0.65789  0.18467  1.0000
  N   N12       1.0  0.29128  0.81117  0.26505  1.0000
  C   C33       1.0  0.33694  0.85132  0.26914  1.0000
  H   H19       1.0  0.35535  0.86544  0.21042  1.0000
  C   C34       1.0  0.64741  0.51097  0.32418  1.0000
  C   C35       1.0  0.67447  0.51441  0.24635  1.0000
  N   N13       1.0  0.72027  0.52022  0.25305  1.0000
  C   C36       1.0  0.74269  0.52349  0.33265  1.0000
  C   C37       1.0  0.78749  0.52337  0.33875  1.0000
  H   H20       1.0  0.65859  0.50853  0.18459  1.0000
  N   N14       1.0  0.81189  0.52192  0.26493  1.0000
  C   C38       1.0  0.85200  0.51635  0.26904  1.0000
  H   H21       1.0  0.86612  0.51207  0.21032  1.0000
  C   C39       1.0  0.49231  0.13708  0.32462  1.0000
  C   C40       1.0  0.48883  0.16061  0.24668  1.0000
  N   N15       1.0  0.48297  0.20058  0.25330  1.0000
  C   C41       1.0  0.47967  0.21974  0.33286  1.0000
  C   C42       1.0  0.47984  0.26469  0.33886  1.0000
  H   H22       1.0  0.49475  0.15062  0.18494  1.0000
  N   N16       1.0  0.48133  0.29051  0.26500  1.0000
  C   C43       1.0  0.48696  0.33622  0.26904  1.0000
  H   H23       1.0  0.49124  0.35457  0.21026  1.0000
  C   C44       1.0  0.86627  0.35594  0.32470  1.0000
  C   C45       1.0  0.84280  0.32892  0.24671  1.0000
  N   N17       1.0  0.80276  0.28315  0.25330  1.0000
  C   C46       1.0  0.78355  0.26068  0.33283  1.0000
  C   C47       1.0  0.73861  0.21590  0.33877  1.0000
  H   H24       1.0  0.85269  0.34491  0.18502  1.0000
  N   N18       1.0  0.71280  0.19160  0.26485  1.0000
  C   C48       1.0  0.66708  0.15155  0.26882  1.0000
  H   H25       1.0  0.64873  0.13735  0.21007  1.0000
  C   C49       1.0  0.94858  0.51043  0.34705  1.0000
  C   C50       1.0  0.89698  0.48529  0.35242  1.0000
  C   C51       1.0  0.87154  0.43394  0.34438  1.0000
  H   H26       1.0  0.96650  0.54695  0.36299  1.0000
  H   H27       1.0  0.83398  0.41512  0.35198  1.0000
  C   C52       1.0  0.13253  0.56874  0.34394  1.0000
  C   C53       1.0  0.10710  0.51740  0.35208  1.0000
  C   C54       1.0  0.05548  0.49226  0.34702  1.0000
  H   H28       1.0  0.17009  0.58757  0.35151  1.0000
  C   C55       1.0  0.49293  0.43882  0.34713  1.0000
  C   C56       1.0  0.51807  0.41235  0.35220  1.0000
  C   C57       1.0  0.56940  0.43821  0.34392  1.0000
  H   H29       1.0  0.45642  0.42023  0.36323  1.0000
  H   H30       1.0  0.58821  0.41947  0.35148  1.0000
  C   C58       1.0  0.43457  0.56441  0.34423  1.0000
  C   C59       1.0  0.48592  0.59033  0.35216  1.0000
  C   C60       1.0  0.51109  0.56389  0.34700  1.0000
  H   H31       1.0  0.41574  0.58314  0.35190  1.0000
  H   H32       1.0  0.54762  0.58252  0.36294  1.0000
  C   C61       1.0  0.56455  0.05483  0.34695  1.0000
  C   C62       1.0  0.59101  0.10644  0.35200  1.0000
  C   C63       1.0  0.56509  0.13187  0.34408  1.0000
  H   H33       1.0  0.58319  0.03694  0.36286  1.0000
  H   H34       1.0  0.58382  0.16943  0.35168  1.0000
  C   C64       1.0  0.43889  0.87085  0.34410  1.0000
  C   C65       1.0  0.41300  0.89631  0.35211  1.0000
  C   C66       1.0  0.43947  0.94792  0.34704  1.0000
  H   H35       1.0  0.42014  0.83330  0.35172  1.0000
  H   H36       1.0  0.42088  0.96584  0.36310  1.0000
  C   C67       1.0  0.28635  0.48139  0.41309  1.0000
  C   C68       1.0  0.33350  0.48666  0.40845  1.0000
  H   H37       1.0  0.35308  0.49257  0.46637  1.0000
  C   C69       1.0  0.13497  0.49321  0.35211  1.0000
  C   C70       1.0  0.15863  0.49068  0.43059  1.0000
  C   C71       1.0  0.19928  0.48329  0.42435  1.0000
  N   N19       1.0  0.22547  0.48483  0.49772  1.0000
  N   N20       1.0  0.26654  0.48373  0.49240  1.0000
  H   H38       1.0  0.14948  0.49887  0.49131  1.0000
  C   C72       1.0  0.52184  0.80564  0.41297  1.0000
  C   C73       1.0  0.51655  0.84749  0.40830  1.0000
  H   H39       1.0  0.51077  0.86132  0.46617  1.0000
  C   C74       1.0  0.51008  0.64238  0.35218  1.0000
  C   C75       1.0  0.51252  0.66863  0.43054  1.0000
  C   C76       1.0  0.51995  0.71668  0.42432  1.0000
  N   N21       1.0  0.51845  0.74137  0.49768  1.0000
  N   N22       1.0  0.51955  0.78354  0.49232  1.0000
  H   H40       1.0  0.50450  0.65134  0.49131  1.0000
  C   C77       1.0  0.19776  0.71686  0.41287  1.0000
  C   C78       1.0  0.15592  0.66972  0.40809  1.0000
  H   H41       1.0  0.14206  0.65011  0.46595  1.0000
  C   C79       1.0  0.36094  0.86847  0.35242  1.0000
  C   C80       1.0  0.33471  0.84459  0.43075  1.0000
  C   C81       1.0  0.28668  0.80396  0.42442  1.0000
  N   N23       1.0  0.26198  0.77770  0.49772  1.0000
  N   N24       1.0  0.21983  0.73662  0.49227  1.0000
  H   H42       1.0  0.35201  0.85382  0.49150  1.0000
  C   C82       1.0  0.71754  0.52107  0.41279  1.0000
  C   C83       1.0  0.67038  0.51573  0.40801  1.0000
  H   H43       1.0  0.65083  0.51006  0.46592  1.0000
  C   C84       1.0  0.86908  0.50945  0.35232  1.0000
  C   C85       1.0  0.84533  0.51194  0.43072  1.0000
  C   C86       1.0  0.80465  0.51927  0.42432  1.0000
  N   N25       1.0  0.77840  0.51772  0.49763  1.0000
  N   N26       1.0  0.73731  0.51877  0.49218  1.0000
  H   H44       1.0  0.85445  0.50377  0.49149  1.0000
  C   C87       1.0  0.48205  0.19703  0.41306  1.0000
  C   C88       1.0  0.48733  0.15516  0.40838  1.0000
  H   H45       1.0  0.49324  0.14147  0.46628  1.0000
  C   C89       1.0  0.49387  0.36030  0.35222  1.0000
  C   C90       1.0  0.49135  0.33403  0.43063  1.0000
  C   C91       1.0  0.48395  0.28599  0.42439  1.0000
  N   N27       1.0  0.48550  0.26133  0.49775  1.0000
  N   N28       1.0  0.48440  0.21917  0.49239  1.0000
  H   H46       1.0  0.49954  0.35135  0.49137  1.0000
  C   C92       1.0  0.80628  0.28571  0.41306  1.0000
  C   C93       1.0  0.84813  0.33286  0.40843  1.0000
  H   H47       1.0  0.86194  0.35243  0.46633  1.0000
  C   C94       1.0  0.64307  0.13433  0.35204  1.0000
  C   C95       1.0  0.66926  0.15803  0.43050  1.0000
  C   C96       1.0  0.71731  0.19865  0.42430  1.0000
  N   N29       1.0  0.74199  0.22481  0.49769  1.0000
  N   N30       1.0  0.78416  0.26587  0.49238  1.0000
  H   H48       1.0  0.65194  0.14873  0.49125  1.0000
