data_image0
_chemical_formula_structural       C3NC3NC5NC5NC20H18C4H4C5H3COH3NC5H3COH3NC8H8C4H2C3HCOH3NC4H2C3HCOH3N
_chemical_formula_sum              "C76 N8 H54 O4"
_cell_length_a       29.7316
_cell_length_b       29.7315
_cell_length_c       14.9571
_cell_angle_alpha    90
_cell_angle_beta     90
_cell_angle_gamma    90.0329

_space_group_name_H-M_alt    "P 1"
_space_group_IT_number       1

loop_
  _space_group_symop_operation_xyz
  'x, y, z'

loop_
  _atom_site_type_symbol
  _atom_site_label
  _atom_site_symmetry_multiplicity
  _atom_site_fract_x
  _atom_site_fract_y
  _atom_site_fract_z
  _atom_site_occupancy
  C   C1        1.0  0.92033  0.88010  0.31392  1.0000
  C   C2        1.0  0.88633  0.91169  0.31502  1.0000
  C   C3        1.0  0.90590  0.95442  0.31814  1.0000
  N   N1        1.0  0.95092  0.94707  0.32009  1.0000
  C   C4        1.0  0.96153  0.90272  0.31701  1.0000
  C   C5        1.0  0.00447  0.88155  0.31566  1.0000
  C   C6        1.0  0.04626  0.90481  0.31577  1.0000
  N   N2        1.0  0.05331  0.94973  0.31688  1.0000
  C   C7        1.0  0.09760  0.96010  0.31596  1.0000
  C   C8        1.0  0.12047  0.91909  0.31384  1.0000
  C   C9        1.0  0.08889  0.88507  0.31453  1.0000
  C   C10       1.0  0.11766  0.00348  0.31623  1.0000
  C   C11       1.0  0.09331  0.04474  0.31796  1.0000
  N   N3        1.0  0.04827  0.05202  0.31917  1.0000
  C   C12       1.0  0.03761  0.09639  0.31908  1.0000
  C   C13       1.0  0.07878  0.11909  0.31872  1.0000
  C   C14       1.0  0.11280  0.08754  0.31882  1.0000
  C   C15       1.0  0.99466  0.11753  0.31828  1.0000
  C   C16       1.0  0.95288  0.09432  0.31929  1.0000
  N   N4        1.0  0.94586  0.04940  0.32105  1.0000
  C   C17       1.0  0.90158  0.03907  0.31977  1.0000
  C   C18       1.0  0.87870  0.08008  0.31759  1.0000
  C   C19       1.0  0.91029  0.11411  0.31769  1.0000
  C   C20       1.0  0.88160  0.99567  0.31833  1.0000
  C   C21       1.0  0.83383  0.99352  0.31027  1.0000
  C   C22       1.0  0.73823  0.99049  0.29113  1.0000
  C   C23       1.0  0.76700  0.98526  0.21628  1.0000
  C   C24       1.0  0.81403  0.98687  0.22552  1.0000
  C   C25       1.0  0.99323  0.16533  0.31021  1.0000
  C   C26       1.0  0.99078  0.26097  0.29093  1.0000
  C   C27       1.0  0.98525  0.23218  0.21618  1.0000
  C   C28       1.0  0.98656  0.18514  0.22549  1.0000
  C   C29       1.0  0.16563  0.00575  0.31362  1.0000
  C   C30       1.0  0.18812  0.01739  0.23365  1.0000
  C   C31       1.0  0.23527  0.02165  0.23192  1.0000
  C   C32       1.0  0.26114  0.01343  0.30956  1.0000
  C   C33       1.0  0.00588  0.83356  0.31260  1.0000
  C   C34       1.0  0.01638  0.81102  0.23208  1.0000
  C   C35       1.0  0.01242  0.73800  0.30800  1.0000
  C   C36       1.0  0.02004  0.76384  0.23006  1.0000
  H   H1        1.0  0.02865  0.74856  0.17114  1.0000
  H   H2        1.0  0.02245  0.82890  0.17485  1.0000
  H   H3        1.0  0.91516  0.84617  0.31041  1.0000
  H   H4        1.0  0.85284  0.90407  0.31289  1.0000
  H   H5        1.0  0.97287  0.97070  0.32282  1.0000
  H   H6        1.0  0.02632  0.02836  0.31800  1.0000
  H   H7        1.0  0.09641  0.85155  0.31362  1.0000
  H   H8        1.0  0.15446  0.91413  0.31225  1.0000
  H   H9        1.0  0.17023  0.02384  0.17662  1.0000
  H   H10       1.0  0.25050  0.03103  0.17341  1.0000
  H   H11       1.0  0.14628  0.09529  0.31874  1.0000
  H   H12       1.0  0.08392  0.15307  0.31845  1.0000
  H   H13       1.0  0.84472  0.08502  0.31527  1.0000
  H   H14       1.0  0.90286  0.14764  0.31578  1.0000
  H   H15       1.0  0.98263  0.16544  0.16990  1.0000
  H   H16       1.0  0.98042  0.24518  0.15352  1.0000
  H   H17       1.0  0.83374  0.98327  0.16985  1.0000
  H   H18       1.0  0.75399  0.98052  0.15360  1.0000
  C   C37       1.0  0.98995  0.30745  0.27821  1.0000
  C   C38       1.0  0.30718  0.02021  0.30795  1.0000
  C   C39       1.0  0.01881  0.69189  0.30605  1.0000
  C   C40       1.0  0.69175  0.98948  0.27851  1.0000
  H   H19       1.0  0.98436  0.31907  0.21679  1.0000
  H   H20       1.0  0.31897  0.04795  0.27880  1.0000
  H   H21       1.0  0.04584  0.67990  0.27472  1.0000
  H   H22       1.0  0.68009  0.98339  0.21729  1.0000
  C   C41       1.0  0.01330  0.40592  0.26573  1.0000
  C   C42       1.0  0.01437  0.45356  0.26583  1.0000
  C   C43       1.0  0.96145  0.54707  0.30322  1.0000
  C   C44       1.0  0.95921  0.59427  0.30190  1.0000
  C   C45       1.0  0.99287  0.62006  0.34364  1.0000
  H   H23       1.0  0.93698  0.52915  0.27073  1.0000
  H   H24       1.0  0.93337  0.60969  0.26875  1.0000
  H   H25       1.0  0.02550  0.38896  0.21136  1.0000
  C   C46       1.0  0.03293  0.47627  0.18493  1.0000
  O   O1        1.0  0.00354  0.46833  0.11076  1.0000
  H   H26       1.0  0.03677  0.51250  0.19411  1.0000
  H   H27       1.0  0.06635  0.46265  0.17061  1.0000
  H   H28       1.0  0.01696  0.48271  0.05783  1.0000
  N   N5        1.0  0.99022  0.66465  0.34123  1.0000
  C   C47       1.0  0.59352  0.01361  0.26569  1.0000
  C   C48       1.0  0.54589  0.01485  0.26561  1.0000
  C   C49       1.0  0.45214  0.96216  0.30285  1.0000
  C   C50       1.0  0.40494  0.96000  0.30150  1.0000
  C   C51       1.0  0.37922  0.99376  0.34303  1.0000
  H   H29       1.0  0.46999  0.93761  0.27052  1.0000
  H   H30       1.0  0.38946  0.93414  0.26845  1.0000
  H   H31       1.0  0.61060  0.02575  0.21138  1.0000
  C   C52       1.0  0.52334  0.03350  0.18463  1.0000
  O   O2        1.0  0.53133  0.00417  0.11041  1.0000
  H   H32       1.0  0.48711  0.03738  0.19361  1.0000
  H   H33       1.0  0.53707  0.06692  0.17051  1.0000
  H   H34       1.0  0.51706  0.01766  0.05742  1.0000
  N   N6        1.0  0.33462  0.99106  0.34052  1.0000
  C   C53       1.0  0.80559  0.99862  0.38551  1.0000
  C   C54       1.0  0.75845  0.99718  0.37598  1.0000
  C   C55       1.0  0.99863  0.19359  0.38537  1.0000
  C   C56       1.0  0.99752  0.24073  0.37576  1.0000
  C   C57       1.0  0.23862  0.00112  0.38923  1.0000
  C   C58       1.0  0.19140  0.99752  0.39133  1.0000
  C   C59       1.0  0.99813  0.80784  0.39056  1.0000
  C   C60       1.0  0.00117  0.76059  0.38820  1.0000
  H   H35       1.0  0.99638  0.74295  0.44619  1.0000
  H   H36       1.0  0.99089  0.82339  0.44988  1.0000
  H   H37       1.0  0.17589  0.98940  0.45025  1.0000
  H   H38       1.0  0.25629  0.99581  0.44701  1.0000
  H   H39       1.0  0.00361  0.18000  0.44745  1.0000
  H   H40       1.0  0.00178  0.26011  0.43163  1.0000
  H   H41       1.0  0.73908  0.00125  0.43191  1.0000
  H   H42       1.0  0.81917  0.00366  0.44757  1.0000
  C   C61       1.0  0.99663  0.38105  0.33924  1.0000
  C   C62       1.0  0.99824  0.47688  0.34266  1.0000
  C   C63       1.0  0.98208  0.45201  0.41660  1.0000
  C   C64       1.0  0.98176  0.40472  0.41521  1.0000
  H   H43       1.0  0.97033  0.46817  0.47234  1.0000
  H   H44       1.0  0.96986  0.38765  0.46972  1.0000
  C   C65       1.0  0.99699  0.52469  0.34760  1.0000
  C   C66       1.0  0.02795  0.59787  0.38948  1.0000
  C   C67       1.0  0.03092  0.55027  0.39193  1.0000
  H   H45       1.0  0.05150  0.61710  0.42140  1.0000
  C   C68       1.0  0.06867  0.52751  0.44017  1.0000
  O   O3        1.0  0.10241  0.55604  0.47867  1.0000
  H   H46       1.0  0.08528  0.50374  0.39514  1.0000
  H   H47       1.0  0.05432  0.50829  0.49540  1.0000
  H   H48       1.0  0.12001  0.56943  0.42966  1.0000
  N   N7        1.0  0.99579  0.33619  0.34161  1.0000
  C   C69       1.0  0.61823  0.99684  0.33926  1.0000
  C   C70       1.0  0.52243  0.99881  0.34236  1.0000
  C   C71       1.0  0.54715  0.98257  0.41641  1.0000
  C   C72       1.0  0.59444  0.98209  0.41520  1.0000
  H   H49       1.0  0.53088  0.97089  0.47211  1.0000
  H   H50       1.0  0.61141  0.97015  0.46978  1.0000
  C   C73       1.0  0.47461  0.99770  0.34711  1.0000
  C   C74       1.0  0.40152  0.02884  0.38876  1.0000
  C   C75       1.0  0.44913  0.03171  0.39129  1.0000
  H   H51       1.0  0.38236  0.05244  0.42066  1.0000
  C   C76       1.0  0.47199  0.06944  0.43950  1.0000
  O   O4        1.0  0.44356  0.10326  0.47786  1.0000
  H   H52       1.0  0.49584  0.08596  0.39447  1.0000
  H   H53       1.0  0.49114  0.05507  0.49479  1.0000
  H   H54       1.0  0.43025  0.12086  0.42878  1.0000
  N   N8        1.0  0.66307  0.99594  0.34175  1.0000
