data_image0
_chemical_formula_structural       C2NC2O2HC2NC2O2HC2NC2O2HNCHNCHNCHC2NC2O2HC2NC2O2HC2NC2O2HC2NC2O2HC2NC2O2HC2NC2O2HNCHNCHNCHNCHNCHNCHC2NC2O2HC2NC2O2HC2NC2O2HC2NC2O2HC2NC2O2HC2NC2O2HC6H3C6H3C6H3C6H3C6H3C6H3C6H3C6H3C6H3C6H3C6H3C6H3C6H3C6H3C6H3C6H3NCHNCHNCHC2NC2O2HC2NC2O2HC2NC2O2HNCHNCHNCHNCHNCHNCHC2NC2O2HC2NC2O2HC2NC2O2HC2NC2O2HC2NC2O2HC2NC2O2HNCHNCHNCHNCHNCHNCH
_chemical_formula_sum              "C216 N48 O48 H96"
_cell_length_a       41.8987
_cell_length_b       41.8988
_cell_length_c       14.8615
_cell_angle_alpha    90
_cell_angle_beta     90
_cell_angle_gamma    120

_space_group_name_H-M_alt    "P 1"
_space_group_IT_number       1

loop_
  _space_group_symop_operation_xyz
  'x, y, z'

loop_
  _atom_site_type_symbol
  _atom_site_label
  _atom_site_symmetry_multiplicity
  _atom_site_fract_x
  _atom_site_fract_y
  _atom_site_fract_z
  _atom_site_occupancy
  C   C1        1.0  0.00371  0.07246  0.33637  1.0000
  C   C2        1.0  0.00695  0.14296  0.34319  1.0000
  N   N1        1.0  0.98020  0.11300  0.29864  1.0000
  C   C3        1.0  0.97698  0.07883  0.29286  1.0000
  C   C4        1.0  0.94937  0.05337  0.23736  1.0000
  O   O1        1.0  0.91868  0.04985  0.24364  1.0000
  O   O2        1.0  0.95655  0.04474  0.16370  1.0000
  H   H1        1.0  0.97848  0.04842  0.14733  1.0000
  C   C5        1.0  0.93886  0.93336  0.33615  1.0000
  C   C6        1.0  0.86851  0.86604  0.34345  1.0000
  N   N2        1.0  0.89824  0.86947  0.29735  1.0000
  C   C7        1.0  0.93235  0.90049  0.29104  1.0000
  C   C8        1.0  0.95747  0.89865  0.23440  1.0000
  O   O3        1.0  0.95971  0.87057  0.23406  1.0000
  O   O4        1.0  0.96657  0.91819  0.16626  1.0000
  H   H2        1.0  0.98079  0.91752  0.12303  1.0000
  C   C9        1.0  0.07791  0.00755  0.33552  1.0000
  C   C10       1.0  0.14519  0.00439  0.34226  1.0000
  N   N3        1.0  0.14179  0.03081  0.29664  1.0000
  C   C11       1.0  0.11081  0.03399  0.29066  1.0000
  C   C12       1.0  0.11264  0.06107  0.23442  1.0000
  O   O5        1.0  0.14077  0.09135  0.23524  1.0000
  O   O6        1.0  0.09340  0.05085  0.16584  1.0000
  H   H3        1.0  0.09424  0.06591  0.12287  1.0000
  N   N4        1.0  0.10157  0.29284  0.31021  1.0000
  C   C13       1.0  0.13096  0.32776  0.30446  1.0000
  H   H4        1.0  0.15036  0.33357  0.25591  1.0000
  N   N5        1.0  0.71877  0.81088  0.31101  1.0000
  C   C14       1.0  0.68387  0.80539  0.30520  1.0000
  H   H5        1.0  0.67811  0.81905  0.25675  1.0000
  N   N6        1.0  0.20059  0.90980  0.30908  1.0000
  C   C15       1.0  0.20627  0.88051  0.30335  1.0000
  H   H6        1.0  0.19267  0.86103  0.25497  1.0000
  C   C16       1.0  0.28412  0.07119  0.31807  1.0000
  C   C17       1.0  0.35823  0.12952  0.33184  1.0000
  N   N7        1.0  0.34736  0.10171  0.27109  1.0000
  C   C18       1.0  0.31221  0.07332  0.25984  1.0000
  C   C19       1.0  0.30597  0.04775  0.19262  1.0000
  O   O7        1.0  0.32970  0.03968  0.17666  1.0000
  O   O8        1.0  0.28347  0.04086  0.13134  1.0000
  H   H7        1.0  0.26676  0.04791  0.13010  1.0000
  C   C20       1.0  0.79635  0.72710  0.31944  1.0000
  C   C21       1.0  0.78028  0.65286  0.33304  1.0000
  N   N8        1.0  0.76349  0.66387  0.27224  1.0000
  C   C22       1.0  0.77038  0.69907  0.26111  1.0000
  C   C23       1.0  0.75114  0.70543  0.19387  1.0000
  O   O9        1.0  0.71932  0.68178  0.17777  1.0000
  O   O10       1.0  0.76682  0.72798  0.13274  1.0000
  H   H8        1.0  0.79059  0.74464  0.13161  1.0000
  C   C24       1.0  0.94016  0.21515  0.31918  1.0000
  C   C25       1.0  0.88187  0.23103  0.33262  1.0000
  N   N9        1.0  0.90971  0.24793  0.27198  1.0000
  C   C26       1.0  0.93809  0.24113  0.26090  1.0000
  C   C27       1.0  0.96367  0.26046  0.19367  1.0000
  O   O11       1.0  0.97217  0.29245  0.17880  1.0000
  O   O12       1.0  0.97068  0.24485  0.13264  1.0000
  H   H9        1.0  0.96341  0.22105  0.13114  1.0000
  C   C28       1.0  0.26200  0.45879  0.32332  1.0000
  C   C29       1.0  0.33852  0.49720  0.34496  1.0000
  N   N10       1.0  0.32228  0.50374  0.27393  1.0000
  C   C30       1.0  0.28521  0.48616  0.25987  1.0000
  C   C31       1.0  0.27231  0.49533  0.18395  1.0000
  O   O13       1.0  0.28999  0.52652  0.15273  1.0000
  O   O14       1.0  0.25007  0.46996  0.13529  1.0000
  H   H10       1.0  0.24172  0.47321  0.08333  1.0000
  C   C32       1.0  0.55293  0.80561  0.32417  1.0000
  C   C33       1.0  0.51491  0.84416  0.34550  1.0000
  N   N11       1.0  0.50797  0.82103  0.27507  1.0000
  C   C34       1.0  0.52536  0.80134  0.26116  1.0000
  C   C35       1.0  0.51587  0.77897  0.18570  1.0000
  O   O15       1.0  0.48447  0.76537  0.15570  1.0000
  O   O16       1.0  0.54097  0.78205  0.13618  1.0000
  H   H11       1.0  0.53744  0.77028  0.08438  1.0000
  C   C36       1.0  0.20669  0.74958  0.32331  1.0000
  C   C37       1.0  0.16756  0.67297  0.34440  1.0000
  N   N12       1.0  0.19176  0.68911  0.27584  1.0000
  C   C38       1.0  0.21170  0.72617  0.26227  1.0000
  C   C39       1.0  0.23514  0.73894  0.18827  1.0000
  O   O17       1.0  0.25178  0.72308  0.16668  1.0000
  O   O18       1.0  0.23245  0.75820  0.12905  1.0000
  H   H12       1.0  0.21864  0.76867  0.13265  1.0000
  N   N13       1.0  0.45359  0.27455  0.29781  1.0000
  C   C40       1.0  0.47009  0.31137  0.28380  1.0000
  H   H13       1.0  0.46246  0.32092  0.22940  1.0000
  N   N14       1.0  0.83032  0.55798  0.29958  1.0000
  C   C41       1.0  0.85087  0.54171  0.28580  1.0000
  H   H14       1.0  0.86869  0.55002  0.23259  1.0000
  N   N15       1.0  0.73686  0.18176  0.29772  1.0000
  C   C42       1.0  0.70003  0.16160  0.28359  1.0000
  H   H15       1.0  0.69044  0.14452  0.22901  1.0000
  N   N16       1.0  0.17031  0.54483  0.29672  1.0000
  C   C43       1.0  0.17887  0.51780  0.28720  1.0000
  H   H16       1.0  0.19503  0.51907  0.23427  1.0000
  N   N17       1.0  0.46671  0.62788  0.29734  1.0000
  C   C44       1.0  0.49372  0.66348  0.28810  1.0000
  H   H17       1.0  0.49237  0.67849  0.23553  1.0000
  N   N18       1.0  0.38429  0.84159  0.29800  1.0000
  C   C45       1.0  0.34869  0.83295  0.28849  1.0000
  H   H18       1.0  0.33376  0.81660  0.23585  1.0000
  C   C46       1.0  0.54770  0.14590  0.32239  1.0000
  C   C47       1.0  0.48965  0.16054  0.34418  1.0000
  N   N19       1.0  0.49108  0.14113  0.27275  1.0000
  C   C48       1.0  0.51835  0.13298  0.25854  1.0000
  C   C49       1.0  0.51647  0.11356  0.18137  1.0000
  O   O19       1.0  0.48618  0.09077  0.15177  1.0000
  O   O20       1.0  0.54365  0.12657  0.13126  1.0000
  H   H19       1.0  0.54428  0.11698  0.07862  1.0000
  C   C50       1.0  0.60686  0.46363  0.32245  1.0000
  C   C51       1.0  0.67953  0.52162  0.34438  1.0000
  N   N20       1.0  0.65880  0.52015  0.27268  1.0000
  C   C52       1.0  0.62337  0.49290  0.25841  1.0000
  C   C53       1.0  0.60583  0.49465  0.18106  1.0000
  O   O21       1.0  0.61370  0.52492  0.15068  1.0000
  O   O22       1.0  0.59306  0.46765  0.13034  1.0000
  H   H20       1.0  0.58319  0.46682  0.07705  1.0000
  C   C54       1.0  0.86558  0.40417  0.32252  1.0000
  C   C55       1.0  0.85099  0.33153  0.34449  1.0000
  N   N21       1.0  0.87025  0.35227  0.27282  1.0000
  C   C56       1.0  0.87837  0.38768  0.25850  1.0000
  C   C57       1.0  0.89768  0.40513  0.18117  1.0000
  O   O23       1.0  0.92036  0.39762  0.15087  1.0000
  O   O24       1.0  0.88483  0.41967  0.13169  1.0000
  H   H21       1.0  0.89437  0.42995  0.07906  1.0000
  C   C58       1.0  0.04562  0.56514  0.31682  1.0000
  C   C59       1.0  0.96941  0.52874  0.31864  1.0000
  N   N22       1.0  0.98810  0.52016  0.25782  1.0000
  C   C60       1.0  0.02528  0.53732  0.25212  1.0000
  C   C61       1.0  0.04084  0.52611  0.18540  1.0000
  O   O25       1.0  0.02547  0.49351  0.16479  1.0000
  O   O26       1.0  0.06220  0.54767  0.12830  1.0000
  H   H22       1.0  0.07272  0.57198  0.13062  1.0000
  C   C62       1.0  0.44590  0.48253  0.31621  1.0000
  C   C63       1.0  0.48220  0.44264  0.31768  1.0000
  N   N23       1.0  0.49075  0.46989  0.25685  1.0000
  C   C64       1.0  0.47361  0.48993  0.25126  1.0000
  C   C65       1.0  0.48481  0.51674  0.18468  1.0000
  O   O27       1.0  0.51728  0.53357  0.16273  1.0000
  O   O28       1.0  0.46324  0.51665  0.12774  1.0000
  H   H23       1.0  0.43891  0.50308  0.13048  1.0000
  C   C66       1.0  0.52944  0.96618  0.31651  1.0000
  C   C67       1.0  0.56897  0.04239  0.31830  1.0000
  N   N24       1.0  0.54182  0.02363  0.25729  1.0000
  C   C68       1.0  0.52194  0.98643  0.25160  1.0000
  C   C69       1.0  0.49522  0.97074  0.18483  1.0000
  O   O29       1.0  0.47830  0.98627  0.16267  1.0000
  O   O30       1.0  0.49548  0.94932  0.12797  1.0000
  H   H24       1.0  0.50912  0.93865  0.13086  1.0000
  C   C70       1.0  0.00492  0.03813  0.33699  1.0000
  C   C71       1.0  0.03919  0.03866  0.33782  1.0000
  C   C72       1.0  0.04239  0.00635  0.33651  1.0000
  C   C73       1.0  0.00866  0.97209  0.33776  1.0000
  C   C74       1.0  0.97317  0.96889  0.33687  1.0000
  C   C75       1.0  0.97263  0.00262  0.33828  1.0000
  H   H25       1.0  0.01012  0.94849  0.34020  1.0000
  H   H26       1.0  0.94757  0.00113  0.34128  1.0000
  H   H27       1.0  0.06279  0.06370  0.34033  1.0000
  C   C76       1.0  0.04051  0.24657  0.35806  1.0000
  C   C77       1.0  0.00663  0.24549  0.34455  1.0000
  C   C78       1.0  0.97298  0.21251  0.33031  1.0000
  C   C79       1.0  0.97380  0.17900  0.33219  1.0000
  C   C80       1.0  0.00710  0.17786  0.34394  1.0000
  C   C81       1.0  0.04018  0.21251  0.35525  1.0000
  H   H28       1.0  0.94945  0.15489  0.32379  1.0000
  H   H29       1.0  0.06479  0.21323  0.36220  1.0000
  H   H30       1.0  0.00648  0.26986  0.34481  1.0000
  C   C82       1.0  0.76496  0.79602  0.35878  1.0000
  C   C83       1.0  0.76603  0.76321  0.34524  1.0000
  C   C84       1.0  0.79901  0.76254  0.33087  1.0000
  C   C85       1.0  0.83252  0.79687  0.33252  1.0000
  C   C86       1.0  0.83364  0.83129  0.34440  1.0000
  C   C87       1.0  0.79902  0.82974  0.35595  1.0000
  H   H31       1.0  0.85663  0.79665  0.32390  1.0000
  H   H32       1.0  0.79833  0.85365  0.36297  1.0000
  H   H33       1.0  0.74165  0.73869  0.34549  1.0000
  C   C88       1.0  0.21522  0.97083  0.35703  1.0000
  C   C89       1.0  0.24801  0.00472  0.34344  1.0000
  C   C90       1.0  0.24867  0.03837  0.32923  1.0000
  C   C91       1.0  0.21434  0.03753  0.33111  1.0000
  C   C92       1.0  0.17992  0.00424  0.34296  1.0000
  C   C93       1.0  0.18149  0.97116  0.35432  1.0000
  H   H34       1.0  0.21456  0.06188  0.32270  1.0000
  H   H35       1.0  0.15759  0.94655  0.36135  1.0000
  H   H36       1.0  0.27254  0.00488  0.34366  1.0000
  C   C94       1.0  0.17383  0.45978  0.34556  1.0000
  C   C95       1.0  0.21124  0.47054  0.33477  1.0000
  C   C96       1.0  0.22336  0.44471  0.32963  1.0000
  C   C97       1.0  0.19699  0.40677  0.33822  1.0000
  C   C98       1.0  0.15895  0.39450  0.35087  1.0000
  C   C99       1.0  0.14815  0.42172  0.35609  1.0000
  H   H37       1.0  0.20579  0.38797  0.33642  1.0000
  H   H38       1.0  0.12088  0.41370  0.36384  1.0000
  H   H39       1.0  0.23040  0.49812  0.33342  1.0000
  C   C100      1.0  0.55181  0.71639  0.34650  1.0000
  C   C101      1.0  0.54110  0.74308  0.33589  1.0000
  C   C102      1.0  0.56695  0.78101  0.33051  1.0000
  C   C103      1.0  0.60489  0.79253  0.33901  1.0000
  C   C104      1.0  0.61712  0.76673  0.35165  1.0000
  C   C105      1.0  0.58986  0.72872  0.35687  1.0000
  H   H40       1.0  0.62372  0.82012  0.33710  1.0000
  H   H41       1.0  0.59786  0.70944  0.36451  1.0000
  H   H42       1.0  0.51352  0.73468  0.33468  1.0000
  C   C106      1.0  0.29567  0.83800  0.34638  1.0000
  C   C107      1.0  0.26912  0.80053  0.33602  1.0000
  C   C108      1.0  0.23117  0.78825  0.32982  1.0000
  C   C109      1.0  0.21947  0.81456  0.33760  1.0000
  C   C110      1.0  0.24509  0.85263  0.35038  1.0000
  C   C111      1.0  0.28314  0.86359  0.35610  1.0000
  H   H43       1.0  0.19186  0.80569  0.33519  1.0000
  H   H44       1.0  0.30231  0.89090  0.36368  1.0000
  H   H45       1.0  0.27767  0.78147  0.33566  1.0000
  C   C112      1.0  0.46183  0.17052  0.34827  1.0000
  C   C113      1.0  0.47290  0.20795  0.36036  1.0000
  C   C114      1.0  0.44731  0.22041  0.36436  1.0000
  C   C115      1.0  0.40933  0.19428  0.35442  1.0000
  C   C116      1.0  0.39675  0.15622  0.34107  1.0000
  C   C117      1.0  0.42377  0.14515  0.33624  1.0000
  H   H46       1.0  0.39070  0.20331  0.35521  1.0000
  H   H47       1.0  0.41558  0.11789  0.32718  1.0000
  H   H48       1.0  0.50053  0.22689  0.36224  1.0000
  C   C118      1.0  0.71736  0.54932  0.34852  1.0000
  C   C119      1.0  0.74359  0.53807  0.36020  1.0000
  C   C120      1.0  0.78167  0.56349  0.36477  1.0000
  C   C121      1.0  0.79367  0.60153  0.35532  1.0000
  C   C122      1.0  0.76834  0.61431  0.34205  1.0000
  C   C123      1.0  0.73021  0.58743  0.33693  1.0000
  H   H49       1.0  0.82135  0.62008  0.35636  1.0000
  H   H50       1.0  0.71123  0.59575  0.32815  1.0000
  H   H51       1.0  0.73474  0.51039  0.36144  1.0000
  C   C124      1.0  0.84098  0.29372  0.34876  1.0000
  C   C125      1.0  0.80354  0.26741  0.36076  1.0000
  C   C126      1.0  0.79101  0.22935  0.36479  1.0000
  C   C127      1.0  0.81710  0.21744  0.35496  1.0000
  C   C128      1.0  0.85518  0.24287  0.34167  1.0000
  C   C129      1.0  0.86631  0.28098  0.33672  1.0000
  H   H52       1.0  0.80802  0.18977  0.35570  1.0000
  H   H53       1.0  0.89358  0.30002  0.32780  1.0000
  H   H54       1.0  0.78463  0.27615  0.36267  1.0000
  C   C130      1.0  0.08367  0.58044  0.33079  1.0000
  C   C131      1.0  0.09850  0.55715  0.34345  1.0000
  C   C132      1.0  0.13659  0.57148  0.35619  1.0000
  C   C133      1.0  0.16016  0.61025  0.35339  1.0000
  C   C134      1.0  0.14538  0.63415  0.34644  1.0000
  C   C135      1.0  0.10700  0.61882  0.33574  1.0000
  H   H55       1.0  0.18799  0.62113  0.36063  1.0000
  H   H56       1.0  0.09607  0.63570  0.32663  1.0000
  H   H57       1.0  0.08117  0.52914  0.34241  1.0000
  C   C136      1.0  0.43078  0.50541  0.33071  1.0000
  C   C137      1.0  0.45423  0.54351  0.34346  1.0000
  C   C138      1.0  0.44007  0.56740  0.35658  1.0000
  C   C139      1.0  0.40131  0.55236  0.35403  1.0000
  C   C140      1.0  0.37730  0.51371  0.34693  1.0000
  C   C141      1.0  0.39243  0.49052  0.33585  1.0000
  H   H58       1.0  0.39055  0.56941  0.36132  1.0000
  H   H59       1.0  0.37543  0.46273  0.32680  1.0000
  H   H60       1.0  0.48221  0.55407  0.34214  1.0000
  C   C142      1.0  0.50662  0.92818  0.33110  1.0000
  C   C143      1.0  0.46853  0.91351  0.34399  1.0000
  C   C144      1.0  0.44468  0.87547  0.35730  1.0000
  C   C145      1.0  0.45975  0.85178  0.35471  1.0000
  C   C146      1.0  0.49840  0.86643  0.34751  1.0000
  C   C147      1.0  0.52155  0.90476  0.33628  1.0000
  H   H61       1.0  0.44272  0.82397  0.36207  1.0000
  H   H62       1.0  0.54935  0.91558  0.32714  1.0000
  H   H63       1.0  0.45794  0.93091  0.34264  1.0000
  C   C148      1.0  0.58404  0.08070  0.32416  1.0000
  C   C149      1.0  0.56036  0.09543  0.32217  1.0000
  C   C150      1.0  0.57396  0.13373  0.32567  1.0000
  C   C151      1.0  0.61253  0.15744  0.33622  1.0000
  C   C152      1.0  0.63701  0.14319  0.33639  1.0000
  C   C153      1.0  0.62222  0.10469  0.33133  1.0000
  H   H64       1.0  0.62295  0.18532  0.33951  1.0000
  H   H65       1.0  0.63938  0.09383  0.33255  1.0000
  H   H66       1.0  0.53243  0.07771  0.31999  1.0000
  C   C154      1.0  0.50535  0.42746  0.32361  1.0000
  C   C155      1.0  0.54378  0.45109  0.32175  1.0000
  C   C156      1.0  0.56841  0.43742  0.32558  1.0000
  C   C157      1.0  0.55351  0.39886  0.33623  1.0000
  C   C158      1.0  0.51476  0.37443  0.33626  1.0000
  C   C159      1.0  0.49110  0.38928  0.33093  1.0000
  H   H67       1.0  0.57092  0.38840  0.33973  1.0000
  H   H68       1.0  0.46307  0.37215  0.33210  1.0000
  H   H69       1.0  0.55404  0.47902  0.31953  1.0000
  C   C160      1.0  0.93108  0.50563  0.32451  1.0000
  C   C161      1.0  0.91620  0.46719  0.32241  1.0000
  C   C162      1.0  0.87789  0.44263  0.32598  1.0000
  C   C163      1.0  0.85430  0.45761  0.33655  1.0000
  C   C164      1.0  0.86867  0.49636  0.33684  1.0000
  C   C165      1.0  0.90721  0.51995  0.33183  1.0000
  H   H70       1.0  0.82641  0.44022  0.33980  1.0000
  H   H71       1.0  0.91818  0.54798  0.33326  1.0000
  H   H72       1.0  0.93384  0.45688  0.32013  1.0000
  N   N25       1.0  0.03068  0.10260  0.38029  1.0000
  C   C166      1.0  0.03352  0.13648  0.38536  1.0000
  H   H73       1.0  0.05469  0.15655  0.42175  1.0000
  N   N26       1.0  0.90895  0.92999  0.38161  1.0000
  C   C167      1.0  0.87512  0.89890  0.38688  1.0000
  H   H74       1.0  0.85521  0.89978  0.42452  1.0000
  N   N27       1.0  0.08124  0.98089  0.38049  1.0000
  C   C168      1.0  0.11230  0.97808  0.38552  1.0000
  H   H75       1.0  0.11137  0.95717  0.42272  1.0000
  C   C169      1.0  0.07317  0.28208  0.36955  1.0000
  C   C170      1.0  0.13193  0.35605  0.35843  1.0000
  N   N28       1.0  0.10377  0.34513  0.41811  1.0000
  C   C171      1.0  0.07512  0.31004  0.42798  1.0000
  C   C172      1.0  0.04932  0.30374  0.49464  1.0000
  O   O31       1.0  0.04088  0.32729  0.50929  1.0000
  O   O32       1.0  0.04212  0.28109  0.55568  1.0000
  H   H76       1.0  0.04932  0.26450  0.55736  1.0000
  C   C173      1.0  0.72946  0.79318  0.37037  1.0000
  C   C174      1.0  0.65555  0.77808  0.35917  1.0000
  N   N29       1.0  0.66643  0.76081  0.41887  1.0000
  C   C175      1.0  0.70149  0.76719  0.42876  1.0000
  C   C176      1.0  0.70778  0.74767  0.49535  1.0000
  O   O33       1.0  0.68400  0.71586  0.51107  1.0000
  O   O34       1.0  0.73034  0.76310  0.55659  1.0000
  H   H77       1.0  0.74710  0.78684  0.55803  1.0000
  C   C177      1.0  0.21813  0.93820  0.36849  1.0000
  C   C178      1.0  0.23354  0.87958  0.35764  1.0000
  N   N30       1.0  0.25062  0.90772  0.41745  1.0000
  C   C179      1.0  0.24408  0.93630  0.42721  1.0000
  C   C180      1.0  0.26345  0.96210  0.49399  1.0000
  O   O35       1.0  0.29544  0.97060  0.50889  1.0000
  O   O36       1.0  0.24787  0.96922  0.55486  1.0000
  H   H78       1.0  0.22407  0.96196  0.55634  1.0000
  N   N31       1.0  0.29481  0.09922  0.37853  1.0000
  C   C181      1.0  0.32979  0.12844  0.38544  1.0000
  H   H79       1.0  0.33554  0.14753  0.43478  1.0000
  N   N32       1.0  0.81354  0.71626  0.38000  1.0000
  C   C182      1.0  0.80764  0.68122  0.38685  1.0000
  H   H80       1.0  0.82093  0.67539  0.43616  1.0000
  N   N33       1.0  0.91207  0.19782  0.37948  1.0000
  C   C183      1.0  0.88290  0.20367  0.38635  1.0000
  H   H81       1.0  0.86368  0.19022  0.43535  1.0000
  N   N34       1.0  0.27838  0.45181  0.39359  1.0000
  C   C184      1.0  0.31542  0.46897  0.40521  1.0000
  H   H82       1.0  0.32596  0.46203  0.45885  1.0000
  N   N35       1.0  0.56030  0.82936  0.39378  1.0000
  C   C185      1.0  0.54331  0.84941  0.40528  1.0000
  H   H83       1.0  0.55058  0.86718  0.45842  1.0000
  N   N36       1.0  0.18191  0.73323  0.39104  1.0000
  C   C186      1.0  0.16159  0.69620  0.40229  1.0000
  H   H84       1.0  0.14316  0.68575  0.45416  1.0000
  C   C187      1.0  0.46154  0.25914  0.36849  1.0000
  C   C188      1.0  0.49841  0.33560  0.34255  1.0000
  N   N37       1.0  0.50633  0.32031  0.41338  1.0000
  C   C189      1.0  0.48954  0.28337  0.42944  1.0000
  C   C190      1.0  0.50001  0.27158  0.50514  1.0000
  O   O37       1.0  0.53160  0.28989  0.53358  1.0000
  O   O38       1.0  0.47550  0.24961  0.55609  1.0000
  H   H85       1.0  0.47963  0.24193  0.60803  1.0000
  C   C191      1.0  0.80605  0.54908  0.36859  1.0000
  C   C192      1.0  0.84621  0.51276  0.34310  1.0000
  N   N38       1.0  0.82214  0.50394  0.41237  1.0000
  C   C193      1.0  0.80173  0.52046  0.42804  1.0000
  C   C194      1.0  0.77857  0.50904  0.50257  1.0000
  O   O39       1.0  0.76233  0.47639  0.52275  1.0000
  O   O40       1.0  0.78115  0.53045  0.56312  1.0000
  H   H86       1.0  0.79472  0.55478  0.56045  1.0000
  C   C195      1.0  0.75226  0.20493  0.36871  1.0000
  C   C196      1.0  0.67584  0.16569  0.34248  1.0000
  N   N39       1.0  0.69115  0.18868  0.41368  1.0000
  C   C197      1.0  0.72809  0.20869  0.42987  1.0000
  C   C198      1.0  0.73993  0.23078  0.50587  1.0000
  O   O41       1.0  0.72168  0.24407  0.53470  1.0000
  O   O42       1.0  0.76186  0.22807  0.55658  1.0000
  H   H87       1.0  0.76956  0.23975  0.60866  1.0000
  C   C199      1.0  0.14916  0.54576  0.36477  1.0000
  C   C200      1.0  0.16410  0.48781  0.34803  1.0000
  N   N40       1.0  0.14275  0.48866  0.41566  1.0000
  C   C201      1.0  0.13433  0.51590  0.42720  1.0000
  C   C202      1.0  0.11241  0.51339  0.49971  1.0000
  O   O43       1.0  0.08958  0.48293  0.52831  1.0000
  O   O44       1.0  0.12332  0.54058  0.54939  1.0000
  H   H88       1.0  0.11211  0.54093  0.59963  1.0000
  C   C203      1.0  0.46593  0.60567  0.36485  1.0000
  C   C204      1.0  0.52376  0.67861  0.34880  1.0000
  N   N41       1.0  0.52300  0.65631  0.41601  1.0000
  C   C205      1.0  0.49580  0.62059  0.42726  1.0000
  C   C206      1.0  0.49825  0.60097  0.49943  1.0000
  O   O45       1.0  0.52881  0.60879  0.52761  1.0000
  O   O46       1.0  0.47149  0.58637  0.55085  1.0000
  H   H89       1.0  0.47107  0.57509  0.60164  1.0000
  C   C207      1.0  0.40641  0.86302  0.36563  1.0000
  C   C208      1.0  0.33348  0.84787  0.34892  1.0000
  N   N42       1.0  0.35571  0.86948  0.41615  1.0000
  C   C209      1.0  0.39142  0.87803  0.42767  1.0000
  C   C210      1.0  0.41087  0.90019  0.49981  1.0000
  O   O47       1.0  0.40324  0.92311  0.52777  1.0000
  O   O48       1.0  0.42713  0.88941  0.54994  1.0000
  H   H90       1.0  0.43871  0.90078  0.60002  1.0000
  N   N43       1.0  0.54643  0.16559  0.39357  1.0000
  C   C211      1.0  0.51933  0.17394  0.40574  1.0000
  H   H91       1.0  0.52039  0.18907  0.46075  1.0000
  N   N44       1.0  0.62773  0.46494  0.39387  1.0000
  C   C212      1.0  0.66317  0.49200  0.40610  1.0000
  H   H92       1.0  0.67718  0.49100  0.46131  1.0000
  N   N45       1.0  0.84609  0.38330  0.39402  1.0000
  C   C213      1.0  0.83774  0.34787  0.40628  1.0000
  H   H93       1.0  0.82278  0.33387  0.46155  1.0000
  N   N46       1.0  0.02704  0.57416  0.37720  1.0000
  C   C214      1.0  0.98987  0.55781  0.37914  1.0000
  H   H94       1.0  0.97745  0.56469  0.42861  1.0000
  N   N47       1.0  0.43692  0.45494  0.37662  1.0000
  C   C215      1.0  0.45312  0.43398  0.37820  1.0000
  H   H95       1.0  0.44645  0.41487  0.42803  1.0000
  N   N48       1.0  0.55690  0.98486  0.37717  1.0000
  C   C216      1.0  0.57767  0.02204  0.37896  1.0000
  H   H96       1.0  0.59677  0.03450  0.42880  1.0000
