data_image0
_chemical_formula_structural       C15NOCHNHC3NOCHNHC3NOCHNHC3NOCHNHC3NOCHNHC3NOCHNHC3H2NHC3H2NHC3H2NHC3H2NHC3H2NHC3H2NHC2ONHC3NOCHNHC3NOCHNHCNCHNHC3NOCHNHC3NOCHNHC5H3C2O3C5H3C2O3C5H3C2O3C5H3C2O3C5H3C2O3C5H3C2O3C6H3C3O3C6H3C3O3C6H3C3O3C6H3C3O3C6H3C3O3C6H3C3O3C3H2NHC3H2NHC3H2NHC3H2NHC3H2NHC3H2NHC3NOCHNHC3NOCHNHC3NOCHNHC3NOCHNHC3NOCHNHC3NOCHNHCHNHC3H2NHC3H2NHC2HNHC3H2NHC3H2NHCNCHC2OC2HCH
_chemical_formula_sum              "C234 N54 O54 H126"
_cell_length_a       59.5053
_cell_length_b       59.5053
_cell_length_c       15.1621
_cell_angle_alpha    90
_cell_angle_beta     90
_cell_angle_gamma    120

_space_group_name_H-M_alt    "P 1"
_space_group_IT_number       1

loop_
  _space_group_symop_operation_xyz
  'x, y, z'

loop_
  _atom_site_type_symbol
  _atom_site_label
  _atom_site_symmetry_multiplicity
  _atom_site_fract_x
  _atom_site_fract_y
  _atom_site_fract_z
  _atom_site_occupancy
  C   C1        1.0  0.09463  0.43373  0.33005  1.0000
  C   C2        1.0  0.07163  0.40927  0.33715  1.0000
  C   C3        1.0  0.57165  0.67695  0.32990  1.0000
  C   C4        1.0  0.59613  0.67844  0.33692  1.0000
  C   C5        1.0  0.32834  0.91072  0.32974  1.0000
  C   C6        1.0  0.32682  0.93368  0.33673  1.0000
  C   C7        1.0  0.90183  0.58060  0.32980  1.0000
  C   C8        1.0  0.92479  0.60509  0.33677  1.0000
  C   C9        1.0  0.42475  0.33726  0.32983  1.0000
  C   C10       1.0  0.40026  0.33575  0.33679  1.0000
  C   C11       1.0  0.66805  0.10351  0.33005  1.0000
  C   C12       1.0  0.66954  0.08052  0.33698  1.0000
  C   C13       1.0  0.19112  0.43936  0.31451  1.0000
  C   C14       1.0  0.20511  0.43788  0.24193  1.0000
  C   C15       1.0  0.22826  0.43805  0.25535  1.0000
  N   N1        1.0  0.23790  0.43806  0.17606  1.0000
  O   O1        1.0  0.20007  0.43836  0.15447  1.0000
  C   C16       1.0  0.22082  0.43783  0.11788  1.0000
  H   H1        1.0  0.22370  0.43844  0.05130  1.0000
  N   N2        1.0  0.16972  0.44140  0.30124  1.0000
  H   H2        1.0  0.15717  0.42967  0.25798  1.0000
  C   C17       1.0  0.56596  0.76778  0.31438  1.0000
  C   C18       1.0  0.56744  0.78325  0.24181  1.0000
  C   C19       1.0  0.56727  0.80623  0.25523  1.0000
  N   N3        1.0  0.56726  0.81587  0.17596  1.0000
  O   O2        1.0  0.56696  0.77773  0.15434  1.0000
  C   C20       1.0  0.56748  0.79900  0.11776  1.0000
  H   H3        1.0  0.56688  0.80129  0.05119  1.0000
  N   N4        1.0  0.56392  0.74435  0.30109  1.0000
  H   H4        1.0  0.57564  0.74351  0.25779  1.0000
  C   C21       1.0  0.23757  0.81418  0.31415  1.0000
  C   C22       1.0  0.22207  0.80017  0.24166  1.0000
  C   C23       1.0  0.19909  0.77704  0.25523  1.0000
  N   N5        1.0  0.18941  0.76736  0.17600  1.0000
  O   O3        1.0  0.22756  0.80517  0.15416  1.0000
  C   C24       1.0  0.20626  0.78442  0.11771  1.0000
  H   H5        1.0  0.20395  0.78151  0.05115  1.0000
  N   N6        1.0  0.26100  0.83557  0.30073  1.0000
  H   H6        1.0  0.26183  0.84810  0.25740  1.0000
  C   C25       1.0  0.80527  0.57479  0.31435  1.0000
  C   C26       1.0  0.79127  0.57628  0.24179  1.0000
  C   C27       1.0  0.76813  0.57612  0.25524  1.0000
  N   N7        1.0  0.75849  0.57613  0.17597  1.0000
  O   O4        1.0  0.79631  0.57581  0.15432  1.0000
  C   C28       1.0  0.77557  0.57635  0.11776  1.0000
  H   H7        1.0  0.77269  0.57576  0.05119  1.0000
  N   N8        1.0  0.82668  0.57278  0.30106  1.0000
  H   H8        1.0  0.83920  0.58446  0.25763  1.0000
  C   C29       1.0  0.43052  0.24648  0.31435  1.0000
  C   C30       1.0  0.42903  0.23101  0.24178  1.0000
  C   C31       1.0  0.42919  0.20802  0.25520  1.0000
  N   N9        1.0  0.42918  0.19838  0.17592  1.0000
  O   O5        1.0  0.42949  0.23652  0.15431  1.0000
  C   C32       1.0  0.42895  0.21524  0.11773  1.0000
  H   H9        1.0  0.42954  0.21295  0.05115  1.0000
  N   N10       1.0  0.43253  0.26990  0.30109  1.0000
  H   H10       1.0  0.42085  0.27075  0.25767  1.0000
  C   C33       1.0  0.75887  0.20003  0.31463  1.0000
  C   C34       1.0  0.77431  0.21402  0.24198  1.0000
  C   C35       1.0  0.79728  0.23718  0.25531  1.0000
  N   N11       1.0  0.80689  0.24681  0.17599  1.0000
  O   O6        1.0  0.76877  0.20895  0.15454  1.0000
  C   C36       1.0  0.79002  0.22970  0.11787  1.0000
  H   H11       1.0  0.79228  0.23257  0.05128  1.0000
  N   N12       1.0  0.73545  0.17860  0.30146  1.0000
  H   H12       1.0  0.73460  0.16609  0.25799  1.0000
  C   C37       1.0  0.13202  0.59784  0.31338  1.0000
  C   C38       1.0  0.13241  0.58398  0.23817  1.0000
  C   C39       1.0  0.13205  0.56023  0.24692  1.0000
  H   H13       1.0  0.13241  0.55073  0.19119  1.0000
  H   H14       1.0  0.13250  0.59094  0.17635  1.0000
  N   N13       1.0  0.13235  0.62081  0.30460  1.0000
  H   H15       1.0  0.14404  0.63282  0.26008  1.0000
  C   C40       1.0  0.40750  0.55026  0.31351  1.0000
  C   C41       1.0  0.42138  0.56449  0.23832  1.0000
  C   C42       1.0  0.44516  0.58786  0.24712  1.0000
  H   H16       1.0  0.45468  0.59771  0.19140  1.0000
  H   H17       1.0  0.41444  0.55763  0.17650  1.0000
  N   N14       1.0  0.38451  0.52761  0.30468  1.0000
  H   H18       1.0  0.37252  0.52730  0.26014  1.0000
  C   C43       1.0  0.45507  0.87327  0.31366  1.0000
  C   C44       1.0  0.44085  0.87296  0.23846  1.0000
  C   C45       1.0  0.41750  0.87340  0.24727  1.0000
  H   H19       1.0  0.40765  0.87308  0.19154  1.0000
  H   H20       1.0  0.44771  0.87286  0.17664  1.0000
  N   N15       1.0  0.47769  0.87288  0.30485  1.0000
  H   H21       1.0  0.47800  0.86123  0.26017  1.0000
  C   C46       1.0  0.86445  0.41645  0.31344  1.0000
  C   C47       1.0  0.86412  0.43035  0.23827  1.0000
  C   C48       1.0  0.86453  0.45413  0.24711  1.0000
  H   H22       1.0  0.86421  0.46366  0.19141  1.0000
  H   H23       1.0  0.86402  0.42341  0.17644  1.0000
  N   N16       1.0  0.86406  0.39344  0.30460  1.0000
  H   H24       1.0  0.85242  0.38149  0.25990  1.0000
  C   C49       1.0  0.58889  0.46401  0.31358  1.0000
  C   C50       1.0  0.57500  0.44980  0.23838  1.0000
  C   C51       1.0  0.55122  0.42643  0.24716  1.0000
  H   H25       1.0  0.54170  0.41659  0.19143  1.0000
  H   H26       1.0  0.58195  0.45666  0.17656  1.0000
  N   N17       1.0  0.61190  0.48664  0.30480  1.0000
  H   H27       1.0  0.62387  0.48696  0.26012  1.0000
  C   C52       1.0  0.54134  0.14094  0.31348  1.0000
  C   C53       1.0  0.55557  0.14128  0.23829  1.0000
  C   C54       1.0  0.57894  0.14089  0.24710  1.0000
  H   H28       1.0  0.58880  0.14122  0.19137  1.0000
  H   H29       1.0  0.54871  0.14137  0.17647  1.0000
  N   N18       1.0  0.51871  0.14130  0.30469  1.0000
  H   H30       1.0  0.51837  0.15293  0.25998  1.0000
  C   C55       1.0  0.02572  0.38399  0.30131  1.0000
  C   C56       1.0  0.00769  0.37507  0.23111  1.0000
  O   O7        1.0  0.01310  0.38140  0.14415  1.0000
  N   N19       1.0  0.05078  0.40288  0.28475  1.0000
  H   H31       1.0  0.05330  0.41456  0.23569  1.0000
  C   C57       1.0  0.62140  0.65780  0.30118  1.0000
  C   C58       1.0  0.63031  0.64866  0.23102  1.0000
  C   C59       1.0  0.64285  0.63466  0.24752  1.0000
  N   N20       1.0  0.64422  0.62460  0.17052  1.0000
  O   O8        1.0  0.62399  0.64774  0.14405  1.0000
  C   C60       1.0  0.63413  0.63347  0.11016  1.0000
  H   H32       1.0  0.63139  0.62740  0.04603  1.0000
  N   N21       1.0  0.60251  0.66397  0.28456  1.0000
  H   H33       1.0  0.59083  0.65480  0.23553  1.0000
  C   C61       1.0  0.34749  0.97961  0.30112  1.0000
  C   C62       1.0  0.35666  0.99768  0.23102  1.0000
  C   C63       1.0  0.37069  0.02422  0.24759  1.0000
  N   N22       1.0  0.38077  0.03566  0.17061  1.0000
  O   O9        1.0  0.35757  0.99230  0.14402  1.0000
  C   C64       1.0  0.37187  0.01672  0.11019  1.0000
  H   H34       1.0  0.37794  0.02004  0.04607  1.0000
  N   N23       1.0  0.34129  0.95455  0.28443  1.0000
  H   H35       1.0  0.35047  0.95205  0.23539  1.0000
  C   C65       1.0  0.01532  0.65178  0.24761  1.0000
  N   N24       1.0  0.02677  0.65315  0.17063  1.0000
  C   C66       1.0  0.00782  0.64309  0.11021  1.0000
  H   H36       1.0  0.01116  0.64036  0.04610  1.0000
  N   N25       1.0  0.94566  0.61148  0.28444  1.0000
  H   H37       1.0  0.94316  0.59980  0.23541  1.0000
  C   C67       1.0  0.37499  0.35639  0.30107  1.0000
  C   C68       1.0  0.36609  0.36554  0.23094  1.0000
  C   C69       1.0  0.35359  0.37958  0.24744  1.0000
  N   N26       1.0  0.35222  0.38964  0.17044  1.0000
  O   O10       1.0  0.37237  0.36643  0.14394  1.0000
  C   C70       1.0  0.36225  0.38072  0.11005  1.0000
  H   H38       1.0  0.36498  0.38677  0.04591  1.0000
  N   N27       1.0  0.39386  0.35019  0.28437  1.0000
  H   H39       1.0  0.40554  0.35934  0.23532  1.0000
  C   C71       1.0  0.64889  0.03462  0.30115  1.0000
  C   C72       1.0  0.63975  0.01658  0.23097  1.0000
  C   C73       1.0  0.62572  0.99004  0.24741  1.0000
  N   N28       1.0  0.61567  0.97862  0.17036  1.0000
  O   O11       1.0  0.63887  0.02200  0.14398  1.0000
  C   C74       1.0  0.62459  0.99759  0.11004  1.0000
  H   H40       1.0  0.61855  0.99429  0.04588  1.0000
  N   N29       1.0  0.65509  0.05968  0.28453  1.0000
  H   H41       1.0  0.64595  0.06223  0.23547  1.0000
  C   C75       1.0  0.14219  0.45952  0.33158  1.0000
  C   C76       1.0  0.14076  0.48230  0.32030  1.0000
  C   C77       1.0  0.11662  0.48134  0.31298  1.0000
  C   C78       1.0  0.09376  0.45682  0.31682  1.0000
  C   C79       1.0  0.11898  0.43551  0.33871  1.0000
  H   H42       1.0  0.07611  0.45587  0.31360  1.0000
  H   H43       1.0  0.11980  0.41892  0.34940  1.0000
  H   H44       1.0  0.15760  0.49973  0.31401  1.0000
  C   C80       1.0  0.16629  0.46038  0.33745  1.0000
  C   C81       1.0  0.11543  0.50440  0.30004  1.0000
  O   O12       1.0  0.07139  0.39145  0.39337  1.0000
  O   O13       1.0  0.18580  0.48042  0.38172  1.0000
  O   O14       1.0  0.09574  0.50280  0.25039  1.0000
  C   C82       1.0  0.54584  0.69870  0.33151  1.0000
  C   C83       1.0  0.52306  0.67447  0.32040  1.0000
  C   C84       1.0  0.52404  0.65131  0.31306  1.0000
  C   C85       1.0  0.54858  0.65298  0.31678  1.0000
  C   C86       1.0  0.56986  0.69952  0.33851  1.0000
  H   H45       1.0  0.54954  0.63629  0.31356  1.0000
  H   H46       1.0  0.58644  0.71693  0.34917  1.0000
  H   H47       1.0  0.50562  0.67387  0.31412  1.0000
  C   C87       1.0  0.54496  0.72193  0.33737  1.0000
  C   C88       1.0  0.50099  0.62704  0.30023  1.0000
  O   O15       1.0  0.61394  0.69603  0.39315  1.0000
  O   O16       1.0  0.52492  0.72139  0.38169  1.0000
  O   O17       1.0  0.50258  0.60896  0.25051  1.0000
  C   C89       1.0  0.30664  0.86316  0.33124  1.0000
  C   C90       1.0  0.33088  0.86464  0.32026  1.0000
  C   C91       1.0  0.35404  0.88881  0.31302  1.0000
  C   C92       1.0  0.35233  0.91165  0.31673  1.0000
  C   C93       1.0  0.30578  0.88635  0.33825  1.0000
  H   H48       1.0  0.36901  0.92931  0.31359  1.0000
  H   H49       1.0  0.28836  0.88550  0.34880  1.0000
  H   H50       1.0  0.33151  0.84782  0.31400  1.0000
  C   C94       1.0  0.28343  0.83904  0.33702  1.0000
  C   C95       1.0  0.37832  0.89005  0.30033  1.0000
  O   O18       1.0  0.30924  0.93391  0.39300  1.0000
  O   O19       1.0  0.28397  0.81956  0.38149  1.0000
  O   O20       1.0  0.39641  0.90973  0.25066  1.0000
  C   C96       1.0  0.85427  0.55474  0.33149  1.0000
  C   C97       1.0  0.85575  0.53198  0.32042  1.0000
  C   C98       1.0  0.87991  0.53299  0.31306  1.0000
  C   C99       1.0  0.90275  0.55754  0.31672  1.0000
  C   C100      1.0  0.87745  0.57878  0.33845  1.0000
  H   H51       1.0  0.92041  0.55852  0.31349  1.0000
  H   H52       1.0  0.87661  0.59535  0.34906  1.0000
  H   H53       1.0  0.83893  0.51453  0.31418  1.0000
  C   C101      1.0  0.83015  0.55383  0.33735  1.0000
  C   C102      1.0  0.88115  0.50995  0.30025  1.0000
  O   O21       1.0  0.92502  0.62290  0.39298  1.0000
  O   O22       1.0  0.81067  0.53380  0.38178  1.0000
  O   O23       1.0  0.90083  0.51156  0.25052  1.0000
  C   C103      1.0  0.45060  0.31555  0.33149  1.0000
  C   C104      1.0  0.47336  0.33978  0.32037  1.0000
  C   C105      1.0  0.47235  0.36294  0.31299  1.0000
  C   C106      1.0  0.44781  0.36124  0.31664  1.0000
  C   C107      1.0  0.42656  0.31470  0.33849  1.0000
  H   H54       1.0  0.44684  0.37792  0.31346  1.0000
  H   H55       1.0  0.40999  0.29729  0.34913  1.0000
  H   H56       1.0  0.49080  0.34040  0.31411  1.0000
  C   C108      1.0  0.45149  0.29233  0.33734  1.0000
  C   C109      1.0  0.49540  0.38721  0.30015  1.0000
  O   O24       1.0  0.38245  0.31817  0.39308  1.0000
  O   O25       1.0  0.47152  0.29288  0.38177  1.0000
  O   O26       1.0  0.49379  0.40529  0.25047  1.0000
  C   C110      1.0  0.68980  0.15107  0.33176  1.0000
  C   C111      1.0  0.66558  0.14962  0.32064  1.0000
  C   C112      1.0  0.64241  0.12548  0.31316  1.0000
  C   C113      1.0  0.64409  0.10262  0.31680  1.0000
  C   C114      1.0  0.69062  0.12786  0.33875  1.0000
  H   H57       1.0  0.62739  0.08497  0.31358  1.0000
  H   H58       1.0  0.70803  0.12869  0.34941  1.0000
  H   H59       1.0  0.66498  0.16646  0.31430  1.0000
  C   C115      1.0  0.71303  0.17517  0.33763  1.0000
  C   C116      1.0  0.61815  0.12427  0.30026  1.0000
  O   O27       1.0  0.68709  0.08026  0.39331  1.0000
  O   O28       1.0  0.71250  0.19466  0.38204  1.0000
  O   O29       1.0  0.60008  0.10460  0.25047  1.0000
  C   C117      1.0  0.45083  0.15080  0.32010  1.0000
  C   C118      1.0  0.47363  0.14932  0.32987  1.0000
  C   C119      1.0  0.47277  0.12517  0.33212  1.0000
  C   C120      1.0  0.44834  0.10232  0.32493  1.0000
  C   C121      1.0  0.42527  0.10328  0.31290  1.0000
  C   C122      1.0  0.42692  0.12766  0.30914  1.0000
  H   H60       1.0  0.44748  0.08469  0.32453  1.0000
  H   H61       1.0  0.41033  0.12850  0.29920  1.0000
  H   H62       1.0  0.49099  0.16608  0.33877  1.0000
  C   C123      1.0  0.45167  0.17494  0.31842  1.0000
  C   C124      1.0  0.40093  0.08033  0.30298  1.0000
  C   C125      1.0  0.49585  0.12391  0.34327  1.0000
  O   O30       1.0  0.38320  0.08053  0.24740  1.0000
  O   O31       1.0  0.47217  0.19518  0.27840  1.0000
  O   O32       1.0  0.49422  0.10356  0.38888  1.0000
  C   C126      1.0  0.68929  0.55450  0.32020  1.0000
  C   C127      1.0  0.66501  0.53171  0.33010  1.0000
  C   C128      1.0  0.64171  0.53256  0.33221  1.0000
  C   C129      1.0  0.64329  0.55699  0.32489  1.0000
  C   C130      1.0  0.66733  0.58006  0.31280  1.0000
  C   C131      1.0  0.69006  0.57840  0.30909  1.0000
  H   H63       1.0  0.62653  0.55786  0.32443  1.0000
  H   H64       1.0  0.70749  0.59499  0.29909  1.0000
  H   H65       1.0  0.66440  0.51435  0.33897  1.0000
  C   C132      1.0  0.71258  0.55365  0.31856  1.0000
  C   C133      1.0  0.66872  0.60439  0.30279  1.0000
  C   C134      1.0  0.61738  0.50949  0.34340  1.0000
  O   O33       1.0  0.68665  0.62211  0.24714  1.0000
  O   O34       1.0  0.71231  0.53314  0.27857  1.0000
  O   O35       1.0  0.59865  0.51114  0.38892  1.0000
  C   C135      1.0  0.85453  0.31605  0.31982  1.0000
  C   C136      1.0  0.85602  0.34033  0.32974  1.0000
  C   C137      1.0  0.88018  0.36362  0.33191  1.0000
  C   C138      1.0  0.90301  0.36204  0.32454  1.0000
  C   C139      1.0  0.90204  0.33800  0.31253  1.0000
  C   C140      1.0  0.87766  0.31528  0.30876  1.0000
  H   H66       1.0  0.92065  0.37879  0.32429  1.0000
  H   H67       1.0  0.87681  0.29783  0.29879  1.0000
  H   H68       1.0  0.83927  0.34094  0.33863  1.0000
  C   C141      1.0  0.83038  0.29275  0.31821  1.0000
  C   C142      1.0  0.92499  0.33660  0.30265  1.0000
  C   C143      1.0  0.88143  0.38795  0.34320  1.0000
  O   O36       1.0  0.92480  0.31868  0.24703  1.0000
  O   O37       1.0  0.81012  0.29302  0.27843  1.0000
  O   O38       1.0  0.90182  0.40668  0.38865  1.0000
  C   C144      1.0  0.54559  0.86341  0.31999  1.0000
  C   C145      1.0  0.52279  0.86488  0.32992  1.0000
  C   C146      1.0  0.52363  0.88902  0.33208  1.0000
  C   C147      1.0  0.54804  0.91187  0.32462  1.0000
  C   C148      1.0  0.57112  0.91093  0.31257  1.0000
  C   C149      1.0  0.56948  0.88655  0.30889  1.0000
  H   H69       1.0  0.54890  0.92950  0.32432  1.0000
  H   H70       1.0  0.58608  0.88572  0.29886  1.0000
  H   H71       1.0  0.50544  0.84812  0.33891  1.0000
  C   C150      1.0  0.54476  0.83927  0.31839  1.0000
  C   C151      1.0  0.59545  0.93388  0.30262  1.0000
  C   C152      1.0  0.50055  0.89026  0.34341  1.0000
  O   O39       1.0  0.61317  0.93370  0.24692  1.0000
  O   O40       1.0  0.52424  0.81901  0.27859  1.0000
  O   O41       1.0  0.50220  0.91065  0.38884  1.0000
  C   C153      1.0  0.30713  0.45972  0.32017  1.0000
  C   C154      1.0  0.33141  0.48253  0.32999  1.0000
  C   C155      1.0  0.35471  0.48168  0.33212  1.0000
  C   C156      1.0  0.35314  0.45727  0.32473  1.0000
  C   C157      1.0  0.32911  0.43418  0.31277  1.0000
  C   C158      1.0  0.30637  0.43583  0.30911  1.0000
  H   H72       1.0  0.36991  0.45640  0.32439  1.0000
  H   H73       1.0  0.28894  0.41923  0.29915  1.0000
  H   H74       1.0  0.33200  0.49988  0.33894  1.0000
  C   C159      1.0  0.28382  0.46056  0.31856  1.0000
  C   C160      1.0  0.32773  0.40986  0.30279  1.0000
  C   C161      1.0  0.37903  0.50476  0.34331  1.0000
  O   O42       1.0  0.30980  0.39213  0.24719  1.0000
  O   O43       1.0  0.28408  0.48106  0.27861  1.0000
  O   O44       1.0  0.39777  0.50313  0.38881  1.0000
  C   C162      1.0  0.14190  0.69822  0.32039  1.0000
  C   C163      1.0  0.14041  0.67393  0.33016  1.0000
  C   C164      1.0  0.11625  0.65063  0.33225  1.0000
  C   C165      1.0  0.09341  0.65222  0.32491  1.0000
  C   C166      1.0  0.09438  0.67626  0.31300  1.0000
  C   C167      1.0  0.11877  0.69899  0.30936  1.0000
  H   H75       1.0  0.07578  0.63546  0.32454  1.0000
  H   H76       1.0  0.11961  0.71643  0.29943  1.0000
  H   H77       1.0  0.15716  0.67332  0.33907  1.0000
  C   C168      1.0  0.16605  0.72151  0.31877  1.0000
  C   C169      1.0  0.07144  0.67766  0.30303  1.0000
  C   C170      1.0  0.11500  0.62630  0.34335  1.0000
  O   O45       1.0  0.07165  0.69559  0.24744  1.0000
  O   O46       1.0  0.18628  0.72124  0.27871  1.0000
  O   O47       1.0  0.09461  0.60755  0.38876  1.0000
  C   C171      1.0  0.23802  0.43892  0.34085  1.0000
  C   C172      1.0  0.22295  0.43811  0.41391  1.0000
  C   C173      1.0  0.19980  0.43858  0.40079  1.0000
  H   H78       1.0  0.18957  0.43889  0.45455  1.0000
  H   H79       1.0  0.22942  0.43856  0.47679  1.0000
  N   N30       1.0  0.26147  0.44095  0.35289  1.0000
  H   H80       1.0  0.26232  0.42869  0.39363  1.0000
  C   C174      1.0  0.56641  0.81512  0.34074  1.0000
  C   C175      1.0  0.56721  0.80085  0.41379  1.0000
  C   C176      1.0  0.56675  0.77724  0.40066  1.0000
  H   H81       1.0  0.56643  0.76669  0.45442  1.0000
  H   H82       1.0  0.56676  0.80687  0.47667  1.0000
  N   N31       1.0  0.56436  0.83653  0.35279  1.0000
  H   H83       1.0  0.57665  0.84967  0.39341  1.0000
  C   C177      1.0  0.19022  0.76731  0.34079  1.0000
  C   C178      1.0  0.20453  0.78241  0.41375  1.0000
  C   C179      1.0  0.22814  0.80555  0.40048  1.0000
  H   H84       1.0  0.23871  0.81580  0.45418  1.0000
  H   H85       1.0  0.19853  0.77598  0.47667  1.0000
  N   N32       1.0  0.16879  0.74388  0.35294  1.0000
  H   H86       1.0  0.15572  0.74303  0.39383  1.0000
  C   C180      1.0  0.75838  0.57526  0.34076  1.0000
  C   C181      1.0  0.77346  0.57606  0.41380  1.0000
  C   C182      1.0  0.79659  0.57558  0.40064  1.0000
  H   H87       1.0  0.80684  0.57528  0.45439  1.0000
  H   H88       1.0  0.76700  0.57562  0.47668  1.0000
  N   N33       1.0  0.73494  0.57326  0.35280  1.0000
  H   H89       1.0  0.73409  0.58550  0.39365  1.0000
  C   C183      1.0  0.43006  0.19913  0.34070  1.0000
  C   C184      1.0  0.42927  0.21341  0.41376  1.0000
  C   C185      1.0  0.42974  0.23702  0.40063  1.0000
  H   H90       1.0  0.43005  0.24756  0.45439  1.0000
  H   H91       1.0  0.42971  0.20739  0.47664  1.0000
  N   N34       1.0  0.43206  0.17769  0.35273  1.0000
  H   H92       1.0  0.41984  0.16461  0.39362  1.0000
  C   C186      1.0  0.80620  0.24696  0.34078  1.0000
  C   C187      1.0  0.79196  0.23189  0.41389  1.0000
  C   C188      1.0  0.76836  0.20873  0.40086  1.0000
  H   H93       1.0  0.75784  0.19850  0.45467  1.0000
  H   H94       1.0  0.79800  0.23837  0.47675  1.0000
  N   N35       1.0  0.82762  0.27042  0.35275  1.0000
  H   H95       1.0  0.84075  0.27127  0.39339  1.0000
  C   C189      1.0  0.13182  0.54983  0.33119  1.0000
  C   C190      1.0  0.13277  0.56445  0.40594  1.0000
  C   C191      1.0  0.13263  0.58764  0.39684  1.0000
  N   N36       1.0  0.13366  0.59679  0.47780  1.0000
  O   O48       1.0  0.13338  0.55845  0.49235  1.0000
  C   C192      1.0  0.13406  0.57933  0.53273  1.0000
  H   H96       1.0  0.13479  0.58146  0.59969  1.0000
  N   N37       1.0  0.13206  0.52713  0.34104  1.0000
  H   H97       1.0  0.14313  0.52667  0.38767  1.0000
  C   C193      1.0  0.45554  0.59800  0.33141  1.0000
  C   C194      1.0  0.44090  0.58436  0.40613  1.0000
  C   C195      1.0  0.41769  0.56105  0.39699  1.0000
  N   N38       1.0  0.40852  0.55292  0.47793  1.0000
  O   O49       1.0  0.44689  0.59095  0.49256  1.0000
  C   C196      1.0  0.42598  0.57077  0.53289  1.0000
  H   H98       1.0  0.42384  0.56936  0.59985  1.0000
  N   N39       1.0  0.47827  0.62092  0.34133  1.0000
  H   H99       1.0  0.47872  0.63247  0.38787  1.0000
  C   C197      1.0  0.40735  0.87364  0.33155  1.0000
  C   C198      1.0  0.42098  0.87260  0.40627  1.0000
  C   C199      1.0  0.44427  0.87267  0.39713  1.0000
  N   N40       1.0  0.45238  0.87159  0.47807  1.0000
  O   O50       1.0  0.41438  0.87199  0.49270  1.0000
  C   C200      1.0  0.43455  0.87124  0.53302  1.0000
  H   H100      1.0  0.43594  0.87047  0.59999  1.0000
  N   N41       1.0  0.38444  0.87346  0.34146  1.0000
  H   H101      1.0  0.37288  0.86235  0.38797  1.0000
  C   C201      1.0  0.86477  0.46450  0.33142  1.0000
  C   C202      1.0  0.86375  0.44985  0.40612  1.0000
  C   C203      1.0  0.86384  0.42663  0.39694  1.0000
  N   N42       1.0  0.86277  0.41744  0.47786  1.0000
  O   O51       1.0  0.86313  0.45582  0.49255  1.0000
  C   C204      1.0  0.86239  0.43490  0.53285  1.0000
  H   H102      1.0  0.86163  0.43274  0.59980  1.0000
  N   N43       1.0  0.86457  0.48723  0.34137  1.0000
  H   H103      1.0  0.85346  0.48767  0.38791  1.0000
  C   C205      1.0  0.54084  0.41627  0.33144  1.0000
  C   C206      1.0  0.55549  0.42990  0.40617  1.0000
  C   C207      1.0  0.57870  0.45321  0.39705  1.0000
  N   N44       1.0  0.58789  0.46131  0.47800  1.0000
  O   O52       1.0  0.54950  0.42329  0.49260  1.0000
  C   C208      1.0  0.57042  0.44347  0.53294  1.0000
  H   H104      1.0  0.57257  0.44485  0.59990  1.0000
  N   N45       1.0  0.51811  0.39335  0.34134  1.0000
  H   H105      1.0  0.51766  0.38180  0.38789  1.0000
  C   C209      1.0  0.58910  0.14066  0.33138  1.0000
  C   C210      1.0  0.57546  0.14166  0.40610  1.0000
  C   C211      1.0  0.55214  0.14155  0.39696  1.0000
  N   N46       1.0  0.54403  0.14262  0.47790  1.0000
  O   O53       1.0  0.58206  0.14229  0.49252  1.0000
  C   C212      1.0  0.56188  0.14301  0.53285  1.0000
  H   H106      1.0  0.56049  0.14378  0.59982  1.0000
  N   N47       1.0  0.61203  0.14088  0.34130  1.0000
  H   H107      1.0  0.62357  0.15194  0.38793  1.0000
  C   C213      1.0  0.01580  0.37736  0.38830  1.0000
  H   H108      1.0  0.02783  0.38486  0.44151  1.0000
  N   N48       1.0  0.94628  0.35142  0.35263  1.0000
  H   H109      1.0  0.94429  0.36082  0.40211  1.0000
  C   C214      1.0  0.64834  0.63002  0.33423  1.0000
  C   C215      1.0  0.64136  0.64100  0.40425  1.0000
  C   C216      1.0  0.62801  0.65450  0.38818  1.0000
  H   H110      1.0  0.62051  0.65905  0.44138  1.0000
  H   H111      1.0  0.64360  0.63693  0.46820  1.0000
  N   N49       1.0  0.65390  0.61087  0.35269  1.0000
  H   H112      1.0  0.64449  0.59950  0.40219  1.0000
  C   C217      1.0  0.37534  0.03431  0.33434  1.0000
  C   C218      1.0  0.36432  0.01635  0.40433  1.0000
  C   C219      1.0  0.35079  0.98950  0.38817  1.0000
  H   H113      1.0  0.34621  0.97744  0.44132  1.0000
  H   H114      1.0  0.36840  0.02265  0.46829  1.0000
  N   N50       1.0  0.39448  0.05902  0.35281  1.0000
  H   H115      1.0  0.40586  0.06099  0.40228  1.0000
  C   C220      1.0  0.02541  0.65722  0.33436  1.0000
  C   C221      1.0  0.00745  0.65028  0.40435  1.0000
  H   H116      1.0  0.01375  0.65251  0.46831  1.0000
  N   N51       1.0  0.05013  0.66280  0.35284  1.0000
  H   H117      1.0  0.05208  0.65337  0.40230  1.0000
  C   C222      1.0  0.34817  0.38426  0.33418  1.0000
  C   C223      1.0  0.35511  0.37326  0.40421  1.0000
  C   C224      1.0  0.36842  0.35972  0.38810  1.0000
  H   H118      1.0  0.37591  0.35515  0.44128  1.0000
  H   H119      1.0  0.35290  0.37735  0.46815  1.0000
  N   N52       1.0  0.34260  0.40341  0.35258  1.0000
  H   H120      1.0  0.35200  0.41478  0.40208  1.0000
  C   C225      1.0  0.62103  0.97991  0.33411  1.0000
  C   C226      1.0  0.63202  0.99784  0.40419  1.0000
  C   C227      1.0  0.64556  0.02469  0.38816  1.0000
  H   H121      1.0  0.65011  0.03673  0.44136  1.0000
  H   H122      1.0  0.62792  0.99152  0.46812  1.0000
  N   N53       1.0  0.60188  0.95519  0.35244  1.0000
  H   H123      1.0  0.59052  0.95320  0.40199  1.0000
  C   C228      1.0  0.98114  0.36251  0.24755  1.0000
  N   N54       1.0  0.96972  0.36113  0.17052  1.0000
  C   C229      1.0  0.98869  0.37124  0.11020  1.0000
  H   H124      1.0  0.98538  0.37398  0.04607  1.0000
  C   C230      1.0  0.97072  0.63036  0.30114  1.0000
  C   C231      1.0  0.98878  0.63926  0.23104  1.0000
  O   O54       1.0  0.98341  0.63297  0.14404  1.0000
  C   C232      1.0  0.97100  0.35700  0.33423  1.0000
  C   C233      1.0  0.98894  0.36399  0.40430  1.0000
  H   H125      1.0  0.98262  0.36174  0.46823  1.0000
  C   C234      1.0  0.98060  0.63695  0.38818  1.0000
  H   H126      1.0  0.96854  0.62947  0.44134  1.0000
